MODEL 1
REMARK VINA RESULT:      -3.7      0.000      0.000
REMARK  5 active torsions:
REMARK  status: ('A' for Active; 'I' for Inactive)
REMARK    1  A    between atoms: C_2  and  S_1 
REMARK    2  A    between atoms: N_4  and  S_1 
REMARK    3  A    between atoms: C_10  and  N_4 
REMARK    4  A    between atoms: C_14  and  C_5 
REMARK    5  A    between atoms: C_13  and  C_10 
ROOT
ATOM      1  S   UNL d   1     -41.712-122.406 -52.047  0.00  0.00     0.285 S 
ATOM      2  O   UNL d   1     -42.291-121.842 -52.158  0.00  0.00    -0.198 OA
ATOM      3  O   UNL d   1     -41.124-122.979 -51.934  0.00  0.00    -0.198 OA
ENDROOT
BRANCH   1   4
ATOM      4  C   UNL d   1     -41.823-122.359 -51.231  0.00  0.00     0.105 A 
ATOM      5  C   UNL d   1     -42.231-122.957 -50.835  0.00  0.00     0.013 A 
ATOM      6  C   UNL d   1     -42.342-122.910 -50.020  0.00  0.00     0.001 A 
ATOM      7  C   UNL d   1     -42.046-122.266 -49.598  0.00  0.00     0.000 A 
ATOM      8  C   UNL d   1     -41.643-121.676 -49.995  0.00  0.00     0.001 A 
ATOM      9  C   UNL d   1     -41.532-121.723 -50.810  0.00  0.00     0.012 A 
ATOM     10  C   UNL d   1     -41.124-121.125 -51.206  0.00  0.00     0.001 C 
BRANCH   6  11
ATOM     11  C   UNL d   1     -42.753-123.512 -49.624  0.00  0.00     0.000 C 
ATOM     12  C   UNL d   1     -43.454-123.809 -49.941  0.00  0.00     0.000 C 
ATOM     13  C   UNL d   1     -42.460-123.815 -48.914  0.00  0.00     0.000 C 
ENDBRANCH   6  11
ENDBRANCH   1   4
BRANCH   1  14
ATOM     14  N   UNL d   1     -41.601-122.452 -52.863  0.00  0.00    -0.155 NA
BRANCH  14  15
ATOM     15  C   UNL d   1     -42.251-122.531 -53.364  0.00  0.00     0.131 C 
BRANCH  15  16
ATOM     16  C   UNL d   1     -42.178-122.354 -54.166  0.00  0.00     0.101 A 
ATOM     17  N   UNL d   1     -42.697-121.819 -54.520  0.00  0.00    -0.242 NA
ATOM     18  C   UNL d   1     -42.624-121.642 -55.322  0.00  0.00     0.099 A 
ATOM     19  C   UNL d   1     -42.031-121.999 -55.771  0.00  0.00     0.021 A 
ATOM     20  C   UNL d   1     -41.508-122.536 -55.418  0.00  0.00     0.003 A 
ATOM     21  C   UNL d   1     -41.581-122.714 -54.616  0.00  0.00     0.021 A 
ENDBRANCH  15  16
ENDBRANCH  14  15
ENDBRANCH   1  14
TORSDOF 5
ENDMDL
MODEL 2
REMARK VINA RESULT:      -3.0      1.122      4.498
REMARK  5 active torsions:
REMARK  status: ('A' for Active; 'I' for Inactive)
REMARK    1  A    between atoms: C_2  and  S_1 
REMARK    2  A    between atoms: N_4  and  S_1 
REMARK    3  A    between atoms: C_10  and  N_4 
REMARK    4  A    between atoms: C_14  and  C_5 
REMARK    5  A    between atoms: C_13  and  C_10 
ROOT
ATOM      1  S   UNL d   1     -41.911-122.430 -52.490  0.00  0.00     0.285 S 
ATOM      2  O   UNL d   1     -42.572-122.907 -52.472  0.00  0.00    -0.198 OA
ATOM      3  O   UNL d   1     -41.238-121.946 -52.508  0.00  0.00    -0.198 OA
ENDROOT
BRANCH   1   4
ATOM      4  C   UNL d   1     -41.787-122.631 -53.280  0.00  0.00     0.105 A 
ATOM      5  C   UNL d   1     -42.060-122.134 -53.880  0.00  0.00     0.013 A 
ATOM      6  C   UNL d   1     -41.937-122.335 -54.670  0.00  0.00     0.001 A 
ATOM      7  C   UNL d   1     -41.540-123.033 -54.862  0.00  0.00     0.000 A 
ATOM      8  C   UNL d   1     -41.272-123.522 -54.265  0.00  0.00     0.001 A 
ATOM      9  C   UNL d   1     -41.395-123.321 -53.475  0.00  0.00     0.012 A 
ATOM     10  C   UNL d   1     -41.123-123.817 -52.875  0.00  0.00     0.001 C 
BRANCH   6  11
ATOM     11  C   UNL d   1     -42.211-121.834 -55.271  0.00  0.00     0.000 C 
ATOM     12  C   UNL d   1     -41.727-121.231 -55.557  0.00  0.00     0.000 C 
ATOM     13  C   UNL d   1     -42.969-121.938 -55.582  0.00  0.00     0.000 C 
ENDBRANCH   6  11
ENDBRANCH   1   4
BRANCH   1  14
ATOM     14  N   UNL d   1     -42.034-122.229 -51.699  0.00  0.00    -0.155 NA
BRANCH  14  15
ATOM     15  C   UNL d   1     -41.737-122.712 -51.100  0.00  0.00     0.131 C 
BRANCH  15  16
ATOM     16  C   UNL d   1     -42.060-122.674 -50.342  0.00  0.00     0.101 A 
ATOM     17  N   UNL d   1     -42.807-122.345 -50.228  0.00  0.00    -0.242 NA
ATOM     18  C   UNL d   1     -43.130-122.308 -49.469  0.00  0.00     0.099 A 
ATOM     19  C   UNL d   1     -42.705-122.599 -48.826  0.00  0.00     0.021 A 
ATOM     20  C   UNL d   1     -41.954-122.930 -48.937  0.00  0.00     0.003 A 
ATOM     21  C   UNL d   1     -41.631-122.967 -49.696  0.00  0.00     0.021 A 
ENDBRANCH  15  16
ENDBRANCH  14  15
ENDBRANCH   1  14
TORSDOF 5
ENDMDL
MODEL 3
REMARK VINA RESULT:      -2.8      1.164      1.788
REMARK  5 active torsions:
REMARK  status: ('A' for Active; 'I' for Inactive)
REMARK    1  A    between atoms: C_2  and  S_1 
REMARK    2  A    between atoms: N_4  and  S_1 
REMARK    3  A    between atoms: C_10  and  N_4 
REMARK    4  A    between atoms: C_14  and  C_5 
REMARK    5  A    between atoms: C_13  and  C_10 
ROOT
ATOM      1  S   UNL d   1     -41.821-122.925 -50.744  0.00  0.00     0.285 S 
ATOM      2  O   UNL d   1     -41.507-122.186 -50.606  0.00  0.00    -0.198 OA
ATOM      3  O   UNL d   1     -42.142-123.677 -50.884  0.00  0.00    -0.198 OA
ENDROOT
BRANCH   1   4
ATOM      4  C   UNL d   1     -42.210-122.895 -50.017  0.00  0.00     0.105 A 
ATOM      5  C   UNL d   1     -41.833-123.168 -49.336  0.00  0.00     0.013 A 
ATOM      6  C   UNL d   1     -42.221-123.139 -48.609  0.00  0.00     0.001 A 
ATOM      7  C   UNL d   1     -42.987-122.836 -48.562  0.00  0.00     0.000 A 
ATOM      8  C   UNL d   1     -43.357-122.567 -49.239  0.00  0.00     0.001 A 
ATOM      9  C   UNL d   1     -42.969-122.597 -49.966  0.00  0.00     0.012 A 
ATOM     10  C   UNL d   1     -43.346-122.324 -50.647  0.00  0.00     0.001 C 
BRANCH   6  11
ATOM     11  C   UNL d   1     -41.840-123.413 -47.926  0.00  0.00     0.000 C 
ATOM     12  C   UNL d   1     -41.123-123.817 -47.989  0.00  0.00     0.000 C 
ATOM     13  C   UNL d   1     -42.177-123.284 -47.183  0.00  0.00     0.000 C 
ENDBRANCH   6  11
ENDBRANCH   1   4
BRANCH   1  14
ATOM     14  N   UNL d   1     -41.433-122.955 -51.471  0.00  0.00    -0.155 NA
BRANCH  14  15
ATOM     15  C   UNL d   1     -41.507-122.330 -52.003  0.00  0.00     0.131 C 
BRANCH  15  16
ATOM     16  C   UNL d   1     -41.487-122.475 -52.815  0.00  0.00     0.101 A 
ATOM     17  N   UNL d   1     -41.810-121.927 -53.341  0.00  0.00    -0.242 NA
ATOM     18  C   UNL d   1     -41.790-122.073 -54.153  0.00  0.00     0.099 A 
ATOM     19  C   UNL d   1     -41.448-122.766 -54.439  0.00  0.00     0.021 A 
ATOM     20  C   UNL d   1     -41.123-123.318 -53.914  0.00  0.00     0.003 A 
ATOM     21  C   UNL d   1     -41.142-123.173 -53.102  0.00  0.00     0.021 A 
ENDBRANCH  15  16
ENDBRANCH  14  15
ENDBRANCH   1  14
TORSDOF 5
ENDMDL
MODEL 4
REMARK VINA RESULT:      -1.7      1.381      4.463
REMARK  5 active torsions:
REMARK  status: ('A' for Active; 'I' for Inactive)
REMARK    1  A    between atoms: C_2  and  S_1 
REMARK    2  A    between atoms: N_4  and  S_1 
REMARK    3  A    between atoms: C_10  and  N_4 
REMARK    4  A    between atoms: C_14  and  C_5 
REMARK    5  A    between atoms: C_13  and  C_10 
ROOT
ATOM      1  S   UNL d   1     -41.560-122.862 -51.464  0.00  0.00     0.285 S 
ATOM      2  O   UNL d   1     -41.154-122.237 -51.134  0.00  0.00    -0.198 OA
ATOM      3  O   UNL d   1     -41.973-123.498 -51.800  0.00  0.00    -0.198 OA
ENDROOT
BRANCH   1   4
ATOM      4  C   UNL d   1     -41.478-122.521 -52.211  0.00  0.00     0.105 A 
ATOM      5  C   UNL d   1     -41.555-122.986 -52.888  0.00  0.00     0.013 A 
ATOM      6  C   UNL d   1     -41.474-122.645 -53.634  0.00  0.00     0.001 A 
ATOM      7  C   UNL d   1     -41.315-121.838 -53.704  0.00  0.00     0.000 A 
ATOM      8  C   UNL d   1     -41.239-121.382 -53.031  0.00  0.00     0.001 A 
ATOM      9  C   UNL d   1     -41.320-121.723 -52.285  0.00  0.00     0.012 A 
ATOM     10  C   UNL d   1     -41.243-121.258 -51.608  0.00  0.00     0.001 C 
BRANCH   6  11
ATOM     11  C   UNL d   1     -41.552-123.114 -54.313  0.00  0.00     0.000 C 
ATOM     12  C   UNL d   1     -42.058-122.877 -54.920  0.00  0.00     0.000 C 
ATOM     13  C   UNL d   1     -41.125-123.817 -54.383  0.00  0.00     0.000 C 
ENDBRANCH   6  11
ENDBRANCH   1   4
BRANCH   1  14
ATOM     14  N   UNL d   1     -41.641-123.204 -50.718  0.00  0.00    -0.155 NA
BRANCH  14  15
ATOM     15  C   UNL d   1     -42.112-122.839 -50.147  0.00  0.00     0.131 C 
BRANCH  15  16
ATOM     16  C   UNL d   1     -42.170-123.165 -49.392  0.00  0.00     0.101 A 
ATOM     17  N   UNL d   1     -41.488-123.376 -48.979  0.00  0.00    -0.242 NA
ATOM     18  C   UNL d   1     -41.547-123.702 -48.223  0.00  0.00     0.099 A 
ATOM     19  C   UNL d   1     -42.288-123.817 -47.880  0.00  0.00     0.021 A 
ATOM     20  C   UNL d   1     -42.975-123.606 -48.293  0.00  0.00     0.003 A 
ATOM     21  C   UNL d   1     -42.916-123.280 -49.048  0.00  0.00     0.021 A 
ENDBRANCH  15  16
ENDBRANCH  14  15
ENDBRANCH   1  14
TORSDOF 5
ENDMDL
