MODEL 1
REMARK VINA RESULT:      -3.4      0.000      0.000
REMARK  7 active torsions:
REMARK  status: ('A' for Active; 'I' for Inactive)
REMARK    1  A    between atoms: C_8  and  C_2 
REMARK    2  A    between atoms: C_12  and  N_3 
REMARK    3  A    between atoms: C_6  and  C_4 
REMARK       I    between atoms: C_7  and  N_13 
REMARK    4  A    between atoms: C_9  and  C_7 
REMARK    5  A    between atoms: N_13  and  C_8 
REMARK    6  A    between atoms: C_11  and  C_9 
REMARK    7  A    between atoms: C_10  and  C_11 
ROOT
ATOM      1  N   UNL d   1      58.375   0.327  31.062  0.00  0.00    -0.165 NA
ATOM      2  C   UNL d   1      57.928  -0.656  30.141  0.00  0.00     0.071 A 
ATOM      3  N   UNL d   1      57.289  -0.519  31.411  0.00  0.00    -0.228 N 
ATOM      4  C   UNL d   1      58.434  -0.050  30.334  0.00  0.00     0.105 A 
ATOM      5  C   UNL d   1      57.348  -0.896  30.683  0.00  0.00     0.105 A 
ENDROOT
BRANCH   2   6
ATOM      6  C   UNL d   1      57.987  -1.033  29.413  0.00  0.00     0.168 C 
BRANCH   6   7
ATOM      7  N   UNL d   1      58.215  -1.832  29.371  0.00  0.00    -0.362 NA
ATOM      8  C   UNL d   1      58.449  -2.637  29.330  0.00  0.00     0.329 C 
ATOM      9  O   UNL d   1      57.885  -3.229  29.156  0.00  0.00    -0.251 OA
BRANCH   8  10
ATOM     10  C   UNL d   1      59.251  -2.850  29.462  0.00  0.00     0.082 C 
BRANCH  10  11
ATOM     11  C   UNL d   1      59.570  -3.535  29.091  0.00  0.00     0.076 C 
BRANCH  11  12
ATOM     12  C   UNL d   1      60.395  -3.629  29.025  0.00  0.00     0.211 C 
ATOM     13  O   UNL d   1      60.704  -4.384  28.844  0.00  0.00    -0.644 OA
ATOM     14  O   UNL d   1      60.892  -2.975  29.140  0.00  0.00    -0.644 OA
ENDBRANCH  11  12
ENDBRANCH  10  11
ENDBRANCH   8  10
ENDBRANCH   6   7
ENDBRANCH   2   6
BRANCH   4  15
ATOM     15  C   UNL d   1      59.017   0.197  29.797  0.00  0.00     0.020 A 
ATOM     16  C   UNL d   1      59.783   0.281  30.045  0.00  0.00     0.008 A 
ATOM     17  C   UNL d   1      60.358   0.524  29.513  0.00  0.00     0.035 A 
ATOM     18 BR   UNL d   1      61.133   0.611  29.755  0.00  0.00    -0.049 Br
ATOM     19  C   UNL d   1      60.143   0.682  28.723  0.00  0.00     0.007 A 
ATOM     20  C   UNL d   1      59.367   0.596  28.475  0.00  0.00     0.001 A 
ATOM     21  C   UNL d   1      58.804   0.353  29.011  0.00  0.00     0.002 A 
ENDBRANCH   4  15
BRANCH   3  22
ATOM     22  C   UNL d   1      56.806  -0.597  32.067  0.00  0.00     0.083 A 
ATOM     23  C   UNL d   1      56.732   0.038  32.583  0.00  0.00     0.019 A 
ATOM     24  C   UNL d   1      56.244  -0.041  33.246  0.00  0.00     0.002 A 
ATOM     25  C   UNL d   1      55.840  -0.747  33.383  0.00  0.00     0.000 A 
ATOM     26  C   UNL d   1      55.922  -1.377  32.858  0.00  0.00     0.002 A 
ATOM     27  C   UNL d   1      56.406  -1.298  32.201  0.00  0.00     0.019 A 
ENDBRANCH   3  22
TORSDOF 7
ENDMDL
