MODEL 1
REMARK VINA RESULT:      54.4      0.000      0.000
REMARK  6 active torsions:
REMARK  status: ('A' for Active; 'I' for Inactive)
REMARK    1  A    between atoms: C_4  and  C_1 
REMARK    2  A    between atoms: C_3  and  N_8 
REMARK       I    between atoms: N_8  and  C_4 
REMARK    3  A    between atoms: C_14  and  C_6 
REMARK    4  A    between atoms: C_15  and  C_10 
REMARK    5  A    between atoms: C_12  and  C_16 
REMARK    6  A    between atoms: C_19  and  C_15 
ROOT
ATOM      1  C   UNL d   1      15.022  15.872  -1.761  0.00  0.00     0.083 A 
ATOM      2  C   UNL d   1      15.033  15.834  -2.582  0.00  0.00     0.032 A 
ATOM      3  C   UNL d   1      15.040  16.605  -2.873  0.00  0.00     0.100 A 
ATOM      4  C   UNL d   1      15.023  16.668  -1.541  0.00  0.00     0.105 A 
ATOM      5  O   UNL d   1      15.034  17.122  -2.229  0.00  0.00    -0.307 OA
ATOM      6  C   UNL d   1      15.014  16.961  -0.771  0.00  0.00     0.027 C 
ENDROOT
BRANCH   1   7
ATOM      7  C   UNL d   1      15.012  15.226  -1.247  0.00  0.00     0.283 C 
ATOM      8  N   UNL d   1      15.118  14.461  -1.545  0.00  0.00    -0.181 NA
ATOM      9  O   UNL d   1      14.897  15.342  -0.443  0.00  0.00    -0.265 OA
BRANCH   8  10
ATOM     10  C   UNL d   1      15.109  13.816  -1.032  0.00  0.00     0.216 A 
ATOM     11  N   UNL d   1      14.576  13.192  -1.055  0.00  0.00    -0.200 NA
ATOM     12  C   UNL d   1      14.769  12.673  -0.444  0.00  0.00     0.175 A 
ATOM     13  N   UNL d   1      15.423  12.982  -0.046  0.00  0.00    -0.187 NA
ATOM     14  S   UNL d   1      15.629  13.689  -0.414  0.00  0.00     0.054 SA
BRANCH  12  15
ATOM     15  C   UNL d   1      14.378  11.972  -0.263  0.00  0.00     0.082 C 
BRANCH  15  16
ATOM     16  C   UNL d   1      13.612  11.844  -0.543  0.00  0.00     0.199 C 
ATOM     17  O   UNL d   1      13.480  11.780  -1.356  0.00  0.00    -0.286 OA
ATOM     18  C   UNL d   1      12.983  11.782  -0.014  0.00  0.00     0.045 C 
ENDBRANCH  15  16
ENDBRANCH  12  15
ENDBRANCH   8  10
ENDBRANCH   1   7
BRANCH   3  19
ATOM     19  C   UNL d   1      15.052  16.821  -3.672  0.00  0.00     0.023 A 
ATOM     20  C   UNL d   1      14.972  17.615  -3.893  0.00  0.00     0.006 A 
ATOM     21  C   UNL d   1      14.985  17.822  -4.689  0.00  0.00     0.071 A 
ATOM     22  C   UNL d   1      15.076  17.242  -5.268  0.00  0.00     0.004 A 
ATOM     23  C   UNL d   1      15.155  16.448  -5.047  0.00  0.00     0.000 A 
ATOM     24  C   UNL d   1      15.143  16.240  -4.249  0.00  0.00     0.002 A 
BRANCH  21  25
ATOM     25  C   UNL d   1      14.906  18.614  -4.910  0.00  0.00     0.419 C 
ATOM     26  F   UNL d   1      15.567  19.043  -5.156  0.00  0.00    -0.166 F 
ATOM     27  F   UNL d   1      14.166  18.979  -4.885  0.00  0.00    -0.166 F 
ATOM     28  F   UNL d   1      15.706  18.447  -5.004  0.00  0.00    -0.166 F 
ENDBRANCH  21  25
ENDBRANCH   3  19
TORSDOF 6
ENDMDL
MODEL 2
REMARK VINA RESULT:      55.1      2.383      3.185
REMARK  6 active torsions:
REMARK  status: ('A' for Active; 'I' for Inactive)
REMARK    1  A    between atoms: C_4  and  C_1 
REMARK    2  A    between atoms: C_3  and  N_8 
REMARK       I    between atoms: N_8  and  C_4 
REMARK    3  A    between atoms: C_14  and  C_6 
REMARK    4  A    between atoms: C_15  and  C_10 
REMARK    5  A    between atoms: C_12  and  C_16 
REMARK    6  A    between atoms: C_19  and  C_15 
ROOT
ATOM      1  C   UNL d   1      14.037  16.042  -4.984  0.00  0.00     0.083 A 
ATOM      2  C   UNL d   1      13.684  16.645  -5.416  0.00  0.00     0.032 A 
ATOM      3  C   UNL d   1      14.118  17.335  -5.294  0.00  0.00     0.100 A 
ATOM      4  C   UNL d   1      14.692  16.357  -4.592  0.00  0.00     0.105 A 
ATOM      5  O   UNL d   1      14.743  17.157  -4.783  0.00  0.00    -0.307 OA
ATOM      6  C   UNL d   1      15.206  15.948  -4.096  0.00  0.00     0.027 C 
ENDROOT
BRANCH   1   7
ATOM      7  C   UNL d   1      13.780  15.258  -4.948  0.00  0.00     0.283 C 
ATOM      8  N   UNL d   1      13.685  14.889  -4.213  0.00  0.00    -0.181 NA
ATOM      9  O   UNL d   1      13.621  14.846  -5.639  0.00  0.00    -0.265 OA
BRANCH   8  10
ATOM     10  C   UNL d   1      13.429  14.107  -4.177  0.00  0.00     0.216 A 
ATOM     11  N   UNL d   1      13.702  13.536  -3.655  0.00  0.00    -0.200 NA
ATOM     12  C   UNL d   1      13.297  12.835  -3.812  0.00  0.00     0.175 A 
ATOM     13  N   UNL d   1      12.773  12.980  -4.435  0.00  0.00    -0.187 NA
ATOM     14  S   UNL d   1      12.859  13.768  -4.656  0.00  0.00     0.054 SA
BRANCH  12  15
ATOM     15  C   UNL d   1      13.396  12.119  -3.419  0.00  0.00     0.082 C 
BRANCH  15  16
ATOM     16  C   UNL d   1      13.749  12.106  -2.673  0.00  0.00     0.199 C 
ATOM     17  O   UNL d   1      14.506  12.422  -2.574  0.00  0.00    -0.286 OA
ATOM     18  C   UNL d   1      13.349  11.779  -2.031  0.00  0.00     0.045 C 
ENDBRANCH  15  16
ENDBRANCH  12  15
ENDBRANCH   8  10
ENDBRANCH   1   7
BRANCH   3  19
ATOM     19  C   UNL d   1      13.955  18.075  -5.626  0.00  0.00     0.023 A 
ATOM     20  C   UNL d   1      14.489  18.702  -5.537  0.00  0.00     0.006 A 
ATOM     21  C   UNL d   1      14.319  19.435  -5.870  0.00  0.00     0.071 A 
ATOM     22  C   UNL d   1      13.620  19.549  -6.292  0.00  0.00     0.004 A 
ATOM     23  C   UNL d   1      13.086  18.922  -6.380  0.00  0.00     0.000 A 
ATOM     24  C   UNL d   1      13.255  18.187  -6.046  0.00  0.00     0.002 A 
BRANCH  21  25
ATOM     25  C   UNL d   1      14.852  20.060  -5.782  0.00  0.00     0.419 C 
ATOM     26  F   UNL d   1      14.668  20.807  -6.083  0.00  0.00    -0.166 F 
ATOM     27  F   UNL d   1      15.570  19.940  -5.393  0.00  0.00    -0.166 F 
ATOM     28  F   UNL d   1      14.214  20.382  -6.189  0.00  0.00    -0.166 F 
ENDBRANCH  21  25
ENDBRANCH   3  19
TORSDOF 6
ENDMDL
MODEL 3
REMARK VINA RESULT:      55.6      3.088      5.718
REMARK  6 active torsions:
REMARK  status: ('A' for Active; 'I' for Inactive)
REMARK    1  A    between atoms: C_4  and  C_1 
REMARK    2  A    between atoms: C_3  and  N_8 
REMARK       I    between atoms: N_8  and  C_4 
REMARK    3  A    between atoms: C_14  and  C_6 
REMARK    4  A    between atoms: C_15  and  C_10 
REMARK    5  A    between atoms: C_12  and  C_16 
REMARK    6  A    between atoms: C_19  and  C_15 
ROOT
ATOM      1  C   UNL d   1      14.834  15.858  -2.003  0.00  0.00     0.083 A 
ATOM      2  C   UNL d   1      14.801  15.037  -1.971  0.00  0.00     0.032 A 
ATOM      3  C   UNL d   1      14.953  14.805  -1.194  0.00  0.00     0.100 A 
ATOM      4  C   UNL d   1      15.007  16.136  -1.245  0.00  0.00     0.105 A 
ATOM      5  O   UNL d   1      15.080  15.486  -0.744  0.00  0.00    -0.307 OA
ATOM      6  C   UNL d   1      15.091  16.926  -1.024  0.00  0.00     0.027 C 
ENDROOT
BRANCH   1   7
ATOM      7  C   UNL d   1      14.715  16.321  -2.675  0.00  0.00     0.283 C 
ATOM      8  N   UNL d   1      15.248  16.273  -3.307  0.00  0.00    -0.181 NA
ATOM      9  O   UNL d   1      14.071  16.827  -2.718  0.00  0.00    -0.265 OA
BRANCH   8  10
ATOM     10  C   UNL d   1      15.130  16.735  -3.979  0.00  0.00     0.216 A 
ATOM     11  N   UNL d   1      15.317  17.531  -4.054  0.00  0.00    -0.200 NA
ATOM     12  C   UNL d   1      15.106  17.768  -4.815  0.00  0.00     0.175 A 
ATOM     13  N   UNL d   1      14.789  17.114  -5.207  0.00  0.00    -0.187 NA
ATOM     14  S   UNL d   1      14.806  16.478  -4.685  0.00  0.00     0.054 SA
BRANCH  12  15
ATOM     15  C   UNL d   1      15.196  18.524  -5.129  0.00  0.00     0.082 C 
BRANCH  15  16
ATOM     16  C   UNL d   1      14.533  18.944  -5.385  0.00  0.00     0.199 C 
ATOM     17  O   UNL d   1      14.106  18.672  -6.039  0.00  0.00    -0.286 OA
ATOM     18  C   UNL d   1      14.298  19.628  -4.992  0.00  0.00     0.045 C 
ENDBRANCH  15  16
ENDBRANCH  12  15
ENDBRANCH   8  10
ENDBRANCH   1   7
BRANCH   3  19
ATOM     19  C   UNL d   1      14.974  14.026  -0.916  0.00  0.00     0.023 A 
ATOM     20  C   UNL d   1      14.489  13.447  -1.256  0.00  0.00     0.006 A 
ATOM     21  C   UNL d   1      14.515  12.674  -0.974  0.00  0.00     0.071 A 
ATOM     22  C   UNL d   1      15.022  12.473  -0.356  0.00  0.00     0.004 A 
ATOM     23  C   UNL d   1      15.507  13.053  -0.016  0.00  0.00     0.000 A 
ATOM     24  C   UNL d   1      15.481  13.828  -0.298  0.00  0.00     0.002 A 
BRANCH  21  25
ATOM     25  C   UNL d   1      14.031  12.096  -1.312  0.00  0.00     0.419 C 
ATOM     26  F   UNL d   1      14.219  11.780  -2.052  0.00  0.00    -0.166 F 
ATOM     27  F   UNL d   1      13.359  11.832  -0.912  0.00  0.00    -0.166 F 
ATOM     28  F   UNL d   1      14.634  12.215  -1.860  0.00  0.00    -0.166 F 
ENDBRANCH  21  25
ENDBRANCH   3  19
TORSDOF 6
ENDMDL
MODEL 4
REMARK VINA RESULT:      56.2      3.586      6.104
REMARK  6 active torsions:
REMARK  status: ('A' for Active; 'I' for Inactive)
REMARK    1  A    between atoms: C_4  and  C_1 
REMARK    2  A    between atoms: C_3  and  N_8 
REMARK       I    between atoms: N_8  and  C_4 
REMARK    3  A    between atoms: C_14  and  C_6 
REMARK    4  A    between atoms: C_15  and  C_10 
REMARK    5  A    between atoms: C_12  and  C_16 
REMARK    6  A    between atoms: C_19  and  C_15 
ROOT
ATOM      1  C   UNL d   1      13.733  14.043  -4.214  0.00  0.00     0.083 A 
ATOM      2  C   UNL d   1      14.016  13.839  -3.470  0.00  0.00     0.032 A 
ATOM      3  C   UNL d   1      13.662  13.128  -3.248  0.00  0.00     0.100 A 
ATOM      4  C   UNL d   1      13.202  13.458  -4.455  0.00  0.00     0.105 A 
ATOM      5  O   UNL d   1      13.158  12.892  -3.858  0.00  0.00    -0.307 OA
ATOM      6  C   UNL d   1      12.788  13.440  -5.167  0.00  0.00     0.027 C 
ENDROOT
BRANCH   1   7
ATOM      7  C   UNL d   1      13.944  14.715  -4.644  0.00  0.00     0.283 C 
ATOM      8  N   UNL d   1      13.991  15.449  -4.263  0.00  0.00    -0.181 NA
ATOM      9  O   UNL d   1      14.105  14.657  -5.446  0.00  0.00    -0.265 OA
BRANCH   8  10
ATOM     10  C   UNL d   1      14.201  16.121  -4.692  0.00  0.00     0.216 A 
ATOM     11  N   UNL d   1      13.732  16.503  -5.246  0.00  0.00    -0.200 NA
ATOM     12  C   UNL d   1      14.159  17.146  -5.537  0.00  0.00     0.175 A 
ATOM     13  N   UNL d   1      14.893  17.155  -5.158  0.00  0.00    -0.187 NA
ATOM     14  S   UNL d   1      14.914  16.519  -4.637  0.00  0.00     0.054 SA
BRANCH  12  15
ATOM     15  C   UNL d   1      13.900  17.683  -6.105  0.00  0.00     0.082 C 
BRANCH  15  16
ATOM     16  C   UNL d   1      13.791  18.475  -5.900  0.00  0.00     0.199 C 
ATOM     17  O   UNL d   1      13.156  18.896  -6.223  0.00  0.00    -0.286 OA
ATOM     18  C   UNL d   1      14.310  18.844  -5.378  0.00  0.00     0.045 C 
ENDBRANCH  15  16
ENDBRANCH  12  15
ENDBRANCH   8  10
ENDBRANCH   1   7
BRANCH   3  19
ATOM     19  C   UNL d   1      13.791  12.724  -2.537  0.00  0.00     0.023 A 
ATOM     20  C   UNL d   1      14.480  12.856  -2.099  0.00  0.00     0.006 A 
ATOM     21  C   UNL d   1      14.601  12.450  -1.393  0.00  0.00     0.071 A 
ATOM     22  C   UNL d   1      14.039  11.912  -1.121  0.00  0.00     0.004 A 
ATOM     23  C   UNL d   1      13.350  11.780  -1.559  0.00  0.00     0.000 A 
ATOM     24  C   UNL d   1      13.227  12.186  -2.267  0.00  0.00     0.002 A 
BRANCH  21  25
ATOM     25  C   UNL d   1      15.289  12.583  -0.955  0.00  0.00     0.419 C 
ATOM     26  F   UNL d   1      15.242  12.918  -0.201  0.00  0.00    -0.166 F 
ATOM     27  F   UNL d   1      16.025  12.380  -1.269  0.00  0.00    -0.166 F 
ATOM     28  F   UNL d   1      14.677  12.848  -0.473  0.00  0.00    -0.166 F 
ENDBRANCH  21  25
ENDBRANCH   3  19
TORSDOF 6
ENDMDL
