MODEL 1
REMARK VINA RESULT:      42.8      0.000      0.000
REMARK  2 active torsions:
REMARK  status: ('A' for Active; 'I' for Inactive)
REMARK    1  A    between atoms: C_3  and  C_1 
REMARK       I    between atoms: N_7  and  C_3 
REMARK    2  A    between atoms: C_11  and  N_7 
ROOT
ATOM      1  C   UNL d   1      60.228  49.500  50.958  0.00  0.00     0.121 A 
ATOM      2  C   UNL d   1      60.944  49.316  50.590  0.00  0.00     0.305 A 
ATOM      3  C   UNL d   1      60.201  49.631  51.782  0.00  0.00     0.012 A 
ATOM      4  O   UNL d   1      61.622  49.265  51.051  0.00  0.00    -0.273 OA
ATOM      5  C   UNL d   1      60.892  49.572  52.213  0.00  0.00     0.023 A 
ATOM      6  C   UNL d   1      61.607  49.388  51.845  0.00  0.00     0.103 A 
ATOM      7  O   UNL d   1      60.983  49.187  49.790  0.00  0.00    -0.259 OA
ATOM      8  C   UNL d   1      60.866  49.703  53.040  0.00  0.00     0.002 A 
ATOM      9  C   UNL d   1      62.287  49.337  52.309  0.00  0.00     0.025 A 
ATOM     10  C   UNL d   1      61.553  49.644  53.462  0.00  0.00     0.000 A 
ATOM     11  C   UNL d   1      62.268  49.460  53.094  0.00  0.00     0.002 A 
ENDROOT
BRANCH   1  12
ATOM     12  C   UNL d   1      59.530  49.558  50.514  0.00  0.00     0.284 C 
ATOM     13  N   UNL d   1      58.790  49.475  50.872  0.00  0.00    -0.208 NA
ATOM     14  O   UNL d   1      59.530  49.699  49.702  0.00  0.00    -0.265 OA
BRANCH  13  15
ATOM     15  C   UNL d   1      58.107  49.532  50.428  0.00  0.00     0.085 A 
ATOM     16  C   UNL d   1      58.138  49.533  49.610  0.00  0.00     0.019 A 
ATOM     17  C   UNL d   1      57.451  49.591  49.158  0.00  0.00     0.002 A 
ATOM     18  C   UNL d   1      56.720  49.650  49.546  0.00  0.00     0.000 A 
ATOM     19  C   UNL d   1      56.662  49.651  50.371  0.00  0.00     0.002 A 
ATOM     20  C   UNL d   1      56.044  49.707  49.116  0.00  0.00     0.000 C 
ATOM     21  C   UNL d   1      57.362  49.592  50.812  0.00  0.00     0.019 A 
ENDBRANCH  13  15
ENDBRANCH   1  12
TORSDOF 2
ENDMDL
