MODEL 1
REMARK VINA RESULT:      -5.8      0.000      0.000
REMARK  2 active torsions:
REMARK  status: ('A' for Active; 'I' for Inactive)
REMARK    1  A    between atoms: C_6  and  C_1 
REMARK       I    between atoms: N_12  and  C_6 
REMARK    2  A    between atoms: O_15  and  C_13 
ROOT
ATOM      1  C   UNL d   1     -41.589-122.608 -53.927  0.00  0.00     0.101 A 
ATOM      2  C   UNL d   1     -41.361-123.395 -53.934  0.00  0.00     0.208 A 
ATOM      3  C   UNL d   1     -41.665-122.214 -53.205  0.00  0.00     0.011 A 
ATOM      4  O   UNL d   1     -41.205-123.800 -53.224  0.00  0.00    -0.288 OA
ATOM      5  C   UNL d   1     -41.508-122.622 -52.496  0.00  0.00     0.025 A 
ATOM      6  C   UNL d   1     -41.285-123.391 -52.507  0.00  0.00     0.102 A 
ATOM      7  N   UNL d   1     -41.290-123.770 -54.650  0.00  0.00    -0.121 N 
ATOM      8  C   UNL d   1     -41.591-122.205 -51.783  0.00  0.00     0.026 A 
ATOM      9  C   UNL d   1     -41.125-123.814 -51.809  0.00  0.00     0.027 A 
ATOM     10  C   UNL d   1     -41.430-122.629 -51.081  0.00  0.00     0.094 A 
ATOM     11  C   UNL d   1     -41.206-123.401 -51.092  0.00  0.00     0.026 A 
ENDROOT
BRANCH   1  12
ATOM     12  C   UNL d   1     -41.741-122.218 -54.636  0.00  0.00     0.283 C 
ATOM     13  O   UNL d   1     -41.159-121.960 -55.073  0.00  0.00    -0.265 OA
ATOM     14  N   UNL d   1     -42.500-122.085 -54.912  0.00  0.00    -0.205 NA
ATOM     15  C   UNL d   1     -42.633-121.697 -55.618  0.00  0.00     0.123 C 
ENDBRANCH   1  12
BRANCH  10  16
ATOM     16  O   UNL d   1     -41.486-122.306 -50.369  0.00  0.00    -0.328 OA
ATOM     17  C   UNL d   1     -41.991-122.530 -49.724  0.00  0.00     0.181 C 
ENDBRANCH  10  16
TORSDOF 2
ENDMDL
MODEL 2
REMARK VINA RESULT:      -3.8      1.976      3.917
REMARK  2 active torsions:
REMARK  status: ('A' for Active; 'I' for Inactive)
REMARK    1  A    between atoms: C_6  and  C_1 
REMARK       I    between atoms: N_12  and  C_6 
REMARK    2  A    between atoms: O_15  and  C_13 
ROOT
ATOM      1  C   UNL d   1     -41.631-122.806 -50.650  0.00  0.00     0.101 A 
ATOM      2  C   UNL d   1     -41.523-122.008 -50.801  0.00  0.00     0.208 A 
ATOM      3  C   UNL d   1     -41.584-123.348 -51.271  0.00  0.00     0.011 A 
ATOM      4  O   UNL d   1     -41.367-121.738 -51.573  0.00  0.00    -0.288 OA
ATOM      5  C   UNL d   1     -41.428-123.074 -52.043  0.00  0.00     0.025 A 
ATOM      6  C   UNL d   1     -41.323-122.294 -52.187  0.00  0.00     0.102 A 
ATOM      7  N   UNL d   1     -41.572-121.487 -50.181  0.00  0.00    -0.121 N 
ATOM      8  C   UNL d   1     -41.385-123.637 -52.651  0.00  0.00     0.026 A 
ATOM      9  C   UNL d   1     -41.167-122.003 -52.951  0.00  0.00     0.027 A 
ATOM     10  C   UNL d   1     -41.228-123.347 -53.419  0.00  0.00     0.094 A 
ATOM     11  C   UNL d   1     -41.123-122.563 -53.564  0.00  0.00     0.026 A 
ENDROOT
BRANCH   1  12
ATOM     12  C   UNL d   1     -41.784-123.061 -49.882  0.00  0.00     0.283 C 
ATOM     13  O   UNL d   1     -41.217-123.088 -49.358  0.00  0.00    -0.265 OA
ATOM     14  N   UNL d   1     -42.529-123.294 -49.635  0.00  0.00    -0.205 NA
ATOM     15  C   UNL d   1     -42.665-123.544 -48.870  0.00  0.00     0.123 C 
ENDBRANCH   1  12
BRANCH  10  16
ATOM     16  O   UNL d   1     -41.173-123.813 -54.046  0.00  0.00    -0.328 OA
ATOM     17  C   UNL d   1     -41.486-123.691 -54.826  0.00  0.00     0.181 C 
ENDBRANCH  10  16
TORSDOF 2
ENDMDL
MODEL 3
REMARK VINA RESULT:      -3.1      1.076      1.508
REMARK  2 active torsions:
REMARK  status: ('A' for Active; 'I' for Inactive)
REMARK    1  A    between atoms: C_6  and  C_1 
REMARK       I    between atoms: N_12  and  C_6 
REMARK    2  A    between atoms: O_15  and  C_13 
ROOT
ATOM      1  C   UNL d   1     -41.552-122.877 -53.241  0.00  0.00     0.101 A 
ATOM      2  C   UNL d   1     -41.379-122.085 -53.118  0.00  0.00     0.208 A 
ATOM      3  C   UNL d   1     -41.583-123.391 -52.595  0.00  0.00     0.011 A 
ATOM      4  O   UNL d   1     -41.236-121.794 -52.352  0.00  0.00    -0.288 OA
ATOM      5  C   UNL d   1     -41.439-123.096 -51.829  0.00  0.00     0.025 A 
ATOM      6  C   UNL d   1     -41.271-122.323 -51.713  0.00  0.00     0.102 A 
ATOM      7  N   UNL d   1     -41.352-121.592 -53.762  0.00  0.00    -0.121 N 
ATOM      8  C   UNL d   1     -41.476-123.631 -51.196  0.00  0.00     0.026 A 
ATOM      9  C   UNL d   1     -41.124-122.011 -50.956  0.00  0.00     0.027 A 
ATOM     10  C   UNL d   1     -41.329-123.321 -50.434  0.00  0.00     0.094 A 
ATOM     11  C   UNL d   1     -41.160-122.544 -50.318  0.00  0.00     0.026 A 
ENDROOT
BRANCH   1  12
ATOM     12  C   UNL d   1     -41.692-123.153 -54.004  0.00  0.00     0.283 C 
ATOM     13  O   UNL d   1     -41.123-123.472 -54.416  0.00  0.00    -0.265 OA
ATOM     14  N   UNL d   1     -42.427-123.105 -54.362  0.00  0.00    -0.205 NA
ATOM     15  C   UNL d   1     -42.550-123.383 -55.120  0.00  0.00     0.123 C 
ENDBRANCH   1  12
BRANCH  10  16
ATOM     16  O   UNL d   1     -41.345-123.761 -49.786  0.00  0.00    -0.328 OA
ATOM     17  C   UNL d   1     -41.608-123.547 -49.007  0.00  0.00     0.181 C 
ENDBRANCH  10  16
TORSDOF 2
ENDMDL
