MODEL 1
REMARK VINA RESULT:      49.8      0.000      0.000
REMARK  4 active torsions:
REMARK  status: ('A' for Active; 'I' for Inactive)
REMARK       I    between atoms: N_3  and  C_1 
REMARK       I    between atoms: N_7  and  C_1 
REMARK    1  A    between atoms: C_2  and  N_3 
REMARK    2  A    between atoms: C_4  and  C_5 
REMARK    3  A    between atoms: O_13  and  C_4 
REMARK    4  A    between atoms: C_15  and  N_7 
ROOT
ATOM      1  C   UNL d   1     -51.070  26.800  33.460  0.00  0.00     0.097 A 
ATOM      2  C   UNL d   1     -49.681  26.613  33.729  0.00  0.00     0.065 A 
ATOM      3  C   UNL d   1     -50.429  26.297  33.581  0.00  0.00     0.025 A 
ATOM      4  C   UNL d   1     -50.964  27.619  33.485  0.00  0.00     0.075 A 
ATOM      5  C   UNL d   1     -49.574  27.440  33.755  0.00  0.00     0.006 A 
ATOM      6  C   UNL d   1     -50.217  27.935  33.632  0.00  0.00     0.013 A 
ATOM      7 CL   UNL d   1     -51.610  28.123  33.362  0.00  0.00    -0.081 Cl
ENDROOT
BRANCH   1   8
ATOM      8  N   UNL d   1     -51.817  26.485  33.312  0.00  0.00    -0.190 NA
ATOM      9  C   UNL d   1     -52.013  25.739  33.604  0.00  0.00     0.369 C 
ATOM     10  N   UNL d   1     -52.763  25.426  33.454  0.00  0.00    -0.191 NA
ATOM     11  O   UNL d   1     -51.462  25.309  34.043  0.00  0.00    -0.242 OA
BRANCH  10  12
ATOM     12  C   UNL d   1     -52.962  24.677  33.746  0.00  0.00     0.086 A 
ATOM     13  C   UNL d   1     -53.466  24.188  33.306  0.00  0.00     0.019 A 
ATOM     14  C   UNL d   1     -53.658  23.444  33.607  0.00  0.00     0.002 A 
ATOM     15  C   UNL d   1     -53.353  23.190  34.331  0.00  0.00     0.000 A 
ATOM     16  C   UNL d   1     -52.857  23.681  34.755  0.00  0.00     0.002 A 
ATOM     17  C   UNL d   1     -52.657  24.424  34.471  0.00  0.00     0.019 A 
ENDBRANCH  10  12
ENDBRANCH   1   8
BRANCH   2  18
ATOM     18  C   UNL d   1     -49.031  26.109  33.853  0.00  0.00     0.296 C 
ATOM     19  O   UNL d   1     -48.336  26.409  34.184  0.00  0.00    -0.259 OA
BRANCH  18  20
ATOM     20  O   UNL d   1     -49.080  25.312  33.646  0.00  0.00    -0.296 OA
ATOM     21  C   UNL d   1     -48.412  24.916  33.365  0.00  0.00     0.185 C 
ENDBRANCH  18  20
ENDBRANCH   2  18
TORSDOF 4
ENDMDL
MODEL 2
REMARK VINA RESULT:      49.8      1.713      4.111
REMARK  4 active torsions:
REMARK  status: ('A' for Active; 'I' for Inactive)
REMARK       I    between atoms: N_3  and  C_1 
REMARK       I    between atoms: N_7  and  C_1 
REMARK    1  A    between atoms: C_2  and  N_3 
REMARK    2  A    between atoms: C_4  and  C_5 
REMARK    3  A    between atoms: O_13  and  C_4 
REMARK    4  A    between atoms: C_15  and  N_7 
ROOT
ATOM      1  C   UNL d   1     -50.858  26.436  33.348  0.00  0.00     0.097 A 
ATOM      2  C   UNL d   1     -51.091  25.031  33.433  0.00  0.00     0.065 A 
ATOM      3  C   UNL d   1     -50.567  25.667  33.390  0.00  0.00     0.025 A 
ATOM      4  C   UNL d   1     -51.673  26.572  33.348  0.00  0.00     0.075 A 
ATOM      5  C   UNL d   1     -51.914  25.167  33.433  0.00  0.00     0.006 A 
ATOM      6  C   UNL d   1     -52.197  25.937  33.391  0.00  0.00     0.013 A 
ATOM      7 CL   UNL d   1     -51.963  27.346  33.306  0.00  0.00    -0.081 Cl
ENDROOT
BRANCH   1   8
ATOM      8  N   UNL d   1     -50.334  27.072  33.306  0.00  0.00    -0.190 NA
ATOM      9  C   UNL d   1     -49.909  27.299  33.974  0.00  0.00     0.369 C 
ATOM     10  N   UNL d   1     -49.384  27.936  33.928  0.00  0.00    -0.191 NA
ATOM     11  O   UNL d   1     -50.007  26.890  34.685  0.00  0.00    -0.242 OA
BRANCH  10  12
ATOM     12  C   UNL d   1     -48.956  28.165  34.598  0.00  0.00     0.086 A 
ATOM     13  C   UNL d   1     -49.268  28.015  35.352  0.00  0.00     0.019 A 
ATOM     14  C   UNL d   1     -48.832  28.248  36.014  0.00  0.00     0.002 A 
ATOM     15  C   UNL d   1     -48.101  28.622  35.928  0.00  0.00     0.000 A 
ATOM     16  C   UNL d   1     -47.805  28.764  35.181  0.00  0.00     0.002 A 
ATOM     17  C   UNL d   1     -48.225  28.539  34.513  0.00  0.00     0.019 A 
ENDBRANCH  10  12
ENDBRANCH   1   8
BRANCH   2  18
ATOM     18  C   UNL d   1     -50.802  24.253  33.476  0.00  0.00     0.296 C 
ATOM     19  O   UNL d   1     -51.303  23.619  33.306  0.00  0.00    -0.259 OA
BRANCH  18  20
ATOM     20  O   UNL d   1     -50.017  24.114  33.687  0.00  0.00    -0.296 OA
ATOM     21  C   UNL d   1     -49.743  23.340  33.774  0.00  0.00     0.185 C 
ENDBRANCH  18  20
ENDBRANCH   2  18
TORSDOF 4
ENDMDL
