MODEL 1
REMARK VINA RESULT:      -0.4      0.000      0.000
REMARK  8 active torsions:
REMARK  status: ('A' for Active; 'I' for Inactive)
REMARK    1  A    between atoms: C_3  and  C_1 
REMARK    2  A    between atoms: N_4  and  C_2 
REMARK    3  A    between atoms: O_21  and  C_3 
REMARK       I    between atoms: C_11  and  N_4 
REMARK    4  A    between atoms: C_6  and  C_7 
REMARK    5  A    between atoms: O_22  and  C_6 
REMARK    6  A    between atoms: C_10  and  C_20 
REMARK    7  A    between atoms: C_19  and  C_11 
REMARK    8  A    between atoms: C_20  and  C_19 
ROOT
ATOM      1  C   UNL d   1     -41.567-121.458 -52.119  0.00  0.00     0.081 A 
ATOM      2  C   UNL d   1     -41.321-122.237 -52.011  0.00  0.00     0.090 A 
ATOM      3  C   UNL d   1     -41.463-122.490 -53.404  0.00  0.00     0.065 A 
ATOM      4  C   UNL d   1     -41.268-122.754 -52.647  0.00  0.00     0.025 A 
ATOM      5  C   UNL d   1     -41.762-121.194 -52.876  0.00  0.00     0.007 A 
ATOM      6  C   UNL d   1     -41.710-121.711 -53.519  0.00  0.00     0.006 A 
ENDROOT
BRANCH   2   7
ATOM      7  N   UNL d   1     -41.128-122.495 -51.254  0.00  0.00    -0.208 NA
ATOM      8  C   UNL d   1     -41.407-123.228 -50.984  0.00  0.00     0.279 C 
ATOM      9  O   UNL d   1     -41.877-123.692 -51.481  0.00  0.00    -0.265 OA
BRANCH   8  10
ATOM     10  C   UNL d   1     -41.215-123.487 -50.230  0.00  0.00     0.065 C 
BRANCH  10  11
ATOM     11  C   UNL d   1     -41.807-123.786 -49.733  0.00  0.00     0.030 C 
BRANCH  11  12
ATOM     12  C   UNL d   1     -41.809-123.591 -48.935  0.00  0.00     0.100 A 
ATOM     13  O   UNL d   1     -42.378-123.815 -48.379  0.00  0.00    -0.307 OA
ATOM     14  C   UNL d   1     -42.159-123.500 -47.659  0.00  0.00     0.100 A 
ATOM     15  C   UNL d   1     -42.572-123.586 -46.949  0.00  0.00     0.027 C 
ATOM     16  C   UNL d   1     -41.461-123.081 -47.755  0.00  0.00     0.027 A 
ATOM     17  C   UNL d   1     -41.240-123.133 -48.535  0.00  0.00     0.027 A 
ENDBRANCH  11  12
ENDBRANCH  10  11
ENDBRANCH   8  10
ENDBRANCH   2   7
BRANCH   1  18
ATOM     18  C   UNL d   1     -41.616-120.949 -51.474  0.00  0.00     0.297 C 
ATOM     19  O   UNL d   1     -42.142-121.102 -50.865  0.00  0.00    -0.259 OA
BRANCH  18  20
ATOM     20  O   UNL d   1     -41.133-120.281 -51.439  0.00  0.00    -0.296 OA
ATOM     21  C   UNL d   1     -41.158-119.791 -50.772  0.00  0.00     0.185 C 
ENDBRANCH  18  20
ENDBRANCH   1  18
BRANCH   3  22
ATOM     22  C   UNL d   1     -41.412-123.006 -54.047  0.00  0.00     0.296 C 
ATOM     23  O   UNL d   1     -41.180-123.791 -53.935  0.00  0.00    -0.259 OA
BRANCH  22  24
ATOM     24  O   UNL d   1     -41.593-122.739 -54.807  0.00  0.00    -0.296 OA
ATOM     25  C   UNL d   1     -42.182-123.112 -55.249  0.00  0.00     0.185 C 
ENDBRANCH  22  24
ENDBRANCH   3  22
TORSDOF 8
ENDMDL
MODEL 2
REMARK VINA RESULT:      -0.1      0.981      4.592
REMARK  8 active torsions:
REMARK  status: ('A' for Active; 'I' for Inactive)
REMARK    1  A    between atoms: C_3  and  C_1 
REMARK    2  A    between atoms: N_4  and  C_2 
REMARK    3  A    between atoms: O_21  and  C_3 
REMARK       I    between atoms: C_11  and  N_4 
REMARK    4  A    between atoms: C_6  and  C_7 
REMARK    5  A    between atoms: O_22  and  C_6 
REMARK    6  A    between atoms: C_10  and  C_20 
REMARK    7  A    between atoms: C_19  and  C_11 
REMARK    8  A    between atoms: C_20  and  C_19 
ROOT
ATOM      1  C   UNL d   1     -41.495-121.543 -51.160  0.00  0.00     0.081 A 
ATOM      2  C   UNL d   1     -41.414-122.313 -51.444  0.00  0.00     0.090 A 
ATOM      3  C   UNL d   1     -41.912-122.833 -50.217  0.00  0.00     0.065 A 
ATOM      4  C   UNL d   1     -41.621-122.957 -50.978  0.00  0.00     0.025 A 
ATOM      5  C   UNL d   1     -41.786-121.419 -50.399  0.00  0.00     0.007 A 
ATOM      6  C   UNL d   1     -41.994-122.065 -49.927  0.00  0.00     0.006 A 
ENDROOT
BRANCH   2   7
ATOM      7  N   UNL d   1     -41.124-122.431 -52.204  0.00  0.00    -0.208 NA
ATOM      8  C   UNL d   1     -41.428-123.045 -52.672  0.00  0.00     0.279 C 
ATOM      9  O   UNL d   1     -42.023-123.532 -52.367  0.00  0.00    -0.265 OA
BRANCH   8  10
ATOM     10  C   UNL d   1     -41.140-123.165 -53.430  0.00  0.00     0.065 C 
BRANCH  10  11
ATOM     11  C   UNL d   1     -41.635-123.479 -54.016  0.00  0.00     0.030 C 
BRANCH  11  12
ATOM     12  C   UNL d   1     -41.858-123.016 -54.657  0.00  0.00     0.100 A 
ATOM     13  O   UNL d   1     -42.593-123.025 -55.034  0.00  0.00    -0.307 OA
ATOM     14  C   UNL d   1     -42.569-122.478 -55.639  0.00  0.00     0.100 A 
ATOM     15  C   UNL d   1     -43.186-122.306 -56.159  0.00  0.00     0.027 C 
ATOM     16  C   UNL d   1     -41.829-122.126 -55.647  0.00  0.00     0.027 A 
ATOM     17  C   UNL d   1     -41.387-122.451 -55.047  0.00  0.00     0.027 A 
ENDBRANCH  11  12
ENDBRANCH  10  11
ENDBRANCH   8  10
ENDBRANCH   2   7
BRANCH   1  18
ATOM     18  C   UNL d   1     -41.284-120.906 -51.637  0.00  0.00     0.297 C 
ATOM     19  O   UNL d   1     -41.223-120.997 -52.449  0.00  0.00    -0.259 OA
BRANCH  18  20
ATOM     20  O   UNL d   1     -41.134-120.170 -51.296  0.00  0.00    -0.296 OA
ATOM     21  C   UNL d   1     -41.124-119.491 -51.771  0.00  0.00     0.185 C 
ENDBRANCH  18  20
ENDBRANCH   1  18
BRANCH   3  22
ATOM     22  C   UNL d   1     -42.121-123.478 -49.744  0.00  0.00     0.296 C 
ATOM     23  O   UNL d   1     -42.870-123.817 -49.809  0.00  0.00    -0.259 OA
BRANCH  22  24
ATOM     24  O   UNL d   1     -41.578-123.787 -49.203  0.00  0.00    -0.296 OA
ATOM     25  C   UNL d   1     -41.718-123.722 -48.393  0.00  0.00     0.185 C 
ENDBRANCH  22  24
ENDBRANCH   3  22
TORSDOF 8
ENDMDL
MODEL 3
REMARK VINA RESULT:       0.3      1.376      4.801
REMARK  8 active torsions:
REMARK  status: ('A' for Active; 'I' for Inactive)
REMARK    1  A    between atoms: C_3  and  C_1 
REMARK    2  A    between atoms: N_4  and  C_2 
REMARK    3  A    between atoms: O_21  and  C_3 
REMARK       I    between atoms: C_11  and  N_4 
REMARK    4  A    between atoms: C_6  and  C_7 
REMARK    5  A    between atoms: O_22  and  C_6 
REMARK    6  A    between atoms: C_10  and  C_20 
REMARK    7  A    between atoms: C_19  and  C_11 
REMARK    8  A    between atoms: C_20  and  C_19 
ROOT
ATOM      1  C   UNL d   1     -43.105-122.311 -49.964  0.00  0.00     0.081 A 
ATOM      2  C   UNL d   1     -42.335-122.571 -50.099  0.00  0.00     0.090 A 
ATOM      3  C   UNL d   1     -42.240-123.030 -48.755  0.00  0.00     0.065 A 
ATOM      4  C   UNL d   1     -41.901-122.929 -49.500  0.00  0.00     0.025 A 
ATOM      5  C   UNL d   1     -43.444-122.412 -49.219  0.00  0.00     0.007 A 
ATOM      6  C   UNL d   1     -43.011-122.772 -48.614  0.00  0.00     0.006 A 
ENDROOT
BRANCH   2   7
ATOM      7  N   UNL d   1     -42.001-122.468 -50.843  0.00  0.00    -0.208 NA
ATOM      8  C   UNL d   1     -41.457-123.023 -51.132  0.00  0.00     0.279 C 
ATOM      9  O   UNL d   1     -41.255-123.675 -50.666  0.00  0.00    -0.265 OA
BRANCH   8  10
ATOM     10  C   UNL d   1     -41.123-122.922 -51.874  0.00  0.00     0.065 C 
BRANCH  10  11
ATOM     11  C   UNL d   1     -41.237-123.496 -52.461  0.00  0.00     0.030 C 
BRANCH  11  12
ATOM     12  C   UNL d   1     -41.270-123.275 -53.251  0.00  0.00     0.100 A 
ATOM     13  O   UNL d   1     -41.371-123.780 -53.896  0.00  0.00    -0.307 OA
ATOM     14  C   UNL d   1     -41.371-123.324 -54.572  0.00  0.00     0.100 A 
ATOM     15  C   UNL d   1     -41.457-123.605 -55.344  0.00  0.00     0.027 C 
ATOM     16  C   UNL d   1     -41.271-122.539 -54.361  0.00  0.00     0.027 A 
ATOM     17  C   UNL d   1     -41.209-122.501 -53.551  0.00  0.00     0.027 A 
ENDBRANCH  11  12
ENDBRANCH  10  11
ENDBRANCH   8  10
ENDBRANCH   2   7
BRANCH   1  18
ATOM     18  C   UNL d   1     -43.530-121.953 -50.572  0.00  0.00     0.297 C 
ATOM     19  O   UNL d   1     -43.242-121.278 -50.937  0.00  0.00    -0.259 OA
BRANCH  18  20
ATOM     20  O   UNL d   1     -44.250-122.274 -50.814  0.00  0.00    -0.296 OA
ATOM     21  C   UNL d   1     -44.895-121.775 -50.955  0.00  0.00     0.185 C 
ENDBRANCH  18  20
ENDBRANCH   1  18
BRANCH   3  22
ATOM     22  C   UNL d   1     -41.808-123.390 -48.150  0.00  0.00     0.296 C 
ATOM     23  O   UNL d   1     -41.123-123.817 -48.323  0.00  0.00    -0.259 OA
BRANCH  22  24
ATOM     24  O   UNL d   1     -42.060-123.324 -47.366  0.00  0.00    -0.296 OA
ATOM     25  C   UNL d   1     -41.549-123.028 -46.790  0.00  0.00     0.185 C 
ENDBRANCH  22  24
ENDBRANCH   3  22
TORSDOF 8
ENDMDL
