MODEL 1
REMARK VINA RESULT:      -2.6      0.000      0.000
REMARK  4 active torsions:
REMARK  status: ('A' for Active; 'I' for Inactive)
REMARK    1  A    between atoms: N_2  and  S_1 
REMARK    2  A    between atoms: C_7  and  S_1 
REMARK    3  A    between atoms: C_11  and  C_4 
REMARK    4  A    between atoms: C_18  and  C_11 
ROOT
ATOM      1  N   UNL d   1      31.212  16.724 -24.344  0.00  0.00    -0.202 N 
ATOM      2  C   UNL d   1      31.527  16.134 -24.821  0.00  0.00     0.218 A 
ATOM      3  C   UNL d   1      31.805  17.293 -24.211  0.00  0.00     0.135 A 
ATOM      4  N   UNL d   1      32.312  16.334 -24.984  0.00  0.00    -0.178 NA
ATOM      5  C   UNL d   1      32.473  17.047 -24.605  0.00  0.00     0.298 A 
ATOM      6  S   UNL d   1      31.135  15.453 -25.097  0.00  0.00    -0.037 SA
ATOM      7  O   UNL d   1      33.200  17.457 -24.619  0.00  0.00    -0.264 OA
ENDROOT
BRANCH   1   8
ATOM      8  S   UNL d   1      30.429  16.674 -24.090  0.00  0.00     0.273 S 
ATOM      9  O   UNL d   1      30.168  16.841 -24.862  0.00  0.00    -0.200 OA
ATOM     10  O   UNL d   1      30.689  16.509 -23.325  0.00  0.00    -0.200 OA
BRANCH   8  11
ATOM     11  C   UNL d   1      29.647  16.624 -23.835  0.00  0.00     0.104 A 
ATOM     12  C   UNL d   1      29.078  17.125 -24.154  0.00  0.00     0.012 A 
ATOM     13  C   UNL d   1      28.292  17.075 -23.898  0.00  0.00     0.001 A 
ATOM     14  C   UNL d   1      29.300  17.681 -24.735  0.00  0.00     0.001 C 
ATOM     15  C   UNL d   1      28.079  16.524 -23.325  0.00  0.00     0.000 A 
ATOM     16  C   UNL d   1      28.650  16.021 -23.004  0.00  0.00     0.001 A 
ATOM     17  C   UNL d   1      29.435  16.071 -23.260  0.00  0.00     0.013 A 
ATOM     18  C   UNL d   1      28.431  15.465 -22.424  0.00  0.00     0.000 C 
ENDBRANCH   8  11
ENDBRANCH   1   8
BRANCH   3  19
ATOM     19  C   UNL d   1      31.748  17.985 -23.765  0.00  0.00     0.023 C 
BRANCH  19  20
ATOM     20  C   UNL d   1      32.426  18.338 -23.458  0.00  0.00     0.002 C 
ATOM     21  C   UNL d   1      32.803  18.002 -22.811  0.00  0.00     0.000 C 
ATOM     22  C   UNL d   1      32.723  19.019 -23.797  0.00  0.00     0.000 C 
ENDBRANCH  19  20
ENDBRANCH   3  19
TORSDOF 4
ENDMDL
MODEL 2
REMARK VINA RESULT:      -2.3      1.003      3.606
REMARK  4 active torsions:
REMARK  status: ('A' for Active; 'I' for Inactive)
REMARK    1  A    between atoms: N_2  and  S_1 
REMARK    2  A    between atoms: C_7  and  S_1 
REMARK    3  A    between atoms: C_11  and  C_4 
REMARK    4  A    between atoms: C_18  and  C_11 
ROOT
ATOM      1  N   UNL d   1      31.063  16.634 -24.617  0.00  0.00    -0.202 N 
ATOM      2  C   UNL d   1      31.334  15.930 -24.942  0.00  0.00     0.218 A 
ATOM      3  C   UNL d   1      30.232  16.594 -24.570  0.00  0.00     0.135 A 
ATOM      4  N   UNL d   1      30.676  15.453 -25.097  0.00  0.00    -0.178 NA
ATOM      5  C   UNL d   1      30.005  15.870 -24.865  0.00  0.00     0.298 A 
ATOM      6  S   UNL d   1      32.127  15.722 -25.093  0.00  0.00    -0.037 SA
ATOM      7  O   UNL d   1      29.217  15.600 -24.920  0.00  0.00    -0.264 OA
ENDROOT
BRANCH   1   8
ATOM      8  S   UNL d   1      31.599  17.223 -24.404  0.00  0.00     0.273 S 
ATOM      9  O   UNL d   1      31.386  17.660 -25.079  0.00  0.00    -0.200 OA
ATOM     10  O   UNL d   1      31.810  16.789 -23.736  0.00  0.00    -0.200 OA
BRANCH   8  11
ATOM     11  C   UNL d   1      32.135  17.812 -24.192  0.00  0.00     0.104 A 
ATOM     12  C   UNL d   1      32.427  17.845 -23.423  0.00  0.00     0.012 A 
ATOM     13  C   UNL d   1      32.965  18.436 -23.209  0.00  0.00     0.001 A 
ATOM     14  C   UNL d   1      32.175  17.278 -22.864  0.00  0.00     0.001 C 
ATOM     15  C   UNL d   1      33.209  18.992 -23.765  0.00  0.00     0.000 A 
ATOM     16  C   UNL d   1      32.917  18.960 -24.536  0.00  0.00     0.001 A 
ATOM     17  C   UNL d   1      32.378  18.368 -24.750  0.00  0.00     0.013 A 
ATOM     18  C   UNL d   1      33.165  19.524 -25.097  0.00  0.00     0.000 C 
ENDBRANCH   8  11
ENDBRANCH   1   8
BRANCH   3  19
ATOM     19  C   UNL d   1      29.716  17.169 -24.282  0.00  0.00     0.023 C 
BRANCH  19  20
ATOM     20  C   UNL d   1      28.924  16.986 -24.150  0.00  0.00     0.002 C 
ATOM     21  C   UNL d   1      28.354  17.232 -24.687  0.00  0.00     0.000 C 
ATOM     22  C   UNL d   1      28.706  16.562 -23.486  0.00  0.00     0.000 C 
ENDBRANCH  19  20
ENDBRANCH   3  19
TORSDOF 4
ENDMDL
MODEL 3
REMARK VINA RESULT:      -1.5      0.749      1.302
REMARK  4 active torsions:
REMARK  status: ('A' for Active; 'I' for Inactive)
REMARK    1  A    between atoms: N_2  and  S_1 
REMARK    2  A    between atoms: C_7  and  S_1 
REMARK    3  A    between atoms: C_11  and  C_4 
REMARK    4  A    between atoms: C_18  and  C_11 
ROOT
ATOM      1  N   UNL d   1      31.629  16.745 -24.272  0.00  0.00    -0.202 N 
ATOM      2  C   UNL d   1      32.022  16.291 -24.832  0.00  0.00     0.218 A 
ATOM      3  C   UNL d   1      32.042  17.463 -24.186  0.00  0.00     0.135 A 
ATOM      4  N   UNL d   1      32.676  16.723 -25.094  0.00  0.00    -0.178 NA
ATOM      5  C   UNL d   1      32.679  17.441 -24.692  0.00  0.00     0.298 A 
ATOM      6  S   UNL d   1      31.810  15.530 -25.097  0.00  0.00    -0.037 SA
ATOM      7  O   UNL d   1      33.241  18.052 -24.782  0.00  0.00    -0.264 OA
ENDROOT
BRANCH   1   8
ATOM      8  S   UNL d   1      30.948  16.454 -23.910  0.00  0.00     0.273 S 
ATOM      9  O   UNL d   1      31.317  15.715 -23.810  0.00  0.00    -0.200 OA
ATOM     10  O   UNL d   1      30.582  17.185 -24.010  0.00  0.00    -0.200 OA
BRANCH   8  11
ATOM     11  C   UNL d   1      30.267  16.163 -23.548  0.00  0.00     0.104 A 
ATOM     12  C   UNL d   1      30.323  15.747 -22.841  0.00  0.00     0.012 A 
ATOM     13  C   UNL d   1      29.639  15.455 -22.477  0.00  0.00     0.001 A 
ATOM     14  C   UNL d   1      31.072  15.624 -22.495  0.00  0.00     0.001 C 
ATOM     15  C   UNL d   1      28.903  15.580 -22.822  0.00  0.00     0.000 A 
ATOM     16  C   UNL d   1      28.846  15.997 -23.532  0.00  0.00     0.001 A 
ATOM     17  C   UNL d   1      29.530  16.289 -23.896  0.00  0.00     0.013 A 
ATOM     18  C   UNL d   1      28.099  16.122 -23.880  0.00  0.00     0.000 C 
ENDBRANCH   8  11
ENDBRANCH   1   8
BRANCH   3  19
ATOM     19  C   UNL d   1      31.856  18.094 -23.688  0.00  0.00     0.023 C 
BRANCH  19  20
ATOM     20  C   UNL d   1      32.441  18.624 -23.454  0.00  0.00     0.002 C 
ATOM     21  C   UNL d   1      32.933  18.437 -22.824  0.00  0.00     0.000 C 
ATOM     22  C   UNL d   1      32.532  19.334 -23.848  0.00  0.00     0.000 C 
ENDBRANCH  19  20
ENDBRANCH   3  19
TORSDOF 4
ENDMDL
MODEL 4
REMARK VINA RESULT:      -0.6      1.121      1.603
REMARK  4 active torsions:
REMARK  status: ('A' for Active; 'I' for Inactive)
REMARK    1  A    between atoms: N_2  and  S_1 
REMARK    2  A    between atoms: C_7  and  S_1 
REMARK    3  A    between atoms: C_11  and  C_4 
REMARK    4  A    between atoms: C_18  and  C_11 
ROOT
ATOM      1  N   UNL d   1      30.764  17.178 -24.412  0.00  0.00    -0.202 N 
ATOM      2  C   UNL d   1      30.806  17.893 -24.814  0.00  0.00     0.218 A 
ATOM      3  C   UNL d   1      31.542  16.933 -24.240  0.00  0.00     0.135 A 
ATOM      4  N   UNL d   1      31.604  18.093 -24.892  0.00  0.00    -0.178 NA
ATOM      5  C   UNL d   1      32.047  17.498 -24.537  0.00  0.00     0.298 A 
ATOM      6  S   UNL d   1      30.165  18.344 -25.097  0.00  0.00    -0.037 SA
ATOM      7  O   UNL d   1      32.880  17.470 -24.485  0.00  0.00    -0.264 OA
ENDROOT
BRANCH   1   8
ATOM      8  S   UNL d   1      30.031  16.837 -24.251  0.00  0.00     0.273 S 
ATOM      9  O   UNL d   1      29.888  17.417 -23.672  0.00  0.00    -0.200 OA
ATOM     10  O   UNL d   1      30.173  16.263 -24.825  0.00  0.00    -0.200 OA
BRANCH   8  11
ATOM     11  C   UNL d   1      29.298  16.496 -24.091  0.00  0.00     0.104 A 
ATOM     12  C   UNL d   1      29.052  15.833 -24.510  0.00  0.00     0.012 A 
ATOM     13  C   UNL d   1      28.315  15.490 -24.348  0.00  0.00     0.001 A 
ATOM     14  C   UNL d   1      29.550  15.510 -25.097  0.00  0.00     0.001 C 
ATOM     15  C   UNL d   1      27.829  15.813 -23.769  0.00  0.00     0.000 A 
ATOM     16  C   UNL d   1      28.075  16.479 -23.348  0.00  0.00     0.001 A 
ATOM     17  C   UNL d   1      28.811  16.821 -23.509  0.00  0.00     0.013 A 
ATOM     18  C   UNL d   1      27.580  16.804 -22.761  0.00  0.00     0.000 C 
ENDBRANCH   8  11
ENDBRANCH   1   8
BRANCH   3  19
ATOM     19  C   UNL d   1      31.778  16.249 -23.843  0.00  0.00     0.023 C 
BRANCH  19  20
ATOM     20  C   UNL d   1      32.434  16.264 -23.346  0.00  0.00     0.002 C 
ATOM     21  C   UNL d   1      33.131  15.899 -23.580  0.00  0.00     0.000 C 
ATOM     22  C   UNL d   1      32.392  16.640 -22.622  0.00  0.00     0.000 C 
ENDBRANCH  19  20
ENDBRANCH   3  19
TORSDOF 4
ENDMDL
MODEL 5
REMARK VINA RESULT:      -0.5      1.216      3.647
REMARK  4 active torsions:
REMARK  status: ('A' for Active; 'I' for Inactive)
REMARK    1  A    between atoms: N_2  and  S_1 
REMARK    2  A    between atoms: C_7  and  S_1 
REMARK    3  A    between atoms: C_11  and  C_4 
REMARK    4  A    between atoms: C_18  and  C_11 
ROOT
ATOM      1  N   UNL d   1      30.031  16.787 -24.357  0.00  0.00    -0.202 N 
ATOM      2  C   UNL d   1      29.789  17.455 -24.769  0.00  0.00     0.218 A 
ATOM      3  C   UNL d   1      29.352  16.349 -24.154  0.00  0.00     0.135 A 
ATOM      4  N   UNL d   1      28.964  17.433 -24.823  0.00  0.00    -0.178 NA
ATOM      5  C   UNL d   1      28.706  16.751 -24.443  0.00  0.00     0.298 A 
ATOM      6  S   UNL d   1      30.278  18.053 -25.081  0.00  0.00    -0.037 SA
ATOM      7  O   UNL d   1      27.913  16.504 -24.362  0.00  0.00    -0.264 OA
ENDROOT
BRANCH   1   8
ATOM      8  S   UNL d   1      30.833  16.658 -24.215  0.00  0.00     0.273 S 
ATOM      9  O   UNL d   1      30.735  15.852 -24.399  0.00  0.00    -0.200 OA
ATOM     10  O   UNL d   1      30.929  17.456 -24.033  0.00  0.00    -0.200 OA
BRANCH   8  11
ATOM     11  C   UNL d   1      31.634  16.529 -24.074  0.00  0.00     0.104 A 
ATOM     12  C   UNL d   1      32.044  15.965 -24.511  0.00  0.00     0.012 A 
ATOM     13  C   UNL d   1      32.849  15.835 -24.369  0.00  0.00     0.001 A 
ATOM     14  C   UNL d   1      31.641  15.528 -25.096  0.00  0.00     0.001 C 
ATOM     15  C   UNL d   1      33.241  16.270 -23.791  0.00  0.00     0.000 A 
ATOM     16  C   UNL d   1      32.831  16.836 -23.351  0.00  0.00     0.001 A 
ATOM     17  C   UNL d   1      32.026  16.965 -23.493  0.00  0.00     0.013 A 
ATOM     18  C   UNL d   1      33.230  17.275 -22.766  0.00  0.00     0.000 C 
ENDBRANCH   8  11
ENDBRANCH   1   8
BRANCH   3  19
ATOM     19  C   UNL d   1      29.318  15.637 -23.738  0.00  0.00     0.023 C 
BRANCH  19  20
ATOM     20  C   UNL d   1      28.819  15.560 -23.088  0.00  0.00     0.002 C 
ATOM     21  C   UNL d   1      29.133  15.558 -22.330  0.00  0.00     0.000 C 
ATOM     22  C   UNL d   1      28.012  15.486 -23.197  0.00  0.00     0.000 C 
ENDBRANCH  19  20
ENDBRANCH   3  19
TORSDOF 4
ENDMDL
