MODEL 1
REMARK VINA RESULT:      38.8      0.000      0.000
REMARK  5 active torsions:
REMARK  status: ('A' for Active; 'I' for Inactive)
REMARK    1  A    between atoms: C_2  and  N_1 
REMARK    2  A    between atoms: C_5  and  C_18 
REMARK       I    between atoms: N_9  and  C_5 
REMARK    3  A    between atoms: O_15  and  C_7 
REMARK    4  A    between atoms: C_13  and  N_9 
REMARK    5  A    between atoms: C_18  and  O_15 
ROOT
ATOM      1  C   UNL d   1     -56.400 -99.384 -44.342  0.00  0.00     0.304 C 
ATOM      2  N   UNL d   1     -56.106-100.036 -44.755  0.00  0.00    -0.206 NA
ATOM      3  O   UNL d   1     -56.329 -99.350 -43.521  0.00  0.00    -0.263 OA
ENDROOT
BRANCH   1   4
ATOM      4  C   UNL d   1     -56.763 -98.767 -44.751  0.00  0.00     0.185 C 
BRANCH   4   5
ATOM      5  O   UNL d   1     -57.560 -98.820 -44.955  0.00  0.00    -0.298 OA
BRANCH   5   6
ATOM      6  C   UNL d   1     -58.138 -98.812 -44.366  0.00  0.00     0.122 A 
ATOM      7  C   UNL d   1     -58.944 -98.842 -44.578  0.00  0.00     0.149 A 
ATOM      8  C   UNL d   1     -59.522 -98.834 -43.989  0.00  0.00     0.026 A 
ATOM      9  C   UNL d   1     -59.293 -98.795 -43.188  0.00  0.00     0.002 A 
ATOM     10  C   UNL d   1     -58.495 -98.765 -42.983  0.00  0.00     0.002 A 
ATOM     11  C   UNL d   1     -57.918 -98.774 -43.572  0.00  0.00     0.026 A 
BRANCH   7  12
ATOM     12  N   UNL d   1     -59.159 -98.880 -45.366  0.00  0.00    -0.112 N 
ATOM     13  O   UNL d   1     -59.951 -98.792 -45.578  0.00  0.00    -0.532 OA
ATOM     14  O   UNL d   1     -58.588 -99.005 -45.948  0.00  0.00    -0.532 OA
ENDBRANCH   7  12
ENDBRANCH   5   6
ENDBRANCH   4   5
ENDBRANCH   1   4
BRANCH   2  15
ATOM     15  C   UNL d   1     -55.743-100.654 -44.345  0.00  0.00     0.087 A 
ATOM     16  C   UNL d   1     -55.801-100.694 -43.523  0.00  0.00     0.045 A 
ATOM     17  C   UNL d   1     -55.438-101.311 -43.114  0.00  0.00     0.121 A 
ATOM     18  O   UNL d   1     -55.402-101.492 -42.311  0.00  0.00    -0.299 OA
ATOM     19  C   UNL d   1     -55.016-101.888 -43.527  0.00  0.00     0.119 A 
ATOM     20  C   UNL d   1     -54.958-102.182 -42.221  0.00  0.00     0.304 A 
ATOM     21  O   UNL d   1     -54.719-102.426 -42.977  0.00  0.00    -0.300 OA
ATOM     22  C   UNL d   1     -54.960-101.844 -44.342  0.00  0.00     0.028 A 
ATOM     23  C   UNL d   1     -55.324-101.227 -44.751  0.00  0.00     0.021 A 
ENDBRANCH   2  15
TORSDOF 5
ENDMDL
