MODEL 1
REMARK VINA RESULT:      -8.0      0.000      0.000
REMARK  1 active torsions:
REMARK  status: ('A' for Active; 'I' for Inactive)
REMARK    1  A    between atoms: N_3  and  C_2 
ROOT
ATOM      1  N   UNL d   1     -48.560  13.167  23.167  0.00  0.00    -0.228 NA
ATOM      2  C   UNL d   1     -48.471  13.943  22.894  0.00  0.00     0.148 A 
ATOM      3  C   UNL d   1     -47.888  12.697  23.297  0.00  0.00     0.083 A 
ATOM      4  C   UNL d   1     -47.716  14.245  22.752  0.00  0.00     0.037 A 
ATOM      5  C   UNL d   1     -47.137  13.006  23.153  0.00  0.00     0.018 A 
ATOM      6  C   UNL d   1     -47.047  13.782  22.879  0.00  0.00     0.005 A 
ATOM      7  C   UNL d   1     -47.975  11.923  23.570  0.00  0.00     0.019 A 
ATOM      8  C   UNL d   1     -46.469  12.544  23.280  0.00  0.00     0.002 A 
ATOM      9  C   UNL d   1     -47.306  11.459  23.698  0.00  0.00     0.002 A 
ATOM     10  C   UNL d   1     -46.551  11.770  23.553  0.00  0.00     0.000 A 
ENDROOT
BRANCH   2  11
ATOM     11  N   UNL d   1     -49.140  14.410  22.765  0.00  0.00    -0.286 N 
ATOM     12  C   UNL d   1     -49.656  14.228  22.147  0.00  0.00     0.102 A 
ATOM     13  C   UNL d   1     -50.322  14.692  22.020  0.00  0.00     0.118 A 
ATOM     14  N   UNL d   1     -50.474  15.338  22.508  0.00  0.00    -0.239 NA
ATOM     15  C   UNL d   1     -49.958  15.520  23.125  0.00  0.00     0.118 A 
ATOM     16  C   UNL d   1     -49.288  15.054  23.254  0.00  0.00     0.102 A 
ENDBRANCH   2  11
TORSDOF 1
ENDMDL
