MODEL 1
REMARK VINA RESULT:      65.6      0.000      0.000
REMARK  3 active torsions:
REMARK  status: ('A' for Active; 'I' for Inactive)
REMARK    1  A    between atoms: N_9  and  C_3 
REMARK    2  A    between atoms: C_14  and  C_5 
REMARK       I    between atoms: C_10  and  N_11 
REMARK    3  A    between atoms: C_13  and  C_10 
ROOT
ATOM      1  N   UNL d   1      46.006 -18.101  40.737  0.00  0.00    -0.196 N 
ATOM      2  C   UNL d   1      46.202 -18.709  41.252  0.00  0.00     0.167 A 
ATOM      3  C   UNL d   1      46.021 -18.226  39.921  0.00  0.00     0.152 A 
ATOM      4  N   UNL d   1      45.821 -17.439  41.183  0.00  0.00    -0.163 NA
ATOM      5  C   UNL d   1      46.139 -18.425  42.019  0.00  0.00     0.055 A 
ATOM      6  C   UNL d   1      45.906 -17.648  41.975  0.00  0.00     0.104 A 
ATOM      7  N   UNL d   1      46.416 -19.451  40.959  0.00  0.00    -0.227 NA
ATOM      8  C   UNL d   1      46.235 -18.972  39.621  0.00  0.00     0.057 A 
ATOM      9  C   UNL d   1      46.431 -19.580  40.136  0.00  0.00     0.086 A 
ATOM     10  C   UNL d   1      45.777 -17.154  42.629  0.00  0.00     0.023 C 
ATOM     11  C   UNL d   1      46.646 -20.330  39.826  0.00  0.00     0.021 C 
ENDROOT
BRANCH   3  12
ATOM     12  N   UNL d   1      45.824 -17.617  39.406  0.00  0.00    -0.286 N 
ATOM     13  C   UNL d   1      45.074 -17.585  39.059  0.00  0.00     0.101 A 
ATOM     14  C   UNL d   1      44.882 -16.976  38.545  0.00  0.00     0.102 A 
ATOM     15  N   UNL d   1      45.442 -16.387  38.371  0.00  0.00    -0.267 N 
ATOM     16  C   UNL d   1      45.254 -15.764  37.849  0.00  0.00     0.288 C 
ATOM     17  C   UNL d   1      46.183 -16.419  38.713  0.00  0.00     0.102 A 
ATOM     18  O   UNL d   1      45.797 -15.178  37.669  0.00  0.00    -0.264 OA
ATOM     19  C   UNL d   1      46.377 -17.036  39.234  0.00  0.00     0.101 A 
BRANCH  16  20
ATOM     20  C   UNL d   1      44.497 -15.738  37.503  0.00  0.00     0.156 A 
ATOM     21  O   UNL d   1      43.767 -15.511  37.797  0.00  0.00    -0.300 OA
ATOM     22  C   UNL d   1      43.217 -15.607  37.192  0.00  0.00     0.123 A 
ATOM     23  C   UNL d   1      43.594 -15.886  36.537  0.00  0.00     0.029 A 
ATOM     24  C   UNL d   1      44.401 -15.972  36.723  0.00  0.00     0.032 A 
ENDBRANCH  16  20
ENDBRANCH   3  12
BRANCH   5  25
ATOM     25  C   UNL d   1      46.265 -18.778  42.753  0.00  0.00     0.004 A 
ATOM     26  C   UNL d   1      46.185 -19.604  42.833  0.00  0.00     0.001 A 
ATOM     27  C   UNL d   1      46.311 -19.958  43.567  0.00  0.00     0.011 A 
ATOM     28  C   UNL d   1      46.515 -19.499  44.221  0.00  0.00     0.058 A 
ATOM     29  C   UNL d   1      46.596 -18.676  44.144  0.00  0.00     0.011 A 
ATOM     30 CL   UNL d   1      46.641 -19.858  44.954  0.00  0.00    -0.082 Cl
ATOM     31  C   UNL d   1      46.470 -18.322  43.410  0.00  0.00     0.001 A 
ENDBRANCH   5  25
TORSDOF 3
ENDMDL
