MODEL 1
REMARK VINA RESULT:      -6.5      0.000      0.000
REMARK  6 active torsions:
REMARK  status: ('A' for Active; 'I' for Inactive)
REMARK    1  A    between atoms: C_3  and  C_2 
REMARK    2  A    between atoms: O_5  and  C_3 
REMARK    3  A    between atoms: C_9  and  O_5 
REMARK    4  A    between atoms: C_6  and  C_9 
REMARK    5  A    between atoms: C_7  and  C_6 
REMARK    6  A    between atoms: O_19  and  C_16 
ROOT
ATOM      1  C   UNL d   1     -48.293  13.274  22.345  0.00  0.00     0.318 C 
ATOM      2  O   UNL d   1     -48.282  12.915  21.602  0.00  0.00    -0.257 OA
ENDROOT
BRANCH   1   3
ATOM      3  C   UNL d   1     -48.986  13.620  22.631  0.00  0.00     0.145 A 
ATOM      4  N   UNL d   1     -48.989  14.429  22.839  0.00  0.00    -0.240 NA
ATOM      5  C   UNL d   1     -49.678  14.779  23.125  0.00  0.00     0.082 A 
ATOM      6  C   UNL d   1     -50.376  14.323  23.208  0.00  0.00     0.018 A 
ATOM      7  C   UNL d   1     -49.683  15.573  23.330  0.00  0.00     0.019 A 
ATOM      8  C   UNL d   1     -50.374  13.516  23.001  0.00  0.00     0.003 A 
ATOM      9  C   UNL d   1     -51.064  14.671  23.494  0.00  0.00     0.002 A 
ATOM     10  C   UNL d   1     -49.680  13.166  22.713  0.00  0.00     0.025 A 
ATOM     11  C   UNL d   1     -51.059  15.473  23.698  0.00  0.00     0.000 A 
ATOM     12  C   UNL d   1     -50.373  15.922  23.617  0.00  0.00     0.002 A 
ENDBRANCH   1   3
BRANCH   1  13
ATOM     13  O   UNL d   1     -47.603  13.286  22.806  0.00  0.00    -0.266 OA
BRANCH  13  14
ATOM     14  C   UNL d   1     -46.892  13.011  22.495  0.00  0.00     0.168 C 
BRANCH  14  15
ATOM     15  C   UNL d   1     -46.191  13.094  22.918  0.00  0.00     0.220 C 
ATOM     16  O   UNL d   1     -46.217  13.369  23.696  0.00  0.00    -0.284 OA
BRANCH  15  17
ATOM     17  C   UNL d   1     -45.468  12.903  22.567  0.00  0.00     0.041 A 
ATOM     18  C   UNL d   1     -45.108  12.183  22.747  0.00  0.00     0.005 A 
ATOM     19  C   UNL d   1     -44.387  11.997  22.395  0.00  0.00     0.024 A 
ATOM     20  C   UNL d   1     -44.031  12.528  21.867  0.00  0.00     0.094 A 
ATOM     21  C   UNL d   1     -44.401  13.245  21.695  0.00  0.00     0.024 A 
ATOM     22  C   UNL d   1     -45.122  13.433  22.046  0.00  0.00     0.005 A 
BRANCH  20  23
ATOM     23  O   UNL d   1     -43.316  12.340  21.520  0.00  0.00    -0.328 OA
ATOM     24  C   UNL d   1     -42.736  12.925  21.425  0.00  0.00     0.181 C 
ENDBRANCH  20  23
ENDBRANCH  15  17
ENDBRANCH  14  15
ENDBRANCH  13  14
ENDBRANCH   1  13
TORSDOF 6
ENDMDL
MODEL 2
REMARK VINA RESULT:      -6.3      1.297      1.595
REMARK  6 active torsions:
REMARK  status: ('A' for Active; 'I' for Inactive)
REMARK    1  A    between atoms: C_3  and  C_2 
REMARK    2  A    between atoms: O_5  and  C_3 
REMARK    3  A    between atoms: C_9  and  O_5 
REMARK    4  A    between atoms: C_6  and  C_9 
REMARK    5  A    between atoms: C_7  and  C_6 
REMARK    6  A    between atoms: O_19  and  C_16 
ROOT
ATOM      1  C   UNL d   1     -48.263  13.065  22.252  0.00  0.00     0.318 C 
ATOM      2  O   UNL d   1     -48.163  12.709  21.514  0.00  0.00    -0.257 OA
ENDROOT
BRANCH   1   3
ATOM      3  C   UNL d   1     -48.963  13.465  22.431  0.00  0.00     0.145 A 
ATOM      4  N   UNL d   1     -48.929  14.212  22.803  0.00  0.00    -0.240 NA
ATOM      5  C   UNL d   1     -49.625  14.615  22.984  0.00  0.00     0.082 A 
ATOM      6  C   UNL d   1     -50.367  14.276  22.794  0.00  0.00     0.018 A 
ATOM      7  C   UNL d   1     -49.593  15.349  23.350  0.00  0.00     0.019 A 
ATOM      8  C   UNL d   1     -50.402  13.531  22.422  0.00  0.00     0.003 A 
ATOM      9  C   UNL d   1     -51.062  14.677  22.974  0.00  0.00     0.002 A 
ATOM     10  C   UNL d   1     -49.701  13.127  22.242  0.00  0.00     0.025 A 
ATOM     11  C   UNL d   1     -51.019  15.417  23.343  0.00  0.00     0.000 A 
ATOM     12  C   UNL d   1     -50.289  15.751  23.530  0.00  0.00     0.002 A 
ENDBRANCH   1   3
BRANCH   1  13
ATOM     13  O   UNL d   1     -47.656  13.019  22.817  0.00  0.00    -0.266 OA
BRANCH  13  14
ATOM     14  C   UNL d   1     -47.049  12.470  22.730  0.00  0.00     0.168 C 
BRANCH  14  15
ATOM     15  C   UNL d   1     -46.396  12.487  23.228  0.00  0.00     0.220 C 
ATOM     16  O   UNL d   1     -46.201  13.188  23.618  0.00  0.00    -0.284 OA
BRANCH  15  17
ATOM     17  C   UNL d   1     -45.938  11.808  23.338  0.00  0.00     0.041 A 
ATOM     18  C   UNL d   1     -46.302  11.110  23.584  0.00  0.00     0.005 A 
ATOM     19  C   UNL d   1     -45.843  10.435  23.692  0.00  0.00     0.024 A 
ATOM     20  C   UNL d   1     -45.025  10.461  23.555  0.00  0.00     0.094 A 
ATOM     21  C   UNL d   1     -44.672  11.165  23.310  0.00  0.00     0.024 A 
ATOM     22  C   UNL d   1     -45.131  11.840  23.201  0.00  0.00     0.005 A 
BRANCH  20  23
ATOM     23  O   UNL d   1     -44.572   9.790  23.664  0.00  0.00    -0.328 OA
ATOM     24  C   UNL d   1     -43.746   9.833  23.600  0.00  0.00     0.181 C 
ENDBRANCH  20  23
ENDBRANCH  15  17
ENDBRANCH  14  15
ENDBRANCH  13  14
ENDBRANCH   1  13
TORSDOF 6
ENDMDL
MODEL 3
REMARK VINA RESULT:      -6.2      1.532      1.692
REMARK  6 active torsions:
REMARK  status: ('A' for Active; 'I' for Inactive)
REMARK    1  A    between atoms: C_3  and  C_2 
REMARK    2  A    between atoms: O_5  and  C_3 
REMARK    3  A    between atoms: C_9  and  O_5 
REMARK    4  A    between atoms: C_6  and  C_9 
REMARK    5  A    between atoms: C_7  and  C_6 
REMARK    6  A    between atoms: O_19  and  C_16 
ROOT
ATOM      1  C   UNL d   1     -47.783  11.671  23.029  0.00  0.00     0.318 C 
ATOM      2  O   UNL d   1     -47.636  10.875  22.873  0.00  0.00    -0.257 OA
ENDROOT
BRANCH   1   3
ATOM      3  C   UNL d   1     -48.547  11.976  22.959  0.00  0.00     0.145 A 
ATOM      4  N   UNL d   1     -48.779  12.354  22.250  0.00  0.00    -0.240 NA
ATOM      5  C   UNL d   1     -49.540  12.660  22.175  0.00  0.00     0.082 A 
ATOM      6  C   UNL d   1     -50.083  12.592  22.809  0.00  0.00     0.018 A 
ATOM      7  C   UNL d   1     -49.768  13.031  21.480  0.00  0.00     0.019 A 
ATOM      8  C   UNL d   1     -49.854  12.215  23.516  0.00  0.00     0.003 A 
ATOM      9  C   UNL d   1     -50.843  12.897  22.735  0.00  0.00     0.002 A 
ATOM     10  C   UNL d   1     -49.087  11.908  23.589  0.00  0.00     0.025 A 
ATOM     11  C   UNL d   1     -51.064  13.270  22.029  0.00  0.00     0.000 A 
ATOM     12  C   UNL d   1     -50.530  13.337  21.405  0.00  0.00     0.002 A 
ENDBRANCH   1   3
BRANCH   1  13
ATOM     13  O   UNL d   1     -47.159  12.168  23.258  0.00  0.00    -0.266 OA
BRANCH  13  14
ATOM     14  C   UNL d   1     -46.400  12.044  22.963  0.00  0.00     0.168 C 
BRANCH  14  15
ATOM     15  C   UNL d   1     -45.814  12.612  23.065  0.00  0.00     0.220 C 
ATOM     16  O   UNL d   1     -45.918  13.204  23.630  0.00  0.00    -0.284 OA
BRANCH  15  17
ATOM     17  C   UNL d   1     -45.128  12.588  22.606  0.00  0.00     0.041 A 
ATOM     18  C   UNL d   1     -44.555  12.016  22.763  0.00  0.00     0.005 A 
ATOM     19  C   UNL d   1     -43.872  11.996  22.303  0.00  0.00     0.024 A 
ATOM     20  C   UNL d   1     -43.765  12.546  21.691  0.00  0.00     0.094 A 
ATOM     21  C   UNL d   1     -44.345  13.113  21.544  0.00  0.00     0.024 A 
ATOM     22  C   UNL d   1     -45.028  13.134  22.003  0.00  0.00     0.005 A 
BRANCH  20  23
ATOM     23  O   UNL d   1     -43.087  12.523  21.237  0.00  0.00    -0.328 OA
ATOM     24  C   UNL d   1     -42.643  13.214  21.121  0.00  0.00     0.181 C 
ENDBRANCH  20  23
ENDBRANCH  15  17
ENDBRANCH  14  15
ENDBRANCH  13  14
ENDBRANCH   1  13
TORSDOF 6
ENDMDL
MODEL 4
REMARK VINA RESULT:      -6.1      7.984      9.726
REMARK  6 active torsions:
REMARK  status: ('A' for Active; 'I' for Inactive)
REMARK    1  A    between atoms: C_3  and  C_2 
REMARK    2  A    between atoms: O_5  and  C_3 
REMARK    3  A    between atoms: C_9  and  O_5 
REMARK    4  A    between atoms: C_6  and  C_9 
REMARK    5  A    between atoms: C_7  and  C_6 
REMARK    6  A    between atoms: O_19  and  C_16 
ROOT
ATOM      1  C   UNL d   1     -40.593  14.321  18.477  0.00  0.00     0.318 C 
ATOM      2  O   UNL d   1     -41.114  13.687  18.559  0.00  0.00    -0.257 OA
ENDROOT
BRANCH   1   3
ATOM      3  C   UNL d   1     -40.095  14.369  17.821  0.00  0.00     0.145 A 
ATOM      4  N   UNL d   1     -39.511  13.784  17.699  0.00  0.00    -0.240 NA
ATOM      5  C   UNL d   1     -39.012  13.828  17.045  0.00  0.00     0.082 A 
ATOM      6  C   UNL d   1     -39.090  14.461  16.501  0.00  0.00     0.018 A 
ATOM      7  C   UNL d   1     -38.438  13.254  16.924  0.00  0.00     0.019 A 
ATOM      8  C   UNL d   1     -39.671  15.045  16.621  0.00  0.00     0.003 A 
ATOM      9  C   UNL d   1     -38.592  14.506  15.848  0.00  0.00     0.002 A 
ATOM     10  C   UNL d   1     -40.172  14.998  17.280  0.00  0.00     0.025 A 
ATOM     11  C   UNL d   1     -38.016  13.922  15.735  0.00  0.00     0.000 A 
ATOM     12  C   UNL d   1     -37.940  13.300  16.270  0.00  0.00     0.002 A 
ENDBRANCH   1   3
BRANCH   1  13
ATOM     13  O   UNL d   1     -40.569  14.912  19.060  0.00  0.00    -0.266 OA
BRANCH  13  14
ATOM     14  C   UNL d   1     -40.560  14.709  19.858  0.00  0.00     0.168 C 
BRANCH  14  15
ATOM     15  C   UNL d   1     -40.582  15.291  20.438  0.00  0.00     0.220 C 
ATOM     16  O   UNL d   1     -41.135  15.901  20.379  0.00  0.00    -0.284 OA
BRANCH  15  17
ATOM     17  C   UNL d   1     -40.055  15.265  21.073  0.00  0.00     0.041 A 
ATOM     18  C   UNL d   1     -40.010  14.583  21.535  0.00  0.00     0.005 A 
ATOM     19  C   UNL d   1     -39.484  14.561  22.167  0.00  0.00     0.024 A 
ATOM     20  C   UNL d   1     -39.006  15.218  22.336  0.00  0.00     0.094 A 
ATOM     21  C   UNL d   1     -39.060  15.895  21.867  0.00  0.00     0.024 A 
ATOM     22  C   UNL d   1     -39.586  15.918  21.234  0.00  0.00     0.005 A 
BRANCH  20  23
ATOM     23  O   UNL d   1     -38.485  15.193  22.964  0.00  0.00    -0.328 OA
ATOM     24  C   UNL d   1     -38.659  15.604  23.663  0.00  0.00     0.181 C 
ENDBRANCH  20  23
ENDBRANCH  15  17
ENDBRANCH  14  15
ENDBRANCH  13  14
ENDBRANCH   1  13
TORSDOF 6
ENDMDL
MODEL 5
REMARK VINA RESULT:      -6.0      8.025      9.276
REMARK  6 active torsions:
REMARK  status: ('A' for Active; 'I' for Inactive)
REMARK    1  A    between atoms: C_3  and  C_2 
REMARK    2  A    between atoms: O_5  and  C_3 
REMARK    3  A    between atoms: C_9  and  O_5 
REMARK    4  A    between atoms: C_6  and  C_9 
REMARK    5  A    between atoms: C_7  and  C_6 
REMARK    6  A    between atoms: O_19  and  C_16 
ROOT
ATOM      1  C   UNL d   1     -40.524  15.219  20.185  0.00  0.00     0.318 C 
ATOM      2  O   UNL d   1     -41.072  15.828  20.088  0.00  0.00    -0.257 OA
ENDROOT
BRANCH   1   3
ATOM      3  C   UNL d   1     -40.066  15.174  20.870  0.00  0.00     0.145 A 
ATOM      4  N   UNL d   1     -39.903  14.428  21.211  0.00  0.00    -0.240 NA
ATOM      5  C   UNL d   1     -39.446  14.379  21.895  0.00  0.00     0.082 A 
ATOM      6  C   UNL d   1     -39.144  15.076  22.249  0.00  0.00     0.018 A 
ATOM      7  C   UNL d   1     -39.285  13.648  22.231  0.00  0.00     0.019 A 
ATOM      8  C   UNL d   1     -39.306  15.820  21.910  0.00  0.00     0.003 A 
ATOM      9  C   UNL d   1     -38.688  15.027  22.932  0.00  0.00     0.002 A 
ATOM     10  C   UNL d   1     -39.767  15.867  21.222  0.00  0.00     0.025 A 
ATOM     11  C   UNL d   1     -38.531  14.285  23.263  0.00  0.00     0.000 A 
ATOM     12  C   UNL d   1     -38.827  13.600  22.915  0.00  0.00     0.002 A 
ENDBRANCH   1   3
BRANCH   1  13
ATOM     13  O   UNL d   1     -40.435  14.647  19.589  0.00  0.00    -0.266 OA
BRANCH  13  14
ATOM     14  C   UNL d   1     -40.408  14.874  18.798  0.00  0.00     0.168 C 
BRANCH  14  15
ATOM     15  C   UNL d   1     -40.411  14.308  18.201  0.00  0.00     0.220 C 
ATOM     16  O   UNL d   1     -40.988  13.719  18.205  0.00  0.00    -0.284 OA
BRANCH  15  17
ATOM     17  C   UNL d   1     -39.842  14.331  17.603  0.00  0.00     0.041 A 
ATOM     18  C   UNL d   1     -39.857  14.946  17.052  0.00  0.00     0.005 A 
ATOM     19  C   UNL d   1     -39.288  14.965  16.457  0.00  0.00     0.024 A 
ATOM     20  C   UNL d   1     -38.709  14.373  16.415  0.00  0.00     0.094 A 
ATOM     21  C   UNL d   1     -38.704  13.764  16.971  0.00  0.00     0.024 A 
ATOM     22  C   UNL d   1     -39.272  13.743  17.567  0.00  0.00     0.005 A 
BRANCH  20  23
ATOM     23  O   UNL d   1     -38.146  14.395  15.824  0.00  0.00    -0.328 OA
ATOM     24  C   UNL d   1     -38.071  13.757  15.299  0.00  0.00     0.181 C 
ENDBRANCH  20  23
ENDBRANCH  15  17
ENDBRANCH  14  15
ENDBRANCH  13  14
ENDBRANCH   1  13
TORSDOF 6
ENDMDL
MODEL 6
REMARK VINA RESULT:      -5.3      1.517      1.868
REMARK  6 active torsions:
REMARK  status: ('A' for Active; 'I' for Inactive)
REMARK    1  A    between atoms: C_3  and  C_2 
REMARK    2  A    between atoms: O_5  and  C_3 
REMARK    3  A    between atoms: C_9  and  O_5 
REMARK    4  A    between atoms: C_6  and  C_9 
REMARK    5  A    between atoms: C_7  and  C_6 
REMARK    6  A    between atoms: O_19  and  C_16 
ROOT
ATOM      1  C   UNL d   1     -48.498  11.997  22.983  0.00  0.00     0.318 C 
ATOM      2  O   UNL d   1     -48.579  11.204  22.773  0.00  0.00    -0.257 OA
ENDROOT
BRANCH   1   3
ATOM      3  C   UNL d   1     -49.138  12.514  22.916  0.00  0.00     0.145 A 
ATOM      4  N   UNL d   1     -49.151  13.082  22.302  0.00  0.00    -0.240 NA
ATOM      5  C   UNL d   1     -49.788  13.599  22.232  0.00  0.00     0.082 A 
ATOM      6  C   UNL d   1     -50.424  13.557  22.776  0.00  0.00     0.018 A 
ATOM      7  C   UNL d   1     -49.801  14.157  21.630  0.00  0.00     0.019 A 
ATOM      8  C   UNL d   1     -50.413  12.992  23.388  0.00  0.00     0.003 A 
ATOM      9  C   UNL d   1     -51.060  14.074  22.706  0.00  0.00     0.002 A 
ATOM     10  C   UNL d   1     -49.770  12.472  23.457  0.00  0.00     0.025 A 
ATOM     11  C   UNL d   1     -51.064  14.633  22.095  0.00  0.00     0.000 A 
ATOM     12  C   UNL d   1     -50.439  14.674  21.561  0.00  0.00     0.002 A 
ENDBRANCH   1   3
BRANCH   1  13
ATOM     13  O   UNL d   1     -47.768  12.277  23.262  0.00  0.00    -0.266 OA
BRANCH  13  14
ATOM     14  C   UNL d   1     -47.067  11.915  23.026  0.00  0.00     0.168 C 
BRANCH  14  15
ATOM     15  C   UNL d   1     -46.344  12.173  23.320  0.00  0.00     0.220 C 
ATOM     16  O   UNL d   1     -46.275  12.942  23.611  0.00  0.00    -0.284 OA
BRANCH  15  17
ATOM     17  C   UNL d   1     -45.691  11.666  23.323  0.00  0.00     0.041 A 
ATOM     18  C   UNL d   1     -45.749  10.933  23.697  0.00  0.00     0.005 A 
ATOM     19  C   UNL d   1     -45.097  10.431  23.698  0.00  0.00     0.024 A 
ATOM     20  C   UNL d   1     -44.392  10.662  23.327  0.00  0.00     0.094 A 
ATOM     21  C   UNL d   1     -44.346  11.398  22.956  0.00  0.00     0.024 A 
ATOM     22  C   UNL d   1     -44.998  11.900  22.954  0.00  0.00     0.005 A 
BRANCH  20  23
ATOM     23  O   UNL d   1     -43.747  10.161  23.330  0.00  0.00    -0.328 OA
ATOM     24  C   UNL d   1     -43.808   9.410  23.675  0.00  0.00     0.181 C 
ENDBRANCH  20  23
ENDBRANCH  15  17
ENDBRANCH  14  15
ENDBRANCH  13  14
ENDBRANCH   1  13
TORSDOF 6
ENDMDL
MODEL 7
REMARK VINA RESULT:      -4.6      2.175      3.231
REMARK  6 active torsions:
REMARK  status: ('A' for Active; 'I' for Inactive)
REMARK    1  A    between atoms: C_3  and  C_2 
REMARK    2  A    between atoms: O_5  and  C_3 
REMARK    3  A    between atoms: C_9  and  O_5 
REMARK    4  A    between atoms: C_6  and  C_9 
REMARK    5  A    between atoms: C_7  and  C_6 
REMARK    6  A    between atoms: O_19  and  C_16 
ROOT
ATOM      1  C   UNL d   1     -45.550  13.270  22.420  0.00  0.00     0.318 C 
ATOM      2  O   UNL d   1     -45.460  14.089  22.448  0.00  0.00    -0.257 OA
ENDROOT
BRANCH   1   3
ATOM      3  C   UNL d   1     -46.278  12.924  22.596  0.00  0.00     0.145 A 
ATOM      4  N   UNL d   1     -46.913  12.997  22.057  0.00  0.00    -0.240 NA
ATOM      5  C   UNL d   1     -47.642  12.654  22.229  0.00  0.00     0.082 A 
ATOM      6  C   UNL d   1     -47.748  12.230  22.944  0.00  0.00     0.018 A 
ATOM      7  C   UNL d   1     -48.266  12.725  21.700  0.00  0.00     0.019 A 
ATOM      8  C   UNL d   1     -47.116  12.156  23.482  0.00  0.00     0.003 A 
ATOM      9  C   UNL d   1     -48.475  11.887  23.116  0.00  0.00     0.002 A 
ATOM     10  C   UNL d   1     -46.383  12.503  23.308  0.00  0.00     0.025 A 
ATOM     11  C   UNL d   1     -49.099  11.964  22.576  0.00  0.00     0.000 A 
ATOM     12  C   UNL d   1     -48.994  12.381  21.873  0.00  0.00     0.002 A 
ENDBRANCH   1   3
BRANCH   1  13
ATOM     13  O   UNL d   1     -44.904  12.791  22.214  0.00  0.00    -0.266 OA
BRANCH  13  14
ATOM     14  C   UNL d   1     -44.259  13.114  21.817  0.00  0.00     0.168 C 
BRANCH  14  15
ATOM     15  C   UNL d   1     -43.557  12.691  21.746  0.00  0.00     0.220 C 
ATOM     16  O   UNL d   1     -43.526  11.910  22.009  0.00  0.00    -0.284 OA
BRANCH  15  17
ATOM     17  C   UNL d   1     -42.889  13.046  21.414  0.00  0.00     0.041 A 
ATOM     18  C   UNL d   1     -42.915  13.306  20.631  0.00  0.00     0.005 A 
ATOM     19  C   UNL d   1     -42.247  13.659  20.304  0.00  0.00     0.024 A 
ATOM     20  C   UNL d   1     -41.559  13.751  20.758  0.00  0.00     0.094 A 
ATOM     21  C   UNL d   1     -41.545  13.488  21.539  0.00  0.00     0.024 A 
ATOM     22  C   UNL d   1     -42.212  13.134  21.868  0.00  0.00     0.005 A 
BRANCH  20  23
ATOM     23  O   UNL d   1     -40.899  14.102  20.430  0.00  0.00    -0.328 OA
ATOM     24  C   UNL d   1     -40.811  14.927  20.458  0.00  0.00     0.181 C 
ENDBRANCH  20  23
ENDBRANCH  15  17
ENDBRANCH  14  15
ENDBRANCH  13  14
ENDBRANCH   1  13
TORSDOF 6
ENDMDL
MODEL 8
REMARK VINA RESULT:      -4.5      2.882      4.631
REMARK  6 active torsions:
REMARK  status: ('A' for Active; 'I' for Inactive)
REMARK    1  A    between atoms: C_3  and  C_2 
REMARK    2  A    between atoms: O_5  and  C_3 
REMARK    3  A    between atoms: C_9  and  O_5 
REMARK    4  A    between atoms: C_6  and  C_9 
REMARK    5  A    between atoms: C_7  and  C_6 
REMARK    6  A    between atoms: O_19  and  C_16 
ROOT
ATOM      1  C   UNL d   1     -43.812  12.446  21.989  0.00  0.00     0.318 C 
ATOM      2  O   UNL d   1     -43.415  11.806  22.327  0.00  0.00    -0.257 OA
ENDROOT
BRANCH   1   3
ATOM      3  C   UNL d   1     -44.584  12.625  22.217  0.00  0.00     0.145 A 
ATOM      4  N   UNL d   1     -44.995  12.110  22.733  0.00  0.00    -0.240 NA
ATOM      5  C   UNL d   1     -45.766  12.284  22.962  0.00  0.00     0.082 A 
ATOM      6  C   UNL d   1     -46.141  12.978  22.680  0.00  0.00     0.018 A 
ATOM      7  C   UNL d   1     -46.170  11.780  23.468  0.00  0.00     0.019 A 
ATOM      8  C   UNL d   1     -45.734  13.492  22.166  0.00  0.00     0.003 A 
ATOM      9  C   UNL d   1     -46.911  13.153  22.909  0.00  0.00     0.002 A 
ATOM     10  C   UNL d   1     -44.957  13.315  21.936  0.00  0.00     0.025 A 
ATOM     11  C   UNL d   1     -47.310  12.637  23.420  0.00  0.00     0.000 A 
ATOM     12  C   UNL d   1     -46.941  11.955  23.698  0.00  0.00     0.002 A 
ENDBRANCH   1   3
BRANCH   1  13
ATOM     13  O   UNL d   1     -43.430  12.912  21.418  0.00  0.00    -0.266 OA
BRANCH  13  14
ATOM     14  C   UNL d   1     -42.619  13.044  21.465  0.00  0.00     0.168 C 
BRANCH  14  15
ATOM     15  C   UNL d   1     -42.208  13.353  20.824  0.00  0.00     0.220 C 
ATOM     16  O   UNL d   1     -42.402  13.106  20.061  0.00  0.00    -0.284 OA
BRANCH  15  17
ATOM     17  C   UNL d   1     -41.605  13.906  20.942  0.00  0.00     0.041 A 
ATOM     18  C   UNL d   1     -40.863  13.649  21.194  0.00  0.00     0.005 A 
ATOM     19  C   UNL d   1     -40.265  14.203  21.311  0.00  0.00     0.024 A 
ATOM     20  C   UNL d   1     -40.411  15.009  21.177  0.00  0.00     0.094 A 
ATOM     21  C   UNL d   1     -41.158  15.253  20.926  0.00  0.00     0.024 A 
ATOM     22  C   UNL d   1     -41.756  14.700  20.808  0.00  0.00     0.005 A 
BRANCH  20  23
ATOM     23  O   UNL d   1     -39.816  15.555  21.294  0.00  0.00    -0.328 OA
ATOM     24  C   UNL d   1     -39.209  15.633  20.734  0.00  0.00     0.181 C 
ENDBRANCH  20  23
ENDBRANCH  15  17
ENDBRANCH  14  15
ENDBRANCH  13  14
ENDBRANCH   1  13
TORSDOF 6
ENDMDL
MODEL 9
REMARK VINA RESULT:      -4.4      2.174      6.419
REMARK  6 active torsions:
REMARK  status: ('A' for Active; 'I' for Inactive)
REMARK    1  A    between atoms: C_3  and  C_2 
REMARK    2  A    between atoms: O_5  and  C_3 
REMARK    3  A    between atoms: C_9  and  O_5 
REMARK    4  A    between atoms: C_6  and  C_9 
REMARK    5  A    between atoms: C_7  and  C_6 
REMARK    6  A    between atoms: O_19  and  C_16 
ROOT
ATOM      1  C   UNL d   1     -43.218  13.073  21.139  0.00  0.00     0.318 C 
ATOM      2  O   UNL d   1     -43.445  12.652  20.466  0.00  0.00    -0.257 OA
ENDROOT
BRANCH   1   3
ATOM      3  C   UNL d   1     -42.500  13.479  21.154  0.00  0.00     0.145 A 
ATOM      4  N   UNL d   1     -42.483  14.300  20.993  0.00  0.00    -0.240 NA
ATOM      5  C   UNL d   1     -41.769  14.709  21.007  0.00  0.00     0.082 A 
ATOM      6  C   UNL d   1     -41.057  14.303  21.184  0.00  0.00     0.018 A 
ATOM      7  C   UNL d   1     -41.751  15.514  20.849  0.00  0.00     0.019 A 
ATOM      8  C   UNL d   1     -41.072  13.486  21.345  0.00  0.00     0.003 A 
ATOM      9  C   UNL d   1     -40.343  14.711  21.198  0.00  0.00     0.002 A 
ATOM     10  C   UNL d   1     -41.793  13.076  21.330  0.00  0.00     0.025 A 
ATOM     11  C   UNL d   1     -40.336  15.523  21.037  0.00  0.00     0.000 A 
ATOM     12  C   UNL d   1     -41.036  15.922  20.864  0.00  0.00     0.002 A 
ENDBRANCH   1   3
BRANCH   1  13
ATOM     13  O   UNL d   1     -43.717  13.088  21.803  0.00  0.00    -0.266 OA
BRANCH  13  14
ATOM     14  C   UNL d   1     -44.534  13.058  21.709  0.00  0.00     0.168 C 
BRANCH  14  15
ATOM     15  C   UNL d   1     -45.021  12.871  22.344  0.00  0.00     0.220 C 
ATOM     16  O   UNL d   1     -44.764  12.323  22.905  0.00  0.00    -0.284 OA
BRANCH  15  17
ATOM     17  C   UNL d   1     -45.762  13.228  22.419  0.00  0.00     0.041 A 
ATOM     18  C   UNL d   1     -45.817  13.980  22.756  0.00  0.00     0.005 A 
ATOM     19  C   UNL d   1     -46.557  14.333  22.829  0.00  0.00     0.024 A 
ATOM     20  C   UNL d   1     -47.237  13.936  22.568  0.00  0.00     0.094 A 
ATOM     21  C   UNL d   1     -47.169  13.185  22.233  0.00  0.00     0.024 A 
ATOM     22  C   UNL d   1     -46.430  12.831  22.159  0.00  0.00     0.005 A 
BRANCH  20  23
ATOM     23  O   UNL d   1     -47.969  14.289  22.642  0.00  0.00    -0.328 OA
ATOM     24  C   UNL d   1     -48.606  13.860  22.956  0.00  0.00     0.181 C 
ENDBRANCH  20  23
ENDBRANCH  15  17
ENDBRANCH  14  15
ENDBRANCH  13  14
ENDBRANCH   1  13
TORSDOF 6
ENDMDL
