MODEL 1
REMARK VINA RESULT:      12.8      0.000      0.000
REMARK  4 active torsions:
REMARK  status: ('A' for Active; 'I' for Inactive)
REMARK    1  A    between atoms: C_3  and  C_2 
REMARK    2  A    between atoms: C_14  and  C_12 
REMARK    3  A    between atoms: C_15  and  C_14 
REMARK    4  A    between atoms: C_16  and  C_15 
ROOT
ATOM      1  N   UNL d   1      46.176 -16.709  43.574  0.00  0.00    -0.244 NA
ATOM      2  C   UNL d   1      45.920 -16.469  44.317  0.00  0.00     0.081 A 
ATOM      3  C   UNL d   1      45.848 -17.067  44.955  0.00  0.00     0.019 A 
ATOM      4  C   UNL d   1      46.365 -17.499  43.414  0.00  0.00     0.099 A 
ATOM      5  C   UNL d   1      46.037 -17.857  44.796  0.00  0.00     0.003 A 
ATOM      6  C   UNL d   1      46.308 -18.087  43.991  0.00  0.00     0.019 A 
ENDROOT
BRANCH   2   7
ATOM      7  C   UNL d   1      45.731 -15.679  44.476  0.00  0.00     0.018 A 
ATOM      8  C   UNL d   1      46.271 -15.067  44.354  0.00  0.00     0.002 A 
ATOM      9  C   UNL d   1      46.089 -14.307  44.507  0.00  0.00     0.007 A 
ATOM     10  C   UNL d   1      45.345 -14.067  44.802  0.00  0.00     0.035 A 
ATOM     11  C   UNL d   1      44.751 -14.715  44.939  0.00  0.00     0.007 A 
ATOM     12 BR   UNL d   1      45.163 -13.307  44.955  0.00  0.00    -0.049 Br
ATOM     13  C   UNL d   1      44.933 -15.475  44.786  0.00  0.00     0.002 A 
ENDBRANCH   2   7
BRANCH   6  14
ATOM     14  C   UNL d   1      46.495 -18.865  43.834  0.00  0.00     0.002 C 
BRANCH  14  15
ATOM     15  C   UNL d   1      46.288 -19.211  43.131  0.00  0.00     0.000 C 
BRANCH  15  16
ATOM     16  C   UNL d   1      46.383 -20.012  43.012  0.00  0.00     0.000 C 
ATOM     17  C   UNL d   1      46.321 -20.315  42.275  0.00  0.00     0.000 C 
ENDBRANCH  15  16
ENDBRANCH  14  15
ENDBRANCH   6  14
TORSDOF 4
ENDMDL
