MODEL 1
REMARK VINA RESULT:      76.9      0.000      0.000
REMARK  3 active torsions:
REMARK  status: ('A' for Active; 'I' for Inactive)
REMARK    1  A    between atoms: C_24  and  N_10 
REMARK    2  A    between atoms: C_12  and  N_15 
REMARK       I    between atoms: N_15  and  C_16 
REMARK    3  A    between atoms: C_16  and  C_24 
ROOT
ATOM      1  N   UNL d   1     -49.838  28.975  34.038  0.00  0.00    -0.188 NA
ATOM      2  C   UNL d   1     -49.799  28.214  33.716  0.00  0.00     0.298 C 
ATOM      3  O   UNL d   1     -49.101  27.771  33.802  0.00  0.00    -0.263 OA
ENDROOT
BRANCH   1   4
ATOM      4  C   UNL d   1     -49.186  29.289  34.442  0.00  0.00     0.166 A 
ATOM      5  N   UNL d   1     -48.934  30.061  34.284  0.00  0.00    -0.226 NA
ATOM      6  C   UNL d   1     -48.286  30.377  34.684  0.00  0.00     0.090 A 
ATOM      7  C   UNL d   1     -48.030  31.147  34.530  0.00  0.00     0.041 A 
ATOM      8  C   UNL d   1     -47.884  29.922  35.247  0.00  0.00     0.081 A 
ATOM      9  C   UNL d   1     -47.378  31.462  34.934  0.00  0.00     0.105 A 
ATOM     10  C   UNL d   1     -48.429  31.604  33.968  0.00  0.00     0.004 A 
ATOM     11  C   UNL d   1     -47.129  32.232  34.774  0.00  0.00     0.025 A 
ATOM     12  O   UNL d   1     -46.983  31.006  35.492  0.00  0.00    -0.273 OA
ATOM     13  C   UNL d   1     -47.524  32.690  34.214  0.00  0.00     0.002 A 
ATOM     14  C   UNL d   1     -48.180  32.374  33.808  0.00  0.00     0.000 A 
ATOM     15  C   UNL d   1     -47.232  30.237  35.652  0.00  0.00     0.301 A 
ATOM     16  O   UNL d   1     -46.833  29.776  36.215  0.00  0.00    -0.259 OA
ATOM     17  C   UNL d   1     -48.136  29.151  35.406  0.00  0.00     0.010 A 
ATOM     18  C   UNL d   1     -48.781  28.836  35.007  0.00  0.00     0.039 A 
ATOM     19  C   UNL d   1     -47.730  28.697  35.972  0.00  0.00     0.000 C 
ENDBRANCH   1   4
BRANCH   2  20
ATOM     20  C   UNL d   1     -50.447  27.892  33.310  0.00  0.00     0.143 C 
BRANCH  20  21
ATOM     21  N   UNL d   1     -50.571  27.079  33.310  0.00  0.00    -0.306 N 
ATOM     22  C   UNL d   1     -49.898  26.676  33.308  0.00  0.00     0.059 A 
ATOM     23  C   UNL d   1     -49.708  25.902  33.306  0.00  0.00     0.080 A 
ATOM     24  C   UNL d   1     -50.113  25.241  33.307  0.00  0.00     0.061 A 
ATOM     25  C   UNL d   1     -50.707  26.354  33.309  0.00  0.00     0.024 A 
ATOM     26  N   UNL d   1     -50.877  25.043  33.308  0.00  0.00    -0.280 N 
ATOM     27  C   UNL d   1     -51.560  25.454  33.310  0.00  0.00     0.049 A 
ATOM     28  C   UNL d   1     -50.896  24.249  33.308  0.00  0.00     0.264 A 
ATOM     29  C   UNL d   1     -51.744  26.208  33.311  0.00  0.00     0.079 A 
ATOM     30  C   UNL d   1     -52.249  25.060  33.312  0.00  0.00     0.014 A 
ATOM     31  C   UNL d   1     -51.339  26.884  33.311  0.00  0.00     0.059 A 
ATOM     32  C   UNL d   1     -52.267  24.274  33.311  0.00  0.00     0.006 A 
ATOM     33  C   UNL d   1     -51.584  23.863  33.309  0.00  0.00     0.061 A 
ATOM     34  O   UNL d   1     -50.208  23.843  33.306  0.00  0.00    -0.267 OA
ENDBRANCH  20  21
ENDBRANCH   2  20
TORSDOF 3
ENDMDL
