MODEL 1
REMARK VINA RESULT:      86.3      0.000      0.000
REMARK  3 active torsions:
REMARK  status: ('A' for Active; 'I' for Inactive)
REMARK    1  A    between atoms: C_9  and  S_1 
REMARK    2  A    between atoms: S_2  and  C_8 
REMARK    3  A    between atoms: N_14  and  C_5 
ROOT
ATOM      1  C   UNL d   1      60.168  48.999  50.977  0.00  0.00     0.021 A 
ATOM      2  C   UNL d   1      58.882  49.178  51.362  0.00  0.00     0.021 A 
ATOM      3  C   UNL d   1      59.655  48.936  51.591  0.00  0.00     0.111 A 
ATOM      4  C   UNL d   1      58.951  49.393  50.573  0.00  0.00     0.002 A 
ATOM      5  C   UNL d   1      59.723  49.297  50.303  0.00  0.00     0.002 A 
ATOM      6  C   UNL d   1      57.492  49.486  51.387  0.00  0.00     0.107 A 
ATOM      7  C   UNL d   1      61.325  48.980  50.144  0.00  0.00     0.107 A 
ATOM      8  C   UNL d   1      58.182  49.219  51.767  0.00  0.00     0.015 A 
ATOM      9  C   UNL d   1      60.960  48.842  50.902  0.00  0.00     0.015 A 
ATOM     10  C   UNL d   1      60.088  49.422  49.591  0.00  0.00     0.001 A 
ATOM     11  C   UNL d   1      58.235  49.667  50.189  0.00  0.00     0.001 A 
ATOM     12  C   UNL d   1      60.886  49.267  49.502  0.00  0.00     0.013 A 
ATOM     13  C   UNL d   1      57.541  49.706  50.594  0.00  0.00     0.013 A 
ENDROOT
BRANCH   6  14
ATOM     14  S   UNL d   1      56.772  49.519  51.831  0.00  0.00     0.302 S 
ATOM     15  O   UNL d   1      57.215  49.707  52.508  0.00  0.00    -0.197 OA
ATOM     16  O   UNL d   1      56.305  49.327  51.141  0.00  0.00    -0.197 OA
ATOM     17  N   UNL d   1      56.049  49.554  52.280  0.00  0.00    -0.043 N 
ENDBRANCH   6  14
BRANCH   3  18
ATOM     18  N   UNL d   1      59.941  48.648  52.358  0.00  0.00    -0.096 NA
ATOM     19  O   UNL d   1      60.755  48.640  52.529  0.00  0.00    -0.061 OA
ENDBRANCH   3  18
BRANCH   7  20
ATOM     20  S   UNL d   1      62.175  48.804  50.090  0.00  0.00     0.302 S 
ATOM     21  O   UNL d   1      62.243  49.528  49.636  0.00  0.00    -0.197 OA
ATOM     22  O   UNL d   1      62.056  48.095  50.544  0.00  0.00    -0.197 OA
ATOM     23  N   UNL d   1      62.970  48.661  50.026  0.00  0.00    -0.043 N 
ENDBRANCH   7  20
TORSDOF 3
ENDMDL
MODEL 2
REMARK VINA RESULT:      87.4      2.830      3.686
REMARK  3 active torsions:
REMARK  status: ('A' for Active; 'I' for Inactive)
REMARK    1  A    between atoms: C_9  and  S_1 
REMARK    2  A    between atoms: S_2  and  C_8 
REMARK    3  A    between atoms: N_14  and  C_5 
ROOT
ATOM      1  C   UNL d   1      61.277  46.072  50.292  0.00  0.00     0.021 A 
ATOM      2  C   UNL d   1      60.912  47.214  50.923  0.00  0.00     0.021 A 
ATOM      3  C   UNL d   1      60.890  46.372  50.928  0.00  0.00     0.111 A 
ATOM      4  C   UNL d   1      61.334  47.412  50.248  0.00  0.00     0.002 A 
ATOM      5  C   UNL d   1      61.573  46.739  49.837  0.00  0.00     0.002 A 
ATOM      6  C   UNL d   1      60.722  48.580  51.278  0.00  0.00     0.107 A 
ATOM      7  C   UNL d   1      61.860  45.209  49.319  0.00  0.00     0.107 A 
ATOM      8  C   UNL d   1      60.611  47.770  51.429  0.00  0.00     0.015 A 
ATOM      9  C   UNL d   1      61.417  45.315  50.039  0.00  0.00     0.015 A 
ATOM     10  C   UNL d   1      61.993  46.619  49.154  0.00  0.00     0.001 A 
ATOM     11  C   UNL d   1      61.445  48.249  50.098  0.00  0.00     0.001 A 
ATOM     12  C   UNL d   1      62.141  45.860  48.888  0.00  0.00     0.013 A 
ATOM     13  C   UNL d   1      61.144  48.798  50.603  0.00  0.00     0.013 A 
ENDROOT
BRANCH   6  14
ATOM     14  S   UNL d   1      60.398  49.142  51.821  0.00  0.00     0.302 S 
ATOM     15  O   UNL d   1      61.103  49.102  52.261  0.00  0.00    -0.197 OA
ATOM     16  O   UNL d   1      59.669  49.192  51.378  0.00  0.00    -0.197 OA
ATOM     17  N   UNL d   1      60.075  49.708  52.370  0.00  0.00    -0.043 N 
ENDBRANCH   6  14
BRANCH   3  18
ATOM     18  N   UNL d   1      60.525  45.832  51.499  0.00  0.00    -0.096 NA
ATOM     19  O   UNL d   1      60.896  45.673  52.227  0.00  0.00    -0.061 OA
ENDBRANCH   3  18
BRANCH   7  20
ATOM     20  S   UNL d   1      61.996  44.387  49.070  0.00  0.00     0.302 S 
ATOM     21  O   UNL d   1      61.173  44.379  48.830  0.00  0.00    -0.197 OA
ATOM     22  O   UNL d   1      62.806  44.445  49.323  0.00  0.00    -0.197 OA
ATOM     23  N   UNL d   1      62.099  43.620  48.830  0.00  0.00    -0.043 N 
ENDBRANCH   7  20
TORSDOF 3
ENDMDL
