MODEL 1
REMARK VINA RESULT:      -6.9      0.000      0.000
REMARK  8 active torsions:
REMARK  status: ('A' for Active; 'I' for Inactive)
REMARK    1  A    between atoms: C_9  and  N_1 
REMARK    2  A    between atoms: C_13  and  C_5 
REMARK    3  A    between atoms: C_8  and  C_6 
REMARK    4  A    between atoms: C_7  and  N_11 
REMARK    5  A    between atoms: C_10  and  C_9 
REMARK       I    between atoms: N_11  and  C_10 
REMARK    6  A    between atoms: C_15  and  C_13 
REMARK    7  A    between atoms: C_18  and  C_15 
REMARK    8  A    between atoms: C_20  and  C_18 
ROOT
ATOM      1  N   UNL d   1     -47.470  13.355  22.771  0.00  0.00    -0.230 N 
ATOM      2  C   UNL d   1     -46.693  13.645  22.789  0.00  0.00     0.299 A 
ATOM      3  C   UNL d   1     -47.462  12.579  23.052  0.00  0.00     0.274 A 
ATOM      4  S   UNL d   1     -46.204  13.043  23.083  0.00  0.00    -0.022 SA
ATOM      5  C   UNL d   1     -46.680  12.391  23.243  0.00  0.00     0.090 A 
ATOM      6  O   UNL d   1     -46.450  14.401  22.554  0.00  0.00    -0.259 OA
ATOM      7  O   UNL d   1     -48.112  12.081  23.129  0.00  0.00    -0.266 OA
ENDROOT
BRANCH   1   8
ATOM      8  C   UNL d   1     -48.131  13.774  22.515  0.00  0.00     0.149 C 
BRANCH   8   9
ATOM      9  C   UNL d   1     -48.491  13.573  21.795  0.00  0.00     0.297 C 
ATOM     10  N   UNL d   1     -49.222  13.896  21.595  0.00  0.00    -0.206 NA
ATOM     11  O   UNL d   1     -48.111  13.046  21.281  0.00  0.00    -0.264 OA
BRANCH  10  12
ATOM     12  C   UNL d   1     -49.591  14.418  22.113  0.00  0.00     0.090 A 
ATOM     13  C   UNL d   1     -50.394  14.347  22.260  0.00  0.00     0.082 A 
ATOM     14  C   UNL d   1     -50.766  14.867  22.776  0.00  0.00     0.008 A 
ATOM     15  C   UNL d   1     -50.326  15.462  23.149  0.00  0.00     0.000 A 
ATOM     16  C   UNL d   1     -49.515  15.526  22.995  0.00  0.00     0.002 A 
ATOM     17  C   UNL d   1     -49.153  15.004  22.479  0.00  0.00     0.019 A 
BRANCH  13  18
ATOM     18  C   UNL d   1     -50.831  13.754  21.887  0.00  0.00     0.212 C 
ATOM     19  O   UNL d   1     -51.064  13.842  21.096  0.00  0.00    -0.644 OA
ATOM     20  O   UNL d   1     -51.035  13.073  22.301  0.00  0.00    -0.644 OA
ENDBRANCH  13  18
ENDBRANCH  10  12
ENDBRANCH   8   9
ENDBRANCH   1   8
BRANCH   5  21
ATOM     21  C   UNL d   1     -46.420  11.666  23.546  0.00  0.00     0.011 C 
BRANCH  21  22
ATOM     22  C   UNL d   1     -45.659  11.392  23.371  0.00  0.00     0.001 C 
BRANCH  22  23
ATOM     23  C   UNL d   1     -45.431  10.635  23.592  0.00  0.00     0.000 C 
BRANCH  23  24
ATOM     24  C   UNL d   1     -44.640  10.406  23.527  0.00  0.00     0.000 A 
ATOM     25  C   UNL d   1     -44.427   9.631  23.680  0.00  0.00     0.000 A 
ATOM     26  C   UNL d   1     -43.640   9.398  23.617  0.00  0.00     0.000 A 
ATOM     27  C   UNL d   1     -43.060   9.949  23.397  0.00  0.00     0.000 A 
ATOM     28  C   UNL d   1     -43.281  10.733  23.243  0.00  0.00     0.000 A 
ATOM     29  C   UNL d   1     -44.068  10.958  23.308  0.00  0.00     0.000 A 
ENDBRANCH  23  24
ENDBRANCH  22  23
ENDBRANCH  21  22
ENDBRANCH   5  21
TORSDOF 8
ENDMDL
MODEL 2
REMARK VINA RESULT:      -5.8      2.733      3.709
REMARK  8 active torsions:
REMARK  status: ('A' for Active; 'I' for Inactive)
REMARK    1  A    between atoms: C_9  and  N_1 
REMARK    2  A    between atoms: C_13  and  C_5 
REMARK    3  A    between atoms: C_8  and  C_6 
REMARK    4  A    between atoms: C_7  and  N_11 
REMARK    5  A    between atoms: C_10  and  C_9 
REMARK       I    between atoms: N_11  and  C_10 
REMARK    6  A    between atoms: C_15  and  C_13 
REMARK    7  A    between atoms: C_18  and  C_15 
REMARK    8  A    between atoms: C_20  and  C_18 
ROOT
ATOM      1  N   UNL d   1     -45.452  12.518  22.504  0.00  0.00    -0.230 N 
ATOM      2  C   UNL d   1     -44.868  12.040  22.848  0.00  0.00     0.299 A 
ATOM      3  C   UNL d   1     -45.117  12.910  21.859  0.00  0.00     0.274 A 
ATOM      4  S   UNL d   1     -44.169  12.139  22.411  0.00  0.00    -0.022 SA
ATOM      5  C   UNL d   1     -44.327  12.673  21.806  0.00  0.00     0.090 A 
ATOM      6  O   UNL d   1     -44.966  11.552  23.510  0.00  0.00    -0.259 OA
ATOM      7  O   UNL d   1     -45.499  13.440  21.358  0.00  0.00    -0.266 OA
ENDROOT
BRANCH   1   8
ATOM      8  C   UNL d   1     -46.230  12.586  22.765  0.00  0.00     0.149 C 
BRANCH   8   9
ATOM      9  C   UNL d   1     -46.441  13.214  23.265  0.00  0.00     0.297 C 
ATOM     10  N   UNL d   1     -47.235  13.357  23.434  0.00  0.00    -0.206 NA
ATOM     11  O   UNL d   1     -45.850  13.694  23.592  0.00  0.00    -0.264 OA
BRANCH  10  12
ATOM     12  C   UNL d   1     -47.814  12.874  23.104  0.00  0.00     0.090 A 
ATOM     13  C   UNL d   1     -48.483  13.210  22.771  0.00  0.00     0.082 A 
ATOM     14  C   UNL d   1     -49.064  12.731  22.441  0.00  0.00     0.008 A 
ATOM     15  C   UNL d   1     -48.970  11.908  22.446  0.00  0.00     0.000 A 
ATOM     16  C   UNL d   1     -48.290  11.577  22.785  0.00  0.00     0.002 A 
ATOM     17  C   UNL d   1     -47.717  12.062  23.111  0.00  0.00     0.019 A 
BRANCH  13  18
ATOM     18  C   UNL d   1     -48.575  14.030  22.767  0.00  0.00     0.212 C 
ATOM     19  O   UNL d   1     -48.433  14.462  22.073  0.00  0.00    -0.644 OA
ATOM     20  O   UNL d   1     -48.807  14.421  23.452  0.00  0.00    -0.644 OA
ENDBRANCH  13  18
ENDBRANCH  10  12
ENDBRANCH   8   9
ENDBRANCH   1   8
BRANCH   5  21
ATOM     21  C   UNL d   1     -43.785  12.932  21.236  0.00  0.00     0.011 C 
BRANCH  21  22
ATOM     22  C   UNL d   1     -43.024  13.166  21.463  0.00  0.00     0.001 C 
BRANCH  22  23
ATOM     23  C   UNL d   1     -42.426  13.227  20.905  0.00  0.00     0.000 C 
BRANCH  23  24
ATOM     24  C   UNL d   1     -41.803  13.757  21.023  0.00  0.00     0.000 A 
ATOM     25  C   UNL d   1     -41.109  13.497  21.369  0.00  0.00     0.000 A 
ATOM     26  C   UNL d   1     -40.485  14.021  21.489  0.00  0.00     0.000 A 
ATOM     27  C   UNL d   1     -40.559  14.814  21.258  0.00  0.00     0.000 A 
ATOM     28  C   UNL d   1     -41.265  15.073  20.908  0.00  0.00     0.000 A 
ATOM     29  C   UNL d   1     -41.882  14.544  20.792  0.00  0.00     0.000 A 
ENDBRANCH  23  24
ENDBRANCH  22  23
ENDBRANCH  21  22
ENDBRANCH   5  21
TORSDOF 8
ENDMDL
MODEL 3
REMARK VINA RESULT:      -4.3      6.041      8.175
REMARK  8 active torsions:
REMARK  status: ('A' for Active; 'I' for Inactive)
REMARK    1  A    between atoms: C_9  and  N_1 
REMARK    2  A    between atoms: C_13  and  C_5 
REMARK    3  A    between atoms: C_8  and  C_6 
REMARK    4  A    between atoms: C_7  and  N_11 
REMARK    5  A    between atoms: C_10  and  C_9 
REMARK       I    between atoms: N_11  and  C_10 
REMARK    6  A    between atoms: C_15  and  C_13 
REMARK    7  A    between atoms: C_18  and  C_15 
REMARK    8  A    between atoms: C_20  and  C_18 
ROOT
ATOM      1  N   UNL d   1     -41.168  14.439  20.240  0.00  0.00    -0.230 N 
ATOM      2  C   UNL d   1     -41.270  14.808  20.976  0.00  0.00     0.299 A 
ATOM      3  C   UNL d   1     -41.620  13.750  20.233  0.00  0.00     0.274 A 
ATOM      4  S   UNL d   1     -41.790  14.341  21.425  0.00  0.00    -0.022 SA
ATOM      5  C   UNL d   1     -42.002  13.693  20.964  0.00  0.00     0.090 A 
ATOM      6  O   UNL d   1     -40.916  15.516  21.220  0.00  0.00    -0.259 OA
ATOM      7  O   UNL d   1     -41.683  13.214  19.611  0.00  0.00    -0.266 OA
ENDROOT
BRANCH   1   8
ATOM      8  C   UNL d   1     -40.695  14.719  19.627  0.00  0.00     0.149 C 
BRANCH   8   9
ATOM      9  C   UNL d   1     -39.885  14.537  19.619  0.00  0.00     0.297 C 
ATOM     10  N   UNL d   1     -39.441  14.668  18.937  0.00  0.00    -0.206 NA
ATOM     11  O   UNL d   1     -39.529  14.225  20.298  0.00  0.00    -0.264 OA
BRANCH  10  12
ATOM     12  C   UNL d   1     -39.804  14.978  18.268  0.00  0.00     0.090 A 
ATOM     13  C   UNL d   1     -39.648  14.655  17.531  0.00  0.00     0.082 A 
ATOM     14  C   UNL d   1     -40.009  14.962  16.861  0.00  0.00     0.008 A 
ATOM     15  C   UNL d   1     -40.533  15.601  16.932  0.00  0.00     0.000 A 
ATOM     16  C   UNL d   1     -40.686  15.922  17.680  0.00  0.00     0.002 A 
ATOM     17  C   UNL d   1     -40.321  15.609  18.343  0.00  0.00     0.019 A 
BRANCH  13  18
ATOM     18  C   UNL d   1     -39.126  14.019  17.463  0.00  0.00     0.212 C 
ATOM     19  O   UNL d   1     -38.307  14.146  17.502  0.00  0.00    -0.644 OA
ATOM     20  O   UNL d   1     -39.417  13.258  17.355  0.00  0.00    -0.644 OA
ENDBRANCH  13  18
ENDBRANCH  10  12
ENDBRANCH   8   9
ENDBRANCH   1   8
BRANCH   5  21
ATOM     21  C   UNL d   1     -42.513  13.084  21.194  0.00  0.00     0.011 C 
BRANCH  21  22
ATOM     22  C   UNL d   1     -43.273  13.261  21.468  0.00  0.00     0.001 C 
BRANCH  22  23
ATOM     23  C   UNL d   1     -43.837  12.669  21.538  0.00  0.00     0.000 C 
BRANCH  23  24
ATOM     24  C   UNL d   1     -44.544  12.816  21.938  0.00  0.00     0.000 A 
ATOM     25  C   UNL d   1     -44.808  12.288  22.504  0.00  0.00     0.000 A 
ATOM     26  C   UNL d   1     -45.513  12.431  22.906  0.00  0.00     0.000 A 
ATOM     27  C   UNL d   1     -45.957  13.111  22.737  0.00  0.00     0.000 A 
ATOM     28  C   UNL d   1     -45.685  13.643  22.162  0.00  0.00     0.000 A 
ATOM     29  C   UNL d   1     -44.982  13.493  21.766  0.00  0.00     0.000 A 
ENDBRANCH  23  24
ENDBRANCH  22  23
ENDBRANCH  21  22
ENDBRANCH   5  21
TORSDOF 8
ENDMDL
MODEL 4
REMARK VINA RESULT:      -4.0      6.787      9.300
REMARK  8 active torsions:
REMARK  status: ('A' for Active; 'I' for Inactive)
REMARK    1  A    between atoms: C_9  and  N_1 
REMARK    2  A    between atoms: C_13  and  C_5 
REMARK    3  A    between atoms: C_8  and  C_6 
REMARK    4  A    between atoms: C_7  and  N_11 
REMARK    5  A    between atoms: C_10  and  C_9 
REMARK       I    between atoms: N_11  and  C_10 
REMARK    6  A    between atoms: C_15  and  C_13 
REMARK    7  A    between atoms: C_18  and  C_15 
REMARK    8  A    between atoms: C_20  and  C_18 
ROOT
ATOM      1  N   UNL d   1     -39.785  14.275  19.865  0.00  0.00    -0.230 N 
ATOM      2  C   UNL d   1     -39.616  14.300  20.677  0.00  0.00     0.299 A 
ATOM      3  C   UNL d   1     -40.604  14.243  19.773  0.00  0.00     0.274 A 
ATOM      4  S   UNL d   1     -40.338  14.282  21.087  0.00  0.00    -0.022 SA
ATOM      5  C   UNL d   1     -40.941  14.248  20.528  0.00  0.00     0.090 A 
ATOM      6  O   UNL d   1     -38.862  14.335  21.017  0.00  0.00    -0.259 OA
ATOM      7  O   UNL d   1     -41.014  14.212  19.060  0.00  0.00    -0.266 OA
ENDROOT
BRANCH   1   8
ATOM      8  C   UNL d   1     -39.225  14.282  19.261  0.00  0.00     0.149 C 
BRANCH   8   9
ATOM      9  C   UNL d   1     -38.951  15.007  18.965  0.00  0.00     0.297 C 
ATOM     10  N   UNL d   1     -38.506  15.027  18.271  0.00  0.00    -0.206 NA
ATOM     11  O   UNL d   1     -39.127  15.708  19.371  0.00  0.00    -0.264 OA
BRANCH  10  12
ATOM     12  C   UNL d   1     -38.337  14.326  17.877  0.00  0.00     0.090 A 
ATOM     13  C   UNL d   1     -38.399  14.293  17.060  0.00  0.00     0.082 A 
ATOM     14  C   UNL d   1     -38.231  13.594  16.662  0.00  0.00     0.008 A 
ATOM     15  C   UNL d   1     -38.000  12.923  17.089  0.00  0.00     0.000 A 
ATOM     16  C   UNL d   1     -37.940  12.965  17.914  0.00  0.00     0.002 A 
ATOM     17  C   UNL d   1     -38.109  13.666  18.302  0.00  0.00     0.019 A 
BRANCH  13  18
ATOM     18  C   UNL d   1     -38.630  14.963  16.636  0.00  0.00     0.212 C 
ATOM     19  O   UNL d   1     -39.416  15.045  16.383  0.00  0.00    -0.644 OA
ATOM     20  O   UNL d   1     -38.082  15.551  16.465  0.00  0.00    -0.644 OA
ENDBRANCH  13  18
ENDBRANCH  10  12
ENDBRANCH   8   9
ENDBRANCH   1   8
BRANCH   5  21
ATOM     21  C   UNL d   1     -41.752  14.221  20.692  0.00  0.00     0.011 C 
BRANCH  21  22
ATOM     22  C   UNL d   1     -42.077  13.563  21.075  0.00  0.00     0.001 C 
BRANCH  22  23
ATOM     23  C   UNL d   1     -42.795  13.253  20.827  0.00  0.00     0.000 C 
BRANCH  23  24
ATOM     24  C   UNL d   1     -43.294  12.881  21.370  0.00  0.00     0.000 A 
ATOM     25  C   UNL d   1     -44.058  13.156  21.473  0.00  0.00     0.000 A 
ATOM     26  C   UNL d   1     -44.560  12.789  22.014  0.00  0.00     0.000 A 
ATOM     27  C   UNL d   1     -44.292  12.140  22.455  0.00  0.00     0.000 A 
ATOM     28  C   UNL d   1     -43.516  11.865  22.347  0.00  0.00     0.000 A 
ATOM     29  C   UNL d   1     -43.022  12.236  21.806  0.00  0.00     0.000 A 
ENDBRANCH  23  24
ENDBRANCH  22  23
ENDBRANCH  21  22
ENDBRANCH   5  21
TORSDOF 8
ENDMDL
