MODEL 1
REMARK VINA RESULT:      -4.8      0.000      0.000
REMARK  6 active torsions:
REMARK  status: ('A' for Active; 'I' for Inactive)
REMARK    1  A    between atoms: C_2  and  C_4 
REMARK    2  A    between atoms: C_5  and  C_3 
REMARK    3  A    between atoms: C_16  and  C_15 
REMARK    4  A    between atoms: C_17  and  C_16 
REMARK    5  A    between atoms: C_19  and  C_17 
REMARK    6  A    between atoms: C_18  and  C_19 
ROOT
ATOM      1  N   UNL d   1      57.225  -0.984  31.045  0.00  0.00    -0.244 NA
ATOM      2  C   UNL d   1      57.172  -0.226  31.405  0.00  0.00     0.081 A 
ATOM      3  C   UNL d   1      57.634   0.411  31.098  0.00  0.00     0.019 A 
ATOM      4  C   UNL d   1      57.742  -1.121  30.370  0.00  0.00     0.099 A 
ATOM      5  C   UNL d   1      58.126   0.290  30.460  0.00  0.00     0.003 A 
ATOM      6  C   UNL d   1      58.180  -0.468  30.100  0.00  0.00     0.019 A 
ENDROOT
BRANCH   2   7
ATOM      7  C   UNL d   1      56.689  -0.129  32.022  0.00  0.00     0.018 A 
ATOM      8  C   UNL d   1      56.330   0.592  32.141  0.00  0.00     0.002 A 
ATOM      9  C   UNL d   1      55.815   0.682  32.808  0.00  0.00     0.006 A 
ATOM     10  C   UNL d   1      55.685   0.055  33.317  0.00  0.00     0.064 A 
ATOM     11  C   UNL d   1      56.071  -0.691  33.176  0.00  0.00     0.006 A 
ATOM     12  C   UNL d   1      56.562  -0.758  32.530  0.00  0.00     0.002 A 
BRANCH  10  13
ATOM     13  C   UNL d   1      55.171   0.144  33.984  0.00  0.00     0.211 C 
ATOM     14  O   UNL d   1      55.411   0.000  34.774  0.00  0.00    -0.644 OA
ATOM     15  O   UNL d   1      54.365   0.390  33.867  0.00  0.00    -0.644 OA
ENDBRANCH  10  13
ENDBRANCH   2   7
BRANCH   6  16
ATOM     16  C   UNL d   1      58.697  -0.608  29.423  0.00  0.00     0.002 C 
BRANCH  16  17
ATOM     17  C   UNL d   1      59.475  -0.795  29.575  0.00  0.00     0.000 C 
BRANCH  17  18
ATOM     18  C   UNL d   1      59.989  -0.989  28.929  0.00  0.00     0.000 C 
BRANCH  18  19
ATOM     19  C   UNL d   1      60.712  -1.302  29.040  0.00  0.00     0.000 C 
ATOM     20  C   UNL d   1      61.084  -1.737  28.455  0.00  0.00     0.000 C 
ENDBRANCH  18  19
ENDBRANCH  17  18
ENDBRANCH  16  17
ENDBRANCH   6  16
TORSDOF 6
ENDMDL
MODEL 2
REMARK VINA RESULT:      -4.2      2.572      5.250
REMARK  6 active torsions:
REMARK  status: ('A' for Active; 'I' for Inactive)
REMARK    1  A    between atoms: C_2  and  C_4 
REMARK    2  A    between atoms: C_5  and  C_3 
REMARK    3  A    between atoms: C_16  and  C_15 
REMARK    4  A    between atoms: C_17  and  C_16 
REMARK    5  A    between atoms: C_19  and  C_17 
REMARK    6  A    between atoms: C_18  and  C_19 
ROOT
ATOM      1  N   UNL d   1      57.189  -0.773  31.605  0.00  0.00    -0.244 NA
ATOM      2  C   UNL d   1      57.401  -0.060  31.213  0.00  0.00     0.081 A 
ATOM      3  C   UNL d   1      56.999   0.657  31.412  0.00  0.00     0.019 A 
ATOM      4  C   UNL d   1      56.572  -0.785  32.205  0.00  0.00     0.099 A 
ATOM      5  C   UNL d   1      56.414   0.654  31.979  0.00  0.00     0.003 A 
ATOM      6  C   UNL d   1      56.203  -0.059  32.372  0.00  0.00     0.019 A 
ENDROOT
BRANCH   2   7
ATOM      7  C   UNL d   1      57.970  -0.077  30.667  0.00  0.00     0.018 A 
ATOM      8  C   UNL d   1      57.981  -0.679  30.118  0.00  0.00     0.002 A 
ATOM      9  C   UNL d   1      58.599  -0.685  29.538  0.00  0.00     0.006 A 
ATOM     10  C   UNL d   1      59.168  -0.097  29.534  0.00  0.00     0.064 A 
ATOM     11  C   UNL d   1      59.139   0.523  30.116  0.00  0.00     0.006 A 
ATOM     12  C   UNL d   1      58.538   0.512  30.666  0.00  0.00     0.002 A 
BRANCH  10  13
ATOM     13  C   UNL d   1      59.786  -0.102  28.954  0.00  0.00     0.211 C 
ATOM     14  O   UNL d   1      60.129   0.594  28.641  0.00  0.00    -0.644 OA
ATOM     15  O   UNL d   1      60.087  -0.843  28.663  0.00  0.00    -0.644 OA
ENDBRANCH  10  13
ENDBRANCH   2   7
BRANCH   6  16
ATOM     16  C   UNL d   1      55.584  -0.074  32.974  0.00  0.00     0.002 C 
BRANCH  16  17
ATOM     17  C   UNL d   1      55.765   0.225  33.709  0.00  0.00     0.000 C 
BRANCH  17  18
ATOM     18  C   UNL d   1      55.173   0.224  34.316  0.00  0.00     0.000 C 
BRANCH  18  19
ATOM     19  C   UNL d   1      55.226   0.682  34.963  0.00  0.00     0.000 C 
ATOM     20  C   UNL d   1      54.671   0.640  35.564  0.00  0.00     0.000 C 
ENDBRANCH  18  19
ENDBRANCH  17  18
ENDBRANCH  16  17
ENDBRANCH   6  16
TORSDOF 6
ENDMDL
MODEL 3
REMARK VINA RESULT:      -2.4      2.804      5.275
REMARK  6 active torsions:
REMARK  status: ('A' for Active; 'I' for Inactive)
REMARK    1  A    between atoms: C_2  and  C_4 
REMARK    2  A    between atoms: C_5  and  C_3 
REMARK    3  A    between atoms: C_16  and  C_15 
REMARK    4  A    between atoms: C_17  and  C_16 
REMARK    5  A    between atoms: C_19  and  C_17 
REMARK    6  A    between atoms: C_18  and  C_19 
ROOT
ATOM      1  N   UNL d   1      57.861   0.002  30.422  0.00  0.00    -0.244 NA
ATOM      2  C   UNL d   1      57.856  -0.831  30.542  0.00  0.00     0.081 A 
ATOM      3  C   UNL d   1      57.345  -1.161  31.129  0.00  0.00     0.019 A 
ATOM      4  C   UNL d   1      57.355   0.521  30.886  0.00  0.00     0.099 A 
ATOM      5  C   UNL d   1      56.863  -0.676  31.572  0.00  0.00     0.003 A 
ATOM      6  C   UNL d   1      56.868   0.157  31.452  0.00  0.00     0.019 A 
ENDROOT
BRANCH   2   7
ATOM      7  C   UNL d   1      58.330  -1.284  30.103  0.00  0.00     0.018 A 
ATOM      8  C   UNL d   1      58.156  -2.075  30.011  0.00  0.00     0.002 A 
ATOM      9  C   UNL d   1      58.674  -2.549  29.537  0.00  0.00     0.006 A 
ATOM     10  C   UNL d   1      59.331  -2.215  29.182  0.00  0.00     0.064 A 
ATOM     11  C   UNL d   1      59.495  -1.387  29.290  0.00  0.00     0.006 A 
ATOM     12  C   UNL d   1      58.986  -0.947  29.750  0.00  0.00     0.002 A 
BRANCH  10  13
ATOM     13  C   UNL d   1      59.850  -2.688  28.708  0.00  0.00     0.211 C 
ATOM     14  O   UNL d   1      60.608  -2.434  28.460  0.00  0.00    -0.644 OA
ATOM     15  O   UNL d   1      59.605  -3.465  28.460  0.00  0.00    -0.644 OA
ENDBRANCH  10  13
ENDBRANCH   2   7
BRANCH   6  16
ATOM     16  C   UNL d   1      56.362   0.680  31.915  0.00  0.00     0.002 C 
BRANCH  16  17
ATOM     17  C   UNL d   1      56.266   0.511  32.706  0.00  0.00     0.000 C 
BRANCH  17  18
ATOM     18  C   UNL d   1      55.511   0.641  33.070  0.00  0.00     0.000 C 
BRANCH  18  19
ATOM     19  C   UNL d   1      55.390   0.533  33.848  0.00  0.00     0.000 C 
ATOM     20  C   UNL d   1      54.636   0.520  34.167  0.00  0.00     0.000 C 
ENDBRANCH  18  19
ENDBRANCH  17  18
ENDBRANCH  16  17
ENDBRANCH   6  16
TORSDOF 6
ENDMDL
