MODEL 1
REMARK VINA RESULT:      44.9      0.000      0.000
REMARK  5 active torsions:
REMARK  status: ('A' for Active; 'I' for Inactive)
REMARK    1  A    between atoms: C_6  and  C_1 
REMARK    2  A    between atoms: C_8  and  N_3 
REMARK    3  A    between atoms: O_7  and  C_6 
REMARK    4  A    between atoms: C_9  and  O_7 
REMARK    5  A    between atoms: O_16  and  C_10 
ROOT
ATOM      1  C   UNL d   1      58.781  49.703  50.408  0.00  0.00     0.173 A 
ATOM      2  N   UNL d   1      58.524  49.707  49.650  0.00  0.00    -0.225 NA
ATOM      3  N   UNL d   1      58.170  49.682  50.935  0.00  0.00    -0.287 N 
ATOM      4  C   UNL d   1      57.435  49.671  50.471  0.00  0.00     0.083 A 
ATOM      5  C   UNL d   1      57.648  49.687  49.696  0.00  0.00     0.099 A 
ATOM      6  C   UNL d   1      56.633  49.651  50.654  0.00  0.00     0.019 A 
ATOM      7  C   UNL d   1      57.074  49.682  49.049  0.00  0.00     0.021 A 
ATOM      8  C   UNL d   1      56.037  49.645  50.086  0.00  0.00     0.002 A 
ATOM      9  C   UNL d   1      56.251  49.660  49.311  0.00  0.00     0.002 A 
ENDROOT
BRANCH   1  10
ATOM     10  C   UNL d   1      59.340  49.708  50.995  0.00  0.00     0.160 C 
BRANCH  10  11
ATOM     11  O   UNL d   1      60.149  49.655  50.787  0.00  0.00    -0.302 OA
BRANCH  11  12
ATOM     12  C   UNL d   1      60.532  48.911  50.780  0.00  0.00     0.100 A 
ATOM     13  C   UNL d   1      60.543  48.451  50.082  0.00  0.00     0.027 A 
ATOM     14  C   UNL d   1      60.926  47.707  50.075  0.00  0.00     0.026 A 
ATOM     15  C   UNL d   1      61.288  47.434  50.744  0.00  0.00     0.094 A 
ATOM     16  C   UNL d   1      61.277  47.894  51.443  0.00  0.00     0.026 A 
ATOM     17  C   UNL d   1      60.894  48.638  51.449  0.00  0.00     0.027 A 
BRANCH  15  18
ATOM     18  O   UNL d   1      61.608  46.683  50.535  0.00  0.00    -0.328 OA
ATOM     19  C   UNL d   1      61.364  45.983  50.934  0.00  0.00     0.181 C 
ENDBRANCH  15  18
ENDBRANCH  11  12
ENDBRANCH  10  11
ENDBRANCH   1  10
BRANCH   3  20
ATOM     20  C   UNL d   1      58.365  49.676  51.712  0.00  0.00     0.082 C 
ATOM     21  C   UNL d   1      57.834  49.433  52.295  0.00  0.00     0.021 C 
ENDBRANCH   3  20
TORSDOF 5
ENDMDL
MODEL 2
REMARK VINA RESULT:      46.6      1.152      1.577
REMARK  5 active torsions:
REMARK  status: ('A' for Active; 'I' for Inactive)
REMARK    1  A    between atoms: C_6  and  C_1 
REMARK    2  A    between atoms: C_8  and  N_3 
REMARK    3  A    between atoms: O_7  and  C_6 
REMARK    4  A    between atoms: C_9  and  O_7 
REMARK    5  A    between atoms: O_16  and  C_10 
ROOT
ATOM      1  C   UNL d   1      58.784  49.478  50.152  0.00  0.00     0.173 A 
ATOM      2  N   UNL d   1      58.508  49.369  49.408  0.00  0.00    -0.225 NA
ATOM      3  N   UNL d   1      58.188  49.589  50.683  0.00  0.00    -0.287 N 
ATOM      4  C   UNL d   1      57.441  49.549  50.239  0.00  0.00     0.083 A 
ATOM      5  C   UNL d   1      57.635  49.416  49.470  0.00  0.00     0.099 A 
ATOM      6  C   UNL d   1      56.645  49.614  50.435  0.00  0.00     0.019 A 
ATOM      7  C   UNL d   1      57.044  49.339  48.843  0.00  0.00     0.021 A 
ATOM      8  C   UNL d   1      56.035  49.551  49.886  0.00  0.00     0.002 A 
ATOM      9  C   UNL d   1      56.228  49.418  49.117  0.00  0.00     0.002 A 
ENDROOT
BRANCH   1  10
ATOM     10  C   UNL d   1      59.358  49.546  50.721  0.00  0.00     0.160 C 
BRANCH  10  11
ATOM     11  O   UNL d   1      60.128  49.262  50.557  0.00  0.00    -0.302 OA
BRANCH  11  12
ATOM     12  C   UNL d   1      60.690  49.195  51.173  0.00  0.00     0.100 A 
ATOM     13  C   UNL d   1      60.607  48.598  51.754  0.00  0.00     0.027 A 
ATOM     14  C   UNL d   1      61.169  48.531  52.370  0.00  0.00     0.026 A 
ATOM     15  C   UNL d   1      61.793  49.044  52.405  0.00  0.00     0.094 A 
ATOM     16  C   UNL d   1      61.876  49.641  51.824  0.00  0.00     0.026 A 
ATOM     17  C   UNL d   1      61.314  49.708  51.208  0.00  0.00     0.027 A 
BRANCH  15  18
ATOM     18  O   UNL d   1      62.234  48.814  53.084  0.00  0.00    -0.328 OA
ATOM     19  C   UNL d   1      62.731  49.365  53.483  0.00  0.00     0.181 C 
ENDBRANCH  15  18
ENDBRANCH  11  12
ENDBRANCH  10  11
ENDBRANCH   1  10
BRANCH   3  20
ATOM     20  C   UNL d   1      58.402  49.704  51.447  0.00  0.00     0.082 C 
ATOM     21  C   UNL d   1      57.882  49.570  52.073  0.00  0.00     0.021 C 
ENDBRANCH   3  20
TORSDOF 5
ENDMDL
