MODEL 1
REMARK VINA RESULT:      -3.6      0.000      0.000
REMARK  6 active torsions:
REMARK  status: ('A' for Active; 'I' for Inactive)
REMARK    1  A    between atoms: C_14  and  N_1 
REMARK    2  A    between atoms: S_12  and  C_3 
REMARK    3  A    between atoms: C_5  and  N_11 
REMARK    4  A    between atoms: C_15  and  C_8 
REMARK       I    between atoms: N_11  and  C_13 
REMARK    5  A    between atoms: C_17  and  S_12 
REMARK    6  A    between atoms: C_13  and  C_17 
ROOT
ATOM      1  N   UNL d   1      33.121  19.443 -22.194  0.00  0.00    -0.181 NA
ATOM      2  C   UNL d   1      33.095  19.084 -22.947  0.00  0.00     0.288 C 
ATOM      3  O   UNL d   1      33.017  19.547 -23.612  0.00  0.00    -0.265 OA
ENDROOT
BRANCH   2   4
ATOM      4  C   UNL d   1      33.150  18.265 -23.004  0.00  0.00     0.101 C 
BRANCH   4   5
ATOM      5  S   UNL d   1      32.568  17.851 -23.413  0.00  0.00    -0.041 SA
BRANCH   5   6
ATOM      6  C   UNL d   1      32.621  17.036 -23.473  0.00  0.00     0.219 A 
ATOM      7  N   UNL d   1      31.993  16.595 -23.779  0.00  0.00    -0.186 N 
ATOM      8  N   UNL d   1      32.205  15.804 -23.770  0.00  0.00    -0.038 NA
ATOM      9  N   UNL d   1      32.956  15.744 -23.462  0.00  0.00    -0.022 NA
ATOM     10  N   UNL d   1      33.225  16.506 -23.274  0.00  0.00    -0.101 NA
BRANCH   7  11
ATOM     11  C   UNL d   1      31.268  16.864 -24.055  0.00  0.00     0.087 A 
ATOM     12  C   UNL d   1      31.208  17.184 -24.822  0.00  0.00     0.019 A 
ATOM     13  C   UNL d   1      30.484  17.453 -25.097  0.00  0.00     0.002 A 
ATOM     14  C   UNL d   1      29.813  17.411 -24.623  0.00  0.00     0.000 A 
ATOM     15  C   UNL d   1      29.871  17.092 -23.859  0.00  0.00     0.002 A 
ATOM     16  C   UNL d   1      30.599  16.818 -23.573  0.00  0.00     0.019 A 
ENDBRANCH   7  11
ENDBRANCH   5   6
ENDBRANCH   4   5
ENDBRANCH   2   4
BRANCH   1  17
ATOM     17  C   UNL d   1      33.067  20.272 -22.125  0.00  0.00     0.216 A 
ATOM     18  N   UNL d   1      32.833  20.701 -21.458  0.00  0.00    -0.200 NA
ATOM     19  C   UNL d   1      32.865  21.497 -21.650  0.00  0.00     0.172 A 
ATOM     20  N   UNL d   1      33.115  21.565 -22.425  0.00  0.00    -0.187 NA
ATOM     21  S   UNL d   1      33.241  20.795 -22.717  0.00  0.00     0.054 SA
BRANCH  19  22
ATOM     22  C   UNL d   1      32.695  22.180 -21.212  0.00  0.00     0.036 A 
ATOM     23  C   UNL d   1      33.027  22.280 -20.469  0.00  0.00     0.003 A 
ATOM     24  C   UNL d   1      32.859  22.964 -20.028  0.00  0.00     0.000 A 
ATOM     25  C   UNL d   1      32.363  23.536 -20.335  0.00  0.00     0.000 A 
ATOM     26  C   UNL d   1      32.028  23.432 -21.091  0.00  0.00     0.000 A 
ATOM     27  C   UNL d   1      32.191  22.759 -21.531  0.00  0.00     0.003 A 
ENDBRANCH  19  22
ENDBRANCH   1  17
TORSDOF 6
ENDMDL
