MODEL 1
REMARK VINA RESULT:      29.0      0.000      0.000
REMARK  3 active torsions:
REMARK  status: ('A' for Active; 'I' for Inactive)
REMARK    1  A    between atoms: N_3  and  C_1 
REMARK    2  A    between atoms: C_8  and  N_2 
REMARK       I    between atoms: C_4  and  N_3 
REMARK    3  A    between atoms: C_7  and  C_4 
ROOT
ATOM      1  C   UNL d   1     -51.762  26.116  33.334  0.00  0.00     0.185 A 
ATOM      2  N   UNL d   1     -50.944  26.297  33.330  0.00  0.00    -0.254 N 
ATOM      3  S   UNL d   1     -52.173  26.823  33.324  0.00  0.00    -0.044 SA
ATOM      4  C   UNL d   1     -50.874  27.107  33.317  0.00  0.00     0.273 A 
ATOM      5  C   UNL d   1     -51.629  27.435  33.314  0.00  0.00     0.099 A 
ATOM      6  O   UNL d   1     -50.161  27.525  33.309  0.00  0.00    -0.266 OA
ENDROOT
BRANCH   1   7
ATOM      7  N   UNL d   1     -52.096  25.356  33.347  0.00  0.00    -0.182 NA
ATOM      8  C   UNL d   1     -52.899  25.260  33.473  0.00  0.00     0.304 C 
ATOM      9  O   UNL d   1     -53.383  25.924  33.589  0.00  0.00    -0.263 OA
BRANCH   8  10
ATOM     10  C   UNL d   1     -53.236  24.503  33.486  0.00  0.00     0.158 A 
ATOM     11  O   UNL d   1     -52.840  23.811  33.680  0.00  0.00    -0.300 OA
ATOM     12  C   UNL d   1     -53.384  23.192  33.621  0.00  0.00     0.123 A 
ATOM     13  C   UNL d   1     -54.106  23.506  33.393  0.00  0.00     0.029 A 
ATOM     14  C   UNL d   1     -54.027  24.311  33.307  0.00  0.00     0.032 A 
ENDBRANCH   8  10
ENDBRANCH   1   7
BRANCH   2  15
ATOM     15  C   UNL d   1     -50.329  25.744  33.336  0.00  0.00     0.069 A 
ATOM     16  C   UNL d   1     -49.552  26.017  33.372  0.00  0.00     0.018 A 
ATOM     17  C   UNL d   1     -48.928  25.468  33.380  0.00  0.00     0.002 A 
ATOM     18  C   UNL d   1     -49.093  24.654  33.351  0.00  0.00     0.000 A 
ATOM     19  C   UNL d   1     -49.874  24.390  33.315  0.00  0.00     0.002 A 
ATOM     20  C   UNL d   1     -50.489  24.935  33.308  0.00  0.00     0.018 A 
ENDBRANCH   2  15
TORSDOF 3
ENDMDL
