MODEL 1
REMARK VINA RESULT:      -2.5      0.000      0.000
REMARK  4 active torsions:
REMARK  status: ('A' for Active; 'I' for Inactive)
REMARK       I    between atoms: N_2  and  C_1 
REMARK    1  A    between atoms: C_3  and  C_1 
REMARK    2  A    between atoms: C_7  and  N_2 
REMARK    3  A    between atoms: O_17  and  C_9 
REMARK    4  A    between atoms: C_18  and  O_17 
ROOT
ATOM      1  C   UNL d   1      60.178   0.038  28.922  0.00  0.00     0.279 C 
ATOM      2  N   UNL d   1      59.849   0.681  29.332  0.00  0.00    -0.208 NA
ATOM      3  O   UNL d   1      60.857   0.162  28.473  0.00  0.00    -0.265 OA
ENDROOT
BRANCH   2   4
ATOM      4  C   UNL d   1      59.169   0.574  29.786  0.00  0.00     0.085 A 
ATOM      5  C   UNL d   1      58.433   0.641  29.449  0.00  0.00     0.021 A 
ATOM      6  C   UNL d   1      57.753   0.533  29.904  0.00  0.00     0.026 A 
ATOM      7  C   UNL d   1      57.810   0.358  30.695  0.00  0.00     0.100 A 
ATOM      8  C   UNL d   1      58.570   0.284  31.067  0.00  0.00     0.026 A 
ATOM      9  C   UNL d   1      59.237   0.395  30.595  0.00  0.00     0.021 A 
BRANCH   7  10
ATOM     10  O   UNL d   1      57.120   0.253  31.136  0.00  0.00    -0.305 OA
BRANCH  10  11
ATOM     11  C   UNL d   1      57.012  -0.434  31.550  0.00  0.00     0.123 C 
ATOM     12  C   UNL d   1      56.478  -0.445  32.178  0.00  0.00     0.029 C 
ENDBRANCH  10  11
ENDBRANCH   7  10
ENDBRANCH   2   4
BRANCH   1  13
ATOM     13  C   UNL d   1      59.826  -0.715  28.968  0.00  0.00     0.058 A 
ATOM     14  C   UNL d   1      60.093  -1.258  29.528  0.00  0.00     0.006 A 
ATOM     15  C   UNL d   1      59.752  -1.999  29.579  0.00  0.00     0.021 A 
ATOM     16  C   UNL d   1      59.123  -2.219  29.058  0.00  0.00     0.103 A 
ATOM     17  C   UNL d   1      58.869  -1.664  28.503  0.00  0.00     0.021 A 
ATOM     18  N   UNL d   1      58.865  -2.862  29.139  0.00  0.00    -0.148 N 
ATOM     19  C   UNL d   1      59.220  -0.912  28.457  0.00  0.00     0.006 A 
ENDBRANCH   1  13
TORSDOF 4
ENDMDL
MODEL 2
REMARK VINA RESULT:       0.3      1.561      2.308
REMARK  4 active torsions:
REMARK  status: ('A' for Active; 'I' for Inactive)
REMARK       I    between atoms: N_2  and  C_1 
REMARK    1  A    between atoms: C_3  and  C_1 
REMARK    2  A    between atoms: C_7  and  N_2 
REMARK    3  A    between atoms: O_17  and  C_9 
REMARK    4  A    between atoms: C_18  and  O_17 
ROOT
ATOM      1  C   UNL d   1      58.272   0.007  29.413  0.00  0.00     0.279 C 
ATOM      2  N   UNL d   1      57.527   0.015  29.781  0.00  0.00    -0.208 NA
ATOM      3  O   UNL d   1      58.305   0.029  28.590  0.00  0.00    -0.265 OA
ENDROOT
BRANCH   2   4
ATOM      4  C   UNL d   1      57.477  -0.006  30.605  0.00  0.00     0.085 A 
ATOM      5  C   UNL d   1      57.496   0.682  31.037  0.00  0.00     0.021 A 
ATOM      6  C   UNL d   1      57.446   0.660  31.860  0.00  0.00     0.026 A 
ATOM      7  C   UNL d   1      57.376  -0.049  32.250  0.00  0.00     0.100 A 
ATOM      8  C   UNL d   1      57.353  -0.779  31.817  0.00  0.00     0.026 A 
ATOM      9  C   UNL d   1      57.405  -0.736  30.994  0.00  0.00     0.021 A 
BRANCH   7  10
ATOM     10  O   UNL d   1      57.326  -0.053  33.074  0.00  0.00    -0.305 OA
BRANCH  10  11
ATOM     11  C   UNL d   1      57.232   0.646  33.471  0.00  0.00     0.123 C 
ATOM     12  C   UNL d   1      56.745   0.668  34.135  0.00  0.00     0.029 C 
ENDBRANCH  10  11
ENDBRANCH   7  10
ENDBRANCH   2   4
BRANCH   1  13
ATOM     13  C   UNL d   1      58.967  -0.022  29.869  0.00  0.00     0.058 A 
ATOM     14  C   UNL d   1      59.294   0.676  30.163  0.00  0.00     0.006 A 
ATOM     15  C   UNL d   1      59.976   0.655  30.611  0.00  0.00     0.021 A 
ATOM     16  C   UNL d   1      60.357  -0.082  30.780  0.00  0.00     0.103 A 
ATOM     17  C   UNL d   1      60.017  -0.770  30.479  0.00  0.00     0.021 A 
ATOM     18  N   UNL d   1      60.937  -0.049  31.167  0.00  0.00    -0.148 N 
ATOM     19  C   UNL d   1      59.322  -0.741  30.023  0.00  0.00     0.006 A 
ENDBRANCH   1  13
TORSDOF 4
ENDMDL
