MODEL 1
REMARK VINA RESULT:      17.5      0.000      0.000
REMARK  1 active torsions:
REMARK  status: ('A' for Active; 'I' for Inactive)
REMARK    1  A    between atoms: C_7  and  C_4 
ROOT
ATOM      1  N   UNL d   1      46.038 -17.285  43.291  0.00  0.00    -0.211 NA
ATOM      2  C   UNL d   1      46.253 -18.052  43.041  0.00  0.00     0.140 A 
ATOM      3  C   UNL d   1      46.343 -18.652  43.600  0.00  0.00     0.051 A 
ATOM      4  C   UNL d   1      45.917 -17.137  44.102  0.00  0.00     0.183 A 
ATOM      5  C   UNL d   1      46.221 -18.500  44.406  0.00  0.00     0.104 A 
ATOM      6  O   UNL d   1      46.009 -17.742  44.652  0.00  0.00    -0.289 OA
ATOM      7  S   UNL d   1      46.375 -18.208  42.241  0.00  0.00    -0.057 SA
ATOM      8  C   UNL d   1      46.558 -19.421  43.355  0.00  0.00     0.004 A 
ATOM      9  C   UNL d   1      46.311 -19.096  44.955  0.00  0.00     0.025 A 
ATOM     10  C   UNL d   1      46.647 -20.021  43.917  0.00  0.00     0.000 A 
ATOM     11  C   UNL d   1      46.523 -19.858  44.713  0.00  0.00     0.002 A 
ENDROOT
BRANCH   4  12
ATOM     12  C   UNL d   1      45.706 -16.381  44.343  0.00  0.00     0.041 A 
ATOM     13  C   UNL d   1      46.245 -15.765  44.298  0.00  0.00     0.004 A 
ATOM     14  C   UNL d   1      46.024 -15.011  44.542  0.00  0.00     0.000 A 
ATOM     15  C   UNL d   1      46.568 -14.391  44.496  0.00  0.00     0.000 C 
ATOM     16  C   UNL d   1      45.265 -14.870  44.833  0.00  0.00     0.000 A 
ATOM     17  C   UNL d   1      44.724 -15.494  44.877  0.00  0.00     0.000 A 
ATOM     18  C   UNL d   1      44.944 -16.251  44.632  0.00  0.00     0.004 A 
ENDBRANCH   4  12
TORSDOF 1
ENDMDL
MODEL 2
REMARK VINA RESULT:      19.5      1.482      3.980
REMARK  1 active torsions:
REMARK  status: ('A' for Active; 'I' for Inactive)
REMARK    1  A    between atoms: C_7  and  C_4 
ROOT
ATOM      1  N   UNL d   1      44.923 -16.099  44.637  0.00  0.00    -0.211 NA
ATOM      2  C   UNL d   1      44.697 -15.311  44.791  0.00  0.00     0.140 A 
ATOM      3  C   UNL d   1      45.265 -14.714  44.777  0.00  0.00     0.051 A 
ATOM      4  C   UNL d   1      45.721 -16.272  44.472  0.00  0.00     0.183 A 
ATOM      5  C   UNL d   1      46.059 -14.890  44.613  0.00  0.00     0.104 A 
ATOM      6  O   UNL d   1      46.282 -15.669  44.461  0.00  0.00    -0.289 OA
ATOM      7  S   UNL d   1      43.909 -15.131  44.955  0.00  0.00    -0.057 SA
ATOM      8  C   UNL d   1      45.044 -13.923  44.931  0.00  0.00     0.004 A 
ATOM      9  C   UNL d   1      46.618 -14.296  44.600  0.00  0.00     0.025 A 
ATOM     10  C   UNL d   1      45.616 -13.326  44.917  0.00  0.00     0.000 A 
ATOM     11  C   UNL d   1      46.399 -13.514  44.752  0.00  0.00     0.002 A 
ENDROOT
BRANCH   4  12
ATOM     12  C   UNL d   1      45.940 -17.049  44.321  0.00  0.00     0.041 A 
ATOM     13  C   UNL d   1      46.056 -17.305  43.551  0.00  0.00     0.004 A 
ATOM     14  C   UNL d   1      46.275 -18.086  43.410  0.00  0.00     0.000 A 
ATOM     15  C   UNL d   1      46.392 -18.343  42.633  0.00  0.00     0.000 C 
ATOM     16  C   UNL d   1      46.379 -18.612  44.036  0.00  0.00     0.000 A 
ATOM     17  C   UNL d   1      46.261 -18.349  44.811  0.00  0.00     0.000 A 
ATOM     18  C   UNL d   1      46.041 -17.567  44.955  0.00  0.00     0.004 A 
ENDBRANCH   4  12
TORSDOF 1
ENDMDL
