MODEL 1
REMARK VINA RESULT:     141.6      0.000      0.000
REMARK  4 active torsions:
REMARK  status: ('A' for Active; 'I' for Inactive)
REMARK    1  A    between atoms: C_8  and  C_1 
REMARK    2  A    between atoms: C_12  and  C_3 
REMARK    3  A    between atoms: N_10  and  C_8 
REMARK    4  A    between atoms: C_25  and  C_13 
ROOT
ATOM      1  C   UNL d   1      60.566  48.469  50.941  0.00  0.00     0.079 A 
ATOM      2  C   UNL d   1      61.211  47.298  50.440  0.00  0.00     0.062 A 
ATOM      3  C   UNL d   1      61.069  46.059  51.128  0.00  0.00     0.064 A 
ATOM      4  C   UNL d   1      60.733  47.666  51.004  0.00  0.00     0.108 A 
ATOM      5  C   UNL d   1      61.379  46.494  50.502  0.00  0.00     0.199 A 
ATOM      6  O   UNL d   1      60.424  47.229  51.629  0.00  0.00    -0.305 OA
ATOM      7  C   UNL d   1      60.591  46.426  51.692  0.00  0.00     0.126 A 
ATOM      8  C   UNL d   1      60.876  48.909  50.314  0.00  0.00     0.199 A 
ATOM      9  C   UNL d   1      61.521  47.734  49.814  0.00  0.00     0.008 A 
ATOM     10  C   UNL d   1      61.353  48.542  49.750  0.00  0.00     0.039 A 
ATOM     11  O   UNL d   1      61.857  46.127  49.939  0.00  0.00    -0.286 OA
ATOM     12  O   UNL d   1      60.713  49.705  50.248  0.00  0.00    -0.286 OA
ENDROOT
BRANCH   3  13
ATOM     13  C   UNL d   1      61.237  45.254  51.190  0.00  0.00     0.007 A 
ATOM     14  C   UNL d   1      61.786  44.898  50.673  0.00  0.00     0.027 A 
ATOM     15  C   UNL d   1      61.953  44.095  50.735  0.00  0.00     0.123 A 
ATOM     16  O   UNL d   1      62.497  43.749  50.222  0.00  0.00    -0.301 OA
ATOM     17  C   UNL d   1      61.577  43.641  51.312  0.00  0.00     0.123 A 
ATOM     18  C   UNL d   1      62.668  42.939  50.282  0.00  0.00     0.149 A 
ATOM     19  C   UNL d   1      62.286  42.483  50.865  0.00  0.00     0.149 A 
ATOM     20  O   UNL d   1      61.745  42.837  51.373  0.00  0.00    -0.301 OA
ATOM     21  C   UNL d   1      61.030  43.994  51.827  0.00  0.00     0.027 A 
ATOM     22  C   UNL d   1      60.862  44.797  51.766  0.00  0.00     0.002 A 
ENDBRANCH   3  13
BRANCH   1  23
ATOM     23  C   UNL d   1      60.088  48.836  51.505  0.00  0.00     0.085 C 
BRANCH  23  24
ATOM     24  N   UNL d   1      59.322  49.069  51.308  0.00  0.00    -0.304 N 
ATOM     25  C   UNL d   1      58.853  49.465  51.859  0.00  0.00     0.064 A 
ATOM     26  C   UNL d   1      59.152  49.628  52.608  0.00  0.00     0.019 C 
ATOM     27  C   UNL d   1      58.093  49.694  51.658  0.00  0.00     0.018 A 
ATOM     28  C   UNL d   1      57.791  49.529  50.899  0.00  0.00     0.003 A 
ATOM     29  C   UNL d   1      58.260  49.135  50.354  0.00  0.00     0.019 A 
ATOM     30  C   UNL d   1      59.026  48.902  50.551  0.00  0.00     0.080 A 
ENDBRANCH  23  24
ENDBRANCH   1  23
BRANCH  10  31
ATOM     31  C   UNL d   1      61.664  48.985  49.120  0.00  0.00     0.003 C 
ATOM     32  C   UNL d   1      61.320  49.706  48.917  0.00  0.00     0.000 C 
ENDBRANCH  10  31
TORSDOF 4
ENDMDL
