MODEL 1
REMARK VINA RESULT:      -9.4      0.000      0.000
REMARK  3 active torsions:
REMARK  status: ('A' for Active; 'I' for Inactive)
REMARK    1  A    between atoms: C_5  and  C_1 
REMARK       I    between atoms: N_7  and  C_5 
REMARK    2  A    between atoms: C_15  and  N_10 
REMARK    3  A    between atoms: C_21  and  C_15 
ROOT
ATOM      1  C   UNL d   1      52.730  33.837  53.395  0.00  0.00     0.270 C 
ATOM      2  N   UNL d   1      53.038  33.050  53.367  0.00  0.00    -0.270 N 
ATOM      3  N   UNL d   1      53.638  31.490  53.305  0.00  0.00    -0.300 N 
ATOM      4  O   UNL d   1      53.140  34.393  53.792  0.00  0.00    -0.269 OA
ATOM      5  C   UNL d   1      53.763  32.860  53.751  0.00  0.00     0.102 A 
ATOM      6  C   UNL d   1      52.606  32.471  52.951  0.00  0.00     0.102 A 
ATOM      7  C   UNL d   1      54.056  32.090  53.719  0.00  0.00     0.100 A 
ATOM      8  C   UNL d   1      52.914  31.680  52.921  0.00  0.00     0.100 A 
ENDROOT
BRANCH   1   9
ATOM      9  C   UNL d   1      52.049  34.015  53.034  0.00  0.00     0.191 A 
ATOM     10  O   UNL d   1      52.427  34.094  52.359  0.00  0.00    -0.293 OA
ATOM     11  C   UNL d   1      51.747  34.272  51.998  0.00  0.00     0.275 A 
ATOM     12  O   UNL d   1      51.522  34.459  51.248  0.00  0.00    -0.264 OA
ATOM     13  C   UNL d   1      51.347  34.197  52.677  0.00  0.00     0.099 A 
ATOM     14  C   UNL d   1      50.589  34.265  52.921  0.00  0.00     0.047 A 
ATOM     15  C   UNL d   1      50.785  34.388  52.164  0.00  0.00     0.014 C 
ATOM     16  C   UNL d   1      51.370  34.035  53.460  0.00  0.00    -0.019 A 
ATOM     17  C   UNL d   1      50.030  34.459  52.396  0.00  0.00     0.004 C 
ATOM     18  C   UNL d   1      50.204  34.186  53.608  0.00  0.00     0.004 C 
ATOM     19  C   UNL d   1      52.055  33.857  53.813  0.00  0.00     0.006 A 
ENDBRANCH   1   9
BRANCH   3  20
ATOM     20  C   UNL d   1      53.938  30.698  53.271  0.00  0.00     0.080 C 
BRANCH  20  21
ATOM     21  C   UNL d   1      53.534  30.076  53.667  0.00  0.00     0.018 A 
ATOM     22  C   UNL d   1      53.715  29.901  54.467  0.00  0.00     0.002 A 
ATOM     23  C   UNL d   1      53.314  29.277  54.875  0.00  0.00     0.000 A 
ATOM     24  C   UNL d   1      52.726  28.835  54.456  0.00  0.00     0.000 A 
ATOM     25  C   UNL d   1      52.544  29.011  53.653  0.00  0.00     0.000 A 
ATOM     26  C   UNL d   1      52.949  29.631  53.261  0.00  0.00     0.002 A 
ENDBRANCH  20  21
ENDBRANCH   3  20
TORSDOF 3
ENDMDL
MODEL 2
REMARK VINA RESULT:      -9.2      1.290      4.398
REMARK  3 active torsions:
REMARK  status: ('A' for Active; 'I' for Inactive)
REMARK    1  A    between atoms: C_5  and  C_1 
REMARK       I    between atoms: N_7  and  C_5 
REMARK    2  A    between atoms: C_15  and  N_10 
REMARK    3  A    between atoms: C_21  and  C_15 
ROOT
ATOM      1  C   UNL d   1      53.723  32.036  53.388  0.00  0.00     0.270 C 
ATOM      2  N   UNL d   1      53.146  32.652  53.371  0.00  0.00    -0.270 N 
ATOM      3  N   UNL d   1      51.993  33.865  53.337  0.00  0.00    -0.300 N 
ATOM      4  O   UNL d   1      54.495  32.236  53.382  0.00  0.00    -0.269 OA
ATOM      5  C   UNL d   1      53.381  33.460  53.348  0.00  0.00     0.102 A 
ATOM      6  C   UNL d   1      52.340  32.439  53.378  0.00  0.00     0.102 A 
ATOM      7  C   UNL d   1      52.811  34.055  53.331  0.00  0.00     0.100 A 
ATOM      8  C   UNL d   1      51.757  33.057  53.360  0.00  0.00     0.100 A 
ENDROOT
BRANCH   1   9
ATOM      9  C   UNL d   1      53.502  31.277  53.410  0.00  0.00     0.191 A 
ATOM     10  O   UNL d   1      53.360  31.296  52.645  0.00  0.00    -0.293 OA
ATOM     11  C   UNL d   1      53.139  30.537  52.667  0.00  0.00     0.275 A 
ATOM     12  O   UNL d   1      52.875  29.997  52.132  0.00  0.00    -0.264 OA
ATOM     13  C   UNL d   1      53.278  30.502  53.445  0.00  0.00     0.099 A 
ATOM     14  C   UNL d   1      53.227  29.953  54.025  0.00  0.00     0.047 A 
ATOM     15  C   UNL d   1      53.030  29.776  53.279  0.00  0.00     0.014 C 
ATOM     16  C   UNL d   1      53.518  30.881  54.107  0.00  0.00    -0.019 A 
ATOM     17  C   UNL d   1      52.975  29.224  53.846  0.00  0.00     0.004 C 
ATOM     18  C   UNL d   1      53.371  29.933  54.803  0.00  0.00     0.004 C 
ATOM     19  C   UNL d   1      53.738  31.640  54.077  0.00  0.00     0.006 A 
ENDBRANCH   1   9
BRANCH   3  20
ATOM     20  C   UNL d   1      51.405  34.475  53.320  0.00  0.00     0.080 C 
BRANCH  20  21
ATOM     21  C   UNL d   1      50.801  34.463  52.735  0.00  0.00     0.018 A 
ATOM     22  C   UNL d   1      51.004  34.391  51.924  0.00  0.00     0.002 A 
ATOM     23  C   UNL d   1      50.404  34.378  51.327  0.00  0.00     0.000 A 
ATOM     24  C   UNL d   1      49.595  34.440  51.569  0.00  0.00     0.000 A 
ATOM     25  C   UNL d   1      49.391  34.512  52.382  0.00  0.00     0.000 A 
ATOM     26  C   UNL d   1      49.995  34.523  52.964  0.00  0.00     0.002 A 
ENDBRANCH  20  21
ENDBRANCH   3  20
TORSDOF 3
ENDMDL
MODEL 3
REMARK VINA RESULT:      -9.1      1.957      4.404
REMARK  3 active torsions:
REMARK  status: ('A' for Active; 'I' for Inactive)
REMARK    1  A    between atoms: C_5  and  C_1 
REMARK       I    between atoms: N_7  and  C_5 
REMARK    2  A    between atoms: C_15  and  N_10 
REMARK    3  A    between atoms: C_21  and  C_15 
ROOT
ATOM      1  C   UNL d   1      53.311  32.431  53.682  0.00  0.00     0.270 C 
ATOM      2  N   UNL d   1      52.763  32.882  53.224  0.00  0.00    -0.270 N 
ATOM      3  N   UNL d   1      51.682  33.783  52.318  0.00  0.00    -0.300 N 
ATOM      4  O   UNL d   1      53.181  31.650  53.775  0.00  0.00    -0.269 OA
ATOM      5  C   UNL d   1      52.092  32.512  52.873  0.00  0.00     0.102 A 
ATOM      6  C   UNL d   1      52.903  33.698  53.128  0.00  0.00     0.102 A 
ATOM      7  C   UNL d   1      51.561  32.959  52.428  0.00  0.00     0.100 A 
ATOM      8  C   UNL d   1      52.353  34.152  52.668  0.00  0.00     0.100 A 
ENDROOT
BRANCH   1   9
ATOM      9  C   UNL d   1      53.942  32.778  54.011  0.00  0.00     0.191 A 
ATOM     10  O   UNL d   1      54.339  32.684  53.349  0.00  0.00    -0.293 OA
ATOM     11  C   UNL d   1      54.969  33.031  53.678  0.00  0.00     0.275 A 
ATOM     12  O   UNL d   1      55.717  33.216  53.441  0.00  0.00    -0.264 OA
ATOM     13  C   UNL d   1      54.579  33.134  54.358  0.00  0.00     0.099 A 
ATOM     14  C   UNL d   1      54.729  33.449  55.078  0.00  0.00     0.047 A 
ATOM     15  C   UNL d   1      55.282  33.445  54.512  0.00  0.00     0.014 C 
ATOM     16  C   UNL d   1      53.899  33.037  54.769  0.00  0.00    -0.019 A 
ATOM     17  C   UNL d   1      55.443  33.759  55.222  0.00  0.00     0.004 C 
ATOM     18  C   UNL d   1      54.324  33.545  55.751  0.00  0.00     0.004 C 
ATOM     19  C   UNL d   1      53.274  32.688  54.432  0.00  0.00     0.006 A 
ENDBRANCH   1   9
BRANCH   3  20
ATOM     20  C   UNL d   1      51.138  34.244  51.861  0.00  0.00     0.080 C 
BRANCH  20  21
ATOM     21  C   UNL d   1      50.399  34.473  52.189  0.00  0.00     0.018 A 
ATOM     22  C   UNL d   1      50.365  34.798  52.961  0.00  0.00     0.002 A 
ATOM     23  C   UNL d   1      49.625  35.032  53.301  0.00  0.00     0.000 A 
ATOM     24  C   UNL d   1      48.922  34.930  52.841  0.00  0.00     0.000 A 
ATOM     25  C   UNL d   1      48.956  34.604  52.066  0.00  0.00     0.000 A 
ATOM     26  C   UNL d   1      49.694  34.377  51.741  0.00  0.00     0.002 A 
ENDBRANCH  20  21
ENDBRANCH   3  20
TORSDOF 3
ENDMDL
MODEL 4
REMARK VINA RESULT:      -8.7      1.863      4.742
REMARK  3 active torsions:
REMARK  status: ('A' for Active; 'I' for Inactive)
REMARK    1  A    between atoms: C_5  and  C_1 
REMARK       I    between atoms: N_7  and  C_5 
REMARK    2  A    between atoms: C_15  and  N_10 
REMARK    3  A    between atoms: C_21  and  C_15 
ROOT
ATOM      1  C   UNL d   1      52.836  34.288  53.012  0.00  0.00     0.270 C 
ATOM      2  N   UNL d   1      52.003  34.231  52.886  0.00  0.00    -0.270 N 
ATOM      3  N   UNL d   1      50.351  34.113  52.645  0.00  0.00    -0.300 N 
ATOM      4  O   UNL d   1      53.288  34.611  52.440  0.00  0.00    -0.269 OA
ATOM      5  C   UNL d   1      51.658  34.510  52.170  0.00  0.00     0.102 A 
ATOM      6  C   UNL d   1      51.534  33.893  53.486  0.00  0.00     0.102 A 
ATOM      7  C   UNL d   1      50.844  34.451  52.054  0.00  0.00     0.100 A 
ATOM      8  C   UNL d   1      50.696  33.834  53.361  0.00  0.00     0.100 A 
ENDROOT
BRANCH   1   9
ATOM      9  C   UNL d   1      53.160  34.026  53.685  0.00  0.00     0.191 A 
ATOM     10  O   UNL d   1      53.018  34.713  54.021  0.00  0.00    -0.293 OA
ATOM     11  C   UNL d   1      53.342  34.451  54.693  0.00  0.00     0.275 A 
ATOM     12  O   UNL d   1      53.476  34.756  55.427  0.00  0.00    -0.264 OA
ATOM     13  C   UNL d   1      53.493  33.747  54.366  0.00  0.00     0.099 A 
ATOM     14  C   UNL d   1      53.826  33.056  54.591  0.00  0.00     0.047 A 
ATOM     15  C   UNL d   1      53.770  33.664  55.095  0.00  0.00     0.014 C 
ATOM     16  C   UNL d   1      53.449  33.279  53.719  0.00  0.00    -0.019 A 
ATOM     17  C   UNL d   1      54.102  32.983  55.330  0.00  0.00     0.004 C 
ATOM     18  C   UNL d   1      53.971  32.357  54.249  0.00  0.00     0.004 C 
ATOM     19  C   UNL d   1      53.123  33.549  53.050  0.00  0.00     0.006 A 
ENDBRANCH   1   9
BRANCH   3  20
ATOM     20  C   UNL d   1      49.514  34.051  52.529  0.00  0.00     0.080 C 
BRANCH  20  21
ATOM     21  C   UNL d   1      49.035  34.742  52.532  0.00  0.00     0.018 A 
ATOM     22  C   UNL d   1      48.941  35.185  53.237  0.00  0.00     0.002 A 
ATOM     23  C   UNL d   1      48.461  35.882  53.252  0.00  0.00     0.000 A 
ATOM     24  C   UNL d   1      48.077  36.120  52.536  0.00  0.00     0.000 A 
ATOM     25  C   UNL d   1      48.171  35.675  51.827  0.00  0.00     0.000 A 
ATOM     26  C   UNL d   1      48.649  34.987  51.827  0.00  0.00     0.002 A 
ENDBRANCH  20  21
ENDBRANCH   3  20
TORSDOF 3
ENDMDL
MODEL 5
REMARK VINA RESULT:      -8.6      1.392      1.864
REMARK  3 active torsions:
REMARK  status: ('A' for Active; 'I' for Inactive)
REMARK    1  A    between atoms: C_5  and  C_1 
REMARK       I    between atoms: N_7  and  C_5 
REMARK    2  A    between atoms: C_15  and  N_10 
REMARK    3  A    between atoms: C_21  and  C_15 
ROOT
ATOM      1  C   UNL d   1      54.143  33.183  53.486  0.00  0.00     0.270 C 
ATOM      2  N   UNL d   1      53.838  32.395  53.468  0.00  0.00    -0.270 N 
ATOM      3  N   UNL d   1      53.224  30.839  53.437  0.00  0.00    -0.300 N 
ATOM      4  O   UNL d   1      54.910  33.299  53.302  0.00  0.00    -0.269 OA
ATOM      5  C   UNL d   1      54.335  31.748  53.261  0.00  0.00     0.102 A 
ATOM      6  C   UNL d   1      53.036  32.277  53.661  0.00  0.00     0.102 A 
ATOM      7  C   UNL d   1      54.029  30.982  53.247  0.00  0.00     0.100 A 
ATOM      8  C   UNL d   1      52.727  31.486  53.644  0.00  0.00     0.100 A 
ENDROOT
BRANCH   1   9
ATOM      9  C   UNL d   1      53.676  33.791  53.680  0.00  0.00     0.191 A 
ATOM     10  O   UNL d   1      53.399  33.811  52.953  0.00  0.00    -0.293 OA
ATOM     11  C   UNL d   1      52.932  34.419  53.148  0.00  0.00     0.275 A 
ATOM     12  O   UNL d   1      52.391  34.878  52.766  0.00  0.00    -0.264 OA
ATOM     13  C   UNL d   1      53.204  34.412  53.891  0.00  0.00     0.099 A 
ATOM     14  C   UNL d   1      53.079  34.826  54.564  0.00  0.00     0.047 A 
ATOM     15  C   UNL d   1      52.687  35.002  53.900  0.00  0.00     0.014 C 
ATOM     16  C   UNL d   1      53.691  34.077  54.429  0.00  0.00    -0.019 A 
ATOM     17  C   UNL d   1      52.555  35.419  54.562  0.00  0.00     0.004 C 
ATOM     18  C   UNL d   1      53.361  34.805  55.303  0.00  0.00     0.004 C 
ATOM     19  C   UNL d   1      54.155  33.469  54.227  0.00  0.00     0.006 A 
ENDBRANCH   1   9
BRANCH   3  20
ATOM     20  C   UNL d   1      52.908  30.053  53.423  0.00  0.00     0.080 C 
BRANCH  20  21
ATOM     21  C   UNL d   1      53.101  29.509  54.034  0.00  0.00     0.018 A 
ATOM     22  C   UNL d   1      52.804  29.626  54.809  0.00  0.00     0.002 A 
ATOM     23  C   UNL d   1      52.992  29.084  55.432  0.00  0.00     0.000 A 
ATOM     24  C   UNL d   1      53.488  28.422  55.253  0.00  0.00     0.000 A 
ATOM     25  C   UNL d   1      53.786  28.304  54.474  0.00  0.00     0.000 A 
ATOM     26  C   UNL d   1      53.592  28.848  53.867  0.00  0.00     0.002 A 
ENDBRANCH  20  21
ENDBRANCH   3  20
TORSDOF 3
ENDMDL
