MODEL 1
REMARK VINA RESULT:      50.1      0.000      0.000
REMARK  2 active torsions:
REMARK  status: ('A' for Active; 'I' for Inactive)
REMARK    1  A    between atoms: N_4  and  C_2 
REMARK       I    between atoms: C_3  and  N_4 
REMARK    2  A    between atoms: C_5  and  C_3 
ROOT
ATOM      1  C   UNL d   1      59.993  49.310  51.967  0.00  0.00     0.282 C 
ATOM      2  N   UNL d   1      59.291  49.707  51.785  0.00  0.00    -0.182 NA
ATOM      3  O   UNL d   1      60.363  49.456  52.692  0.00  0.00    -0.265 OA
ENDROOT
BRANCH   1   4
ATOM      4  C   UNL d   1      60.312  48.776  51.421  0.00  0.00     0.069 A 
ATOM      5  C   UNL d   1      60.993  48.984  51.018  0.00  0.00     0.063 A 
ATOM      6  C   UNL d   1      61.315  48.454  50.472  0.00  0.00     0.023 A 
ATOM      7 CL   UNL d   1      61.360  49.705  51.146  0.00  0.00    -0.082 Cl
ATOM      8  C   UNL d   1      60.949  47.726  50.340  0.00  0.00     0.059 A 
ATOM      9  C   UNL d   1      60.267  47.529  50.750  0.00  0.00     0.012 A 
ATOM     10 CL   UNL d   1      61.280  47.192  49.784  0.00  0.00    -0.082 Cl
ATOM     11  C   UNL d   1      59.955  48.062  51.290  0.00  0.00     0.006 A 
ENDBRANCH   1   4
BRANCH   2  12
ATOM     12  C   UNL d   1      58.917  49.568  51.066  0.00  0.00     0.204 A 
ATOM     13  N   UNL d   1      58.149  49.273  50.970  0.00  0.00    -0.203 NA
ATOM     14  C   UNL d   1      57.991  49.218  50.154  0.00  0.00     0.174 A 
ATOM     15  S   UNL d   1      58.671  49.483  49.760  0.00  0.00    -0.018 SA
ATOM     16  S   UNL d   1      57.291  48.950  49.808  0.00  0.00    -0.050 SA
ATOM     17  S   UNL d   1      59.265  49.708  50.335  0.00  0.00    -0.010 SA
ENDBRANCH   2  12
TORSDOF 2
ENDMDL
MODEL 2
REMARK VINA RESULT:      51.9      1.433      1.843
REMARK  2 active torsions:
REMARK  status: ('A' for Active; 'I' for Inactive)
REMARK    1  A    between atoms: N_4  and  C_2 
REMARK       I    between atoms: C_3  and  N_4 
REMARK    2  A    between atoms: C_5  and  C_3 
ROOT
ATOM      1  C   UNL d   1      60.910  49.275  49.983  0.00  0.00     0.282 C 
ATOM      2  N   UNL d   1      60.218  49.613  49.681  0.00  0.00    -0.182 NA
ATOM      3  O   UNL d   1      61.595  49.272  49.519  0.00  0.00    -0.265 OA
ENDROOT
BRANCH   1   4
ATOM      4  C   UNL d   1      60.905  48.947  50.743  0.00  0.00     0.069 A 
ATOM      5  C   UNL d   1      61.182  48.183  50.845  0.00  0.00     0.063 A 
ATOM      6  C   UNL d   1      61.179  47.851  51.602  0.00  0.00     0.023 A 
ATOM      7 CL   UNL d   1      61.462  47.745  50.213  0.00  0.00    -0.082 Cl
ATOM      8  C   UNL d   1      60.897  48.290  52.242  0.00  0.00     0.059 A 
ATOM      9  C   UNL d   1      60.622  49.053  52.128  0.00  0.00     0.012 A 
ATOM     10 CL   UNL d   1      60.896  47.948  53.008  0.00  0.00    -0.082 Cl
ATOM     11  C   UNL d   1      60.630  49.374  51.373  0.00  0.00     0.006 A 
ENDBRANCH   1   4
BRANCH   2  12
ATOM     12  C   UNL d   1      59.534  49.619  50.137  0.00  0.00     0.204 A 
ATOM     13  N   UNL d   1      58.762  49.540  49.849  0.00  0.00    -0.203 NA
ATOM     14  C   UNL d   1      58.237  49.577  50.495  0.00  0.00     0.174 A 
ATOM     15  S   UNL d   1      58.702  49.680  51.175  0.00  0.00    -0.018 SA
ATOM     16  S   UNL d   1      57.415  49.522  50.462  0.00  0.00    -0.050 SA
ATOM     17  S   UNL d   1      59.529  49.708  50.954  0.00  0.00    -0.010 SA
ENDBRANCH   2  12
TORSDOF 2
ENDMDL
