MODEL 1
REMARK VINA RESULT:       6.7      0.000      0.000
REMARK  0 active torsions:
REMARK  status: ('A' for Active; 'I' for Inactive)
ROOT
ATOM      1  C   UNL d   1     -54.729-101.558 -36.938  0.00  0.00     0.020 A 
ATOM      2  N   UNL d   1     -54.728-101.351 -35.520  0.00  0.00    -0.242 NA
ATOM      3  C   UNL d   1     -54.761-102.371 -36.814  0.00  0.00     0.003 A 
ATOM      4  C   UNL d   1     -54.712-101.249 -37.701  0.00  0.00     0.013 A 
ATOM      5  C   UNL d   1     -54.777-102.880 -37.467  0.00  0.00     0.001 A 
ATOM      6  C   UNL d   1     -54.729-101.756 -38.345  0.00  0.00     0.058 A 
ATOM      7  C   UNL d   1     -54.761-102.574 -38.228  0.00  0.00     0.011 A 
ATOM      8  C   UNL d   1     -54.712-101.046 -36.286  0.00  0.00     0.099 A 
ATOM      9 CL   UNL d   1     -54.712-101.451 -39.108  0.00  0.00    -0.082 Cl
ATOM     10  C   UNL d   1     -54.761-102.169 -35.403  0.00  0.00     0.099 A 
ATOM     11  C   UNL d   1     -54.778-102.685 -36.051  0.00  0.00     0.021 A 
ENDROOT
TORSDOF 0
ENDMDL
