MODEL 1
REMARK VINA RESULT:      14.7      0.000      0.000
REMARK  2 active torsions:
REMARK  status: ('A' for Active; 'I' for Inactive)
REMARK    1  A    between atoms: C_6  and  C_1 
REMARK       I    between atoms: N_12  and  C_6 
REMARK    2  A    between atoms: O_15  and  C_13 
ROOT
ATOM      1  C   UNL d   1      45.076 -13.217  43.494  0.00  0.00     0.101 A 
ATOM      2  C   UNL d   1      45.675 -12.913  43.965  0.00  0.00     0.208 A 
ATOM      3  C   UNL d   1      44.922 -14.028  43.507  0.00  0.00     0.011 A 
ATOM      4  O   UNL d   1      46.126 -13.412  44.455  0.00  0.00    -0.288 OA
ATOM      5  C   UNL d   1      45.376 -14.524  43.999  0.00  0.00     0.025 A 
ATOM      6  C   UNL d   1      45.959 -14.224  44.458  0.00  0.00     0.102 A 
ATOM      7  N   UNL d   1      45.816 -12.114  43.942  0.00  0.00    -0.121 N 
ATOM      8  C   UNL d   1      45.202 -15.336  43.996  0.00  0.00     0.026 A 
ATOM      9  C   UNL d   1      46.422 -14.704  44.955  0.00  0.00     0.027 A 
ATOM     10  C   UNL d   1      45.666 -15.820  44.494  0.00  0.00     0.094 A 
ATOM     11  C   UNL d   1      46.252 -15.518  44.955  0.00  0.00     0.026 A 
ENDROOT
BRANCH   1  12
ATOM     12  C   UNL d   1      44.637 -12.714  43.013  0.00  0.00     0.283 C 
ATOM     13  O   UNL d   1      44.023 -12.340  43.296  0.00  0.00    -0.265 OA
ATOM     14  N   UNL d   1      44.822 -12.583  42.226  0.00  0.00    -0.205 NA
ATOM     15  C   UNL d   1      44.376 -12.080  41.763  0.00  0.00     0.123 C 
ENDBRANCH   1  12
BRANCH  10  16
ATOM     16  O   UNL d   1      45.564 -16.595  44.548  0.00  0.00    -0.328 OA
ATOM     17  C   UNL d   1      46.141 -17.195  44.719  0.00  0.00     0.181 C 
ENDBRANCH  10  16
TORSDOF 2
ENDMDL
MODEL 2
REMARK VINA RESULT:      15.3      4.344      6.102
REMARK  2 active torsions:
REMARK  status: ('A' for Active; 'I' for Inactive)
REMARK    1  A    between atoms: C_6  and  C_1 
REMARK       I    between atoms: N_12  and  C_6 
REMARK    2  A    between atoms: O_15  and  C_13 
ROOT
ATOM      1  C   UNL d   1      46.525 -18.991  43.524  0.00  0.00     0.101 A 
ATOM      2  C   UNL d   1      46.544 -19.810  43.547  0.00  0.00     0.208 A 
ATOM      3  C   UNL d   1      46.542 -18.605  42.794  0.00  0.00     0.011 A 
ATOM      4  O   UNL d   1      46.579 -20.256  42.845  0.00  0.00    -0.288 OA
ATOM      5  C   UNL d   1      46.577 -19.054  42.093  0.00  0.00     0.025 A 
ATOM      6  C   UNL d   1      46.595 -19.853  42.120  0.00  0.00     0.102 A 
ATOM      7  N   UNL d   1      46.527 -20.177  44.271  0.00  0.00    -0.121 N 
ATOM      8  C   UNL d   1      46.593 -18.644  41.372  0.00  0.00     0.026 A 
ATOM      9  C   UNL d   1      46.630 -20.317  41.430  0.00  0.00     0.027 A 
ATOM     10  C   UNL d   1      46.628 -19.108  40.678  0.00  0.00     0.094 A 
ATOM     11  C   UNL d   1      46.646 -19.911  40.704  0.00  0.00     0.026 A 
ENDROOT
BRANCH   1  12
ATOM     12  C   UNL d   1      46.491 -18.562  44.226  0.00  0.00     0.283 C 
ATOM     13  O   UNL d   1      46.612 -18.910  44.904  0.00  0.00    -0.265 OA
ATOM     14  N   UNL d   1      46.330 -17.759  44.244  0.00  0.00    -0.205 NA
ATOM     15  C   UNL d   1      46.299 -17.348  44.948  0.00  0.00     0.123 C 
ENDBRANCH   1  12
BRANCH  10  16
ATOM     16  O   UNL d   1      46.646 -18.796  39.959  0.00  0.00    -0.328 OA
ATOM     17  C   UNL d   1      46.528 -17.987  39.729  0.00  0.00     0.181 C 
ENDBRANCH  10  16
TORSDOF 2
ENDMDL
