MODEL 1
REMARK VINA RESULT:      -8.9      0.000      0.000
REMARK  3 active torsions:
REMARK  status: ('A' for Active; 'I' for Inactive)
REMARK    1  A    between atoms: C_11  and  C_4 
REMARK    2  A    between atoms: N_14  and  C_7 
REMARK    3  A    between atoms: C_10  and  C_12 
ROOT
ATOM      1  C   UNL d   1     -48.339  12.296  23.230  0.00  0.00     0.186 A 
ATOM      2  N   UNL d   1     -47.986  11.585  23.460  0.00  0.00    -0.193 N 
ATOM      3  N   UNL d   1     -47.865  12.942  23.002  0.00  0.00    -0.204 NA
ATOM      4  C   UNL d   1     -49.159  12.202  23.282  0.00  0.00     0.140 A 
ATOM      5  N   UNL d   1     -48.586  11.047  23.656  0.00  0.00    -0.058 NA
ATOM      6  N   UNL d   1     -49.314  11.430  23.545  0.00  0.00    -0.127 NA
ATOM      7  C   UNL d   1     -47.027  12.874  23.004  0.00  0.00     0.188 A 
ATOM      8  C   UNL d   1     -46.684  12.156  23.237  0.00  0.00     0.056 A 
ATOM      9  C   UNL d   1     -47.156  11.509  23.466  0.00  0.00     0.089 A 
ATOM     10  C   UNL d   1     -45.860  12.084  23.241  0.00  0.00     0.005 A 
ATOM     11  C   UNL d   1     -46.801  10.806  23.693  0.00  0.00     0.019 A 
ATOM     12  C   UNL d   1     -45.510  11.374  23.471  0.00  0.00     0.000 A 
ATOM     13  C   UNL d   1     -45.981  10.735  23.697  0.00  0.00     0.002 A 
ENDROOT
BRANCH   4  14
ATOM     14  C   UNL d   1     -49.723  12.780  23.102  0.00  0.00     0.022 A 
ATOM     15  C   UNL d   1     -49.952  12.895  22.319  0.00  0.00     0.005 A 
ATOM     16  C   UNL d   1     -50.512  13.467  22.134  0.00  0.00     0.071 A 
ATOM     17  C   UNL d   1     -50.845  13.927  22.731  0.00  0.00     0.004 A 
ATOM     18  C   UNL d   1     -50.611  13.808  23.521  0.00  0.00    -0.000 A 
ATOM     19  C   UNL d   1     -50.052  13.235  23.697  0.00  0.00     0.002 A 
BRANCH  16  20
ATOM     20  C   UNL d   1     -50.741  13.583  21.351  0.00  0.00     0.419 C 
ATOM     21  F   UNL d   1     -50.990  13.651  20.567  0.00  0.00    -0.166 F 
ATOM     22  F   UNL d   1     -50.452  14.348  21.351  0.00  0.00    -0.166 F 
ATOM     23  F   UNL d   1     -51.039  12.804  21.344  0.00  0.00    -0.166 F 
ENDBRANCH  16  20
ENDBRANCH   4  14
BRANCH   7  24
ATOM     24  N   UNL d   1     -46.556  13.513  22.778  0.00  0.00    -0.108 NA
ATOM     25  N   UNL d   1     -46.913  14.212  22.504  0.00  0.00    -0.021 N 
ENDBRANCH   7  24
TORSDOF 3
ENDMDL
MODEL 2
REMARK VINA RESULT:      -8.8      1.246      2.218
REMARK  3 active torsions:
REMARK  status: ('A' for Active; 'I' for Inactive)
REMARK    1  A    between atoms: C_11  and  C_4 
REMARK    2  A    between atoms: N_14  and  C_7 
REMARK    3  A    between atoms: C_10  and  C_12 
ROOT
ATOM      1  C   UNL d   1     -47.957  13.032  22.703  0.00  0.00     0.186 A 
ATOM      2  N   UNL d   1     -47.130  13.022  22.705  0.00  0.00    -0.193 N 
ATOM      3  N   UNL d   1     -48.380  12.396  23.034  0.00  0.00    -0.204 NA
ATOM      4  C   UNL d   1     -48.204  13.734  22.342  0.00  0.00     0.140 A 
ATOM      5  N   UNL d   1     -46.861  13.719  22.343  0.00  0.00    -0.058 NA
ATOM      6  N   UNL d   1     -47.527  14.160  22.119  0.00  0.00    -0.127 NA
ATOM      7  C   UNL d   1     -47.972  11.743  23.370  0.00  0.00     0.188 A 
ATOM      8  C   UNL d   1     -47.143  11.745  23.365  0.00  0.00     0.056 A 
ATOM      9  C   UNL d   1     -46.716  12.379  23.035  0.00  0.00     0.089 A 
ATOM     10  C   UNL d   1     -46.735  11.104  23.694  0.00  0.00     0.005 A 
ATOM     11  C   UNL d   1     -45.897  12.365  23.038  0.00  0.00     0.019 A 
ATOM     12  C   UNL d   1     -45.911  11.096  23.693  0.00  0.00     0.000 A 
ATOM     13  C   UNL d   1     -45.492  11.727  23.365  0.00  0.00     0.002 A 
ENDROOT
BRANCH   4  14
ATOM     14  C   UNL d   1     -48.988  13.966  22.226  0.00  0.00     0.022 A 
ATOM     15  C   UNL d   1     -49.321  14.538  22.716  0.00  0.00     0.005 A 
ATOM     16  C   UNL d   1     -50.100  14.774  22.606  0.00  0.00     0.071 A 
ATOM     17  C   UNL d   1     -50.552  14.437  22.004  0.00  0.00     0.004 A 
ATOM     18  C   UNL d   1     -50.212  13.859  21.511  0.00  0.00    -0.000 A 
ATOM     19  C   UNL d   1     -49.435  13.630  21.627  0.00  0.00     0.002 A 
BRANCH  16  20
ATOM     20  C   UNL d   1     -50.432  15.346  23.097  0.00  0.00     0.419 C 
ATOM     21  F   UNL d   1     -50.770  15.884  23.624  0.00  0.00    -0.166 F 
ATOM     22  F   UNL d   1     -50.366  15.920  22.517  0.00  0.00    -0.166 F 
ATOM     23  F   UNL d   1     -50.504  14.767  23.693  0.00  0.00    -0.166 F 
ENDBRANCH  16  20
ENDBRANCH   4  14
BRANCH   7  24
ATOM     24  N   UNL d   1     -48.391  11.112  23.698  0.00  0.00    -0.108 NA
ATOM     25  N   UNL d   1     -49.222  11.111  23.673  0.00  0.00    -0.021 N 
ENDBRANCH   7  24
TORSDOF 3
ENDMDL
MODEL 3
REMARK VINA RESULT:      -8.5      2.358      4.558
REMARK  3 active torsions:
REMARK  status: ('A' for Active; 'I' for Inactive)
REMARK    1  A    between atoms: C_11  and  C_4 
REMARK    2  A    between atoms: N_14  and  C_7 
REMARK    3  A    between atoms: C_10  and  C_12 
ROOT
ATOM      1  C   UNL d   1     -48.202  13.764  22.526  0.00  0.00     0.186 A 
ATOM      2  N   UNL d   1     -48.666  14.448  22.566  0.00  0.00    -0.193 N 
ATOM      3  N   UNL d   1     -48.540  13.048  22.267  0.00  0.00    -0.204 NA
ATOM      4  C   UNL d   1     -47.438  13.959  22.774  0.00  0.00     0.140 A 
ATOM      5  N   UNL d   1     -48.190  15.070  22.840  0.00  0.00    -0.058 NA
ATOM      6  N   UNL d   1     -47.428  14.766  22.969  0.00  0.00    -0.127 NA
ATOM      7  C   UNL d   1     -49.350  13.016  22.046  0.00  0.00     0.188 A 
ATOM      8  C   UNL d   1     -49.804  13.708  22.090  0.00  0.00     0.056 A 
ATOM      9  C   UNL d   1     -49.470  14.426  22.349  0.00  0.00     0.089 A 
ATOM     10  C   UNL d   1     -50.602  13.682  21.874  0.00  0.00     0.005 A 
ATOM     11  C   UNL d   1     -49.933  15.101  22.387  0.00  0.00     0.019 A 
ATOM     12  C   UNL d   1     -51.062  14.365  21.915  0.00  0.00     0.000 A 
ATOM     13  C   UNL d   1     -50.728  15.074  22.172  0.00  0.00     0.002 A 
ENDROOT
BRANCH   4  14
ATOM     14  C   UNL d   1     -46.798  13.437  22.819  0.00  0.00     0.022 A 
ATOM     15  C   UNL d   1     -46.191  13.489  22.265  0.00  0.00     0.005 A 
ATOM     16  C   UNL d   1     -45.552  12.974  22.304  0.00  0.00     0.071 A 
ATOM     17  C   UNL d   1     -45.518  12.403  22.898  0.00  0.00     0.004 A 
ATOM     18  C   UNL d   1     -46.134  12.354  23.456  0.00  0.00    -0.000 A 
ATOM     19  C   UNL d   1     -46.767  12.871  23.410  0.00  0.00     0.002 A 
BRANCH  16  20
ATOM     20  C   UNL d   1     -44.945  13.026  21.751  0.00  0.00     0.419 C 
ATOM     21  F   UNL d   1     -44.307  13.099  21.232  0.00  0.00    -0.166 F 
ATOM     22  F   UNL d   1     -45.408  12.681  21.170  0.00  0.00    -0.166 F 
ATOM     23  F   UNL d   1     -44.467  13.377  22.336  0.00  0.00    -0.166 F 
ENDBRANCH  16  20
ENDBRANCH   4  14
BRANCH   7  24
ATOM     24  N   UNL d   1     -49.684  12.307  21.789  0.00  0.00    -0.108 NA
ATOM     25  N   UNL d   1     -49.460  11.591  22.147  0.00  0.00    -0.021 N 
ENDBRANCH   7  24
TORSDOF 3
ENDMDL
MODEL 4
REMARK VINA RESULT:      -7.6      1.509      2.125
REMARK  3 active torsions:
REMARK  status: ('A' for Active; 'I' for Inactive)
REMARK    1  A    between atoms: C_11  and  C_4 
REMARK    2  A    between atoms: N_14  and  C_7 
REMARK    3  A    between atoms: C_10  and  C_12 
ROOT
ATOM      1  C   UNL d   1     -46.318  12.025  23.013  0.00  0.00     0.186 A 
ATOM      2  N   UNL d   1     -46.131  11.301  23.367  0.00  0.00    -0.193 N 
ATOM      3  N   UNL d   1     -45.722  12.468  22.635  0.00  0.00    -0.204 NA
ATOM      4  C   UNL d   1     -47.125  12.161  23.122  0.00  0.00     0.140 A 
ATOM      5  N   UNL d   1     -46.824  10.986  23.697  0.00  0.00    -0.058 NA
ATOM      6  N   UNL d   1     -47.441  11.520  23.545  0.00  0.00    -0.127 NA
ATOM      7  C   UNL d   1     -44.932  12.184  22.611  0.00  0.00     0.188 A 
ATOM      8  C   UNL d   1     -44.757  11.457  22.969  0.00  0.00     0.056 A 
ATOM      9  C   UNL d   1     -45.350  11.011  23.348  0.00  0.00     0.089 A 
ATOM     10  C   UNL d   1     -43.981  11.172  22.949  0.00  0.00     0.005 A 
ATOM     11  C   UNL d   1     -45.160  10.294  23.697  0.00  0.00     0.019 A 
ATOM     12  C   UNL d   1     -43.797  10.450  23.302  0.00  0.00     0.000 A 
ATOM     13  C   UNL d   1     -44.387  10.012  23.676  0.00  0.00     0.002 A 
ENDROOT
BRANCH   4  14
ATOM     14  C   UNL d   1     -47.543  12.823  22.854  0.00  0.00     0.022 A 
ATOM     15  C   UNL d   1     -48.076  12.745  22.232  0.00  0.00     0.005 A 
ATOM     16  C   UNL d   1     -48.494  13.398  21.962  0.00  0.00     0.071 A 
ATOM     17  C   UNL d   1     -48.380  14.135  22.313  0.00  0.00     0.004 A 
ATOM     18  C   UNL d   1     -47.839  14.211  22.942  0.00  0.00    -0.000 A 
ATOM     19  C   UNL d   1     -47.427  13.554  23.206  0.00  0.00     0.002 A 
BRANCH  16  20
ATOM     20  C   UNL d   1     -49.028  13.319  21.340  0.00  0.00     0.419 C 
ATOM     21  F   UNL d   1     -49.599  13.257  20.748  0.00  0.00    -0.166 F 
ATOM     22  F   UNL d   1     -48.442  13.049  20.836  0.00  0.00    -0.166 F 
ATOM     23  F   UNL d   1     -49.630  13.594  21.847  0.00  0.00    -0.166 F 
ENDBRANCH  16  20
ENDBRANCH   4  14
BRANCH   7  24
ATOM     24  N   UNL d   1     -44.342  12.623  22.237  0.00  0.00    -0.108 NA
ATOM     25  N   UNL d   1     -44.505  13.006  21.518  0.00  0.00    -0.021 N 
ENDBRANCH   7  24
TORSDOF 3
ENDMDL
MODEL 5
REMARK VINA RESULT:      -6.8      9.445     10.509
REMARK  3 active torsions:
REMARK  status: ('A' for Active; 'I' for Inactive)
REMARK    1  A    between atoms: C_11  and  C_4 
REMARK    2  A    between atoms: N_14  and  C_7 
REMARK    3  A    between atoms: C_10  and  C_12 
ROOT
ATOM      1  C   UNL d   1     -39.926  15.458  19.438  0.00  0.00     0.186 A 
ATOM      2  N   UNL d   1     -40.606  15.695  19.032  0.00  0.00    -0.193 N 
ATOM      3  N   UNL d   1     -39.256  15.203  19.014  0.00  0.00    -0.204 NA
ATOM      4  C   UNL d   1     -40.073  15.533  20.248  0.00  0.00     0.140 A 
ATOM      5  N   UNL d   1     -41.178  15.918  19.590  0.00  0.00    -0.058 NA
ATOM      6  N   UNL d   1     -40.848  15.818  20.344  0.00  0.00    -0.127 NA
ATOM      7  C   UNL d   1     -39.268  15.184  18.174  0.00  0.00     0.188 A 
ATOM      8  C   UNL d   1     -39.956  15.424  17.778  0.00  0.00     0.056 A 
ATOM      9  C   UNL d   1     -40.627  15.680  18.199  0.00  0.00     0.089 A 
ATOM     10  C   UNL d   1     -39.973  15.408  16.951  0.00  0.00     0.005 A 
ATOM     11  C   UNL d   1     -41.299  15.914  17.792  0.00  0.00     0.019 A 
ATOM     12  C   UNL d   1     -40.652  15.644  16.548  0.00  0.00     0.000 A 
ATOM     13  C   UNL d   1     -41.315  15.897  16.969  0.00  0.00     0.002 A 
ENDROOT
BRANCH   4  14
ATOM     14  C   UNL d   1     -39.539  15.355  20.854  0.00  0.00     0.022 A 
ATOM     15  C   UNL d   1     -39.542  14.604  21.191  0.00  0.00     0.005 A 
ATOM     16  C   UNL d   1     -39.014  14.421  21.793  0.00  0.00     0.071 A 
ATOM     17  C   UNL d   1     -38.480  14.989  22.061  0.00  0.00     0.004 A 
ATOM     18  C   UNL d   1     -38.480  15.747  21.717  0.00  0.00    -0.000 A 
ATOM     19  C   UNL d   1     -39.010  15.922  21.117  0.00  0.00     0.002 A 
BRANCH  16  20
ATOM     20  C   UNL d   1     -39.016  13.670  22.131  0.00  0.00     0.419 C 
ATOM     21  F   UNL d   1     -39.046  12.936  22.508  0.00  0.00    -0.166 F 
ATOM     22  F   UNL d   1     -38.573  13.362  21.516  0.00  0.00    -0.166 F 
ATOM     23  F   UNL d   1     -39.469  13.976  22.762  0.00  0.00    -0.166 F 
ENDBRANCH  16  20
ENDBRANCH   4  14
BRANCH   7  24
ATOM     24  N   UNL d   1     -38.604  14.931  17.753  0.00  0.00    -0.108 NA
ATOM     25  N   UNL d   1     -38.039  14.449  18.124  0.00  0.00    -0.021 N 
ENDBRANCH   7  24
TORSDOF 3
ENDMDL
MODEL 6
REMARK VINA RESULT:      -6.7      9.109     10.416
REMARK  3 active torsions:
REMARK  status: ('A' for Active; 'I' for Inactive)
REMARK    1  A    between atoms: C_11  and  C_4 
REMARK    2  A    between atoms: N_14  and  C_7 
REMARK    3  A    between atoms: C_10  and  C_12 
ROOT
ATOM      1  C   UNL d   1     -39.046  15.112  19.834  0.00  0.00     0.186 A 
ATOM      2  N   UNL d   1     -38.515  15.520  20.320  0.00  0.00    -0.193 N 
ATOM      3  N   UNL d   1     -39.684  14.698  20.172  0.00  0.00    -0.204 NA
ATOM      4  C   UNL d   1     -38.805  15.215  19.050  0.00  0.00     0.140 A 
ATOM      5  N   UNL d   1     -37.942  15.877  19.837  0.00  0.00    -0.058 NA
ATOM      6  N   UNL d   1     -38.122  15.688  19.050  0.00  0.00    -0.127 NA
ATOM      7  C   UNL d   1     -39.793  14.691  21.006  0.00  0.00     0.188 A 
ATOM      8  C   UNL d   1     -39.254  15.104  21.482  0.00  0.00     0.056 A 
ATOM      9  C   UNL d   1     -38.614  15.519  21.147  0.00  0.00     0.089 A 
ATOM     10  C   UNL d   1     -39.355  15.101  22.303  0.00  0.00     0.005 A 
ATOM     11  C   UNL d   1     -38.091  15.922  21.633  0.00  0.00     0.019 A 
ATOM     12  C   UNL d   1     -38.825  15.508  22.785  0.00  0.00     0.000 A 
ATOM     13  C   UNL d   1     -38.193  15.918  22.450  0.00  0.00     0.002 A 
ENDROOT
BRANCH   4  14
ATOM     14  C   UNL d   1     -39.181  14.899  18.385  0.00  0.00     0.022 A 
ATOM     15  C   UNL d   1     -39.770  15.332  18.006  0.00  0.00     0.005 A 
ATOM     16  C   UNL d   1     -40.147  15.025  17.345  0.00  0.00     0.071 A 
ATOM     17  C   UNL d   1     -39.938  14.280  17.058  0.00  0.00     0.004 A 
ATOM     18  C   UNL d   1     -39.342  13.845  17.445  0.00  0.00    -0.000 A 
ATOM     19  C   UNL d   1     -38.971  14.159  18.103  0.00  0.00     0.002 A 
BRANCH  16  20
ATOM     20  C   UNL d   1     -40.736  15.458  16.965  0.00  0.00     0.419 C 
ATOM     21  F   UNL d   1     -41.290  15.913  16.556  0.00  0.00    -0.166 F 
ATOM     22  F   UNL d   1     -41.319  15.127  17.434  0.00  0.00    -0.166 F 
ATOM     23  F   UNL d   1     -40.147  15.800  16.483  0.00  0.00    -0.166 F 
ENDBRANCH  16  20
ENDBRANCH   4  14
BRANCH   7  24
ATOM     24  N   UNL d   1     -40.425  14.280  21.341  0.00  0.00    -0.108 NA
ATOM     25  N   UNL d   1     -41.164  14.280  20.962  0.00  0.00    -0.021 N 
ENDBRANCH   7  24
TORSDOF 3
ENDMDL
MODEL 7
REMARK VINA RESULT:      -6.2      9.447     10.850
REMARK  3 active torsions:
REMARK  status: ('A' for Active; 'I' for Inactive)
REMARK    1  A    between atoms: C_11  and  C_4 
REMARK    2  A    between atoms: N_14  and  C_7 
REMARK    3  A    between atoms: C_10  and  C_12 
ROOT
ATOM      1  C   UNL d   1     -39.105  15.217  19.212  0.00  0.00     0.186 A 
ATOM      2  N   UNL d   1     -38.636  15.460  18.576  0.00  0.00    -0.193 N 
ATOM      3  N   UNL d   1     -39.799  14.778  19.072  0.00  0.00    -0.204 NA
ATOM      4  C   UNL d   1     -38.751  15.486  19.909  0.00  0.00     0.140 A 
ATOM      5  N   UNL d   1     -37.988  15.883  18.878  0.00  0.00    -0.058 NA
ATOM      6  N   UNL d   1     -38.060  15.898  19.704  0.00  0.00    -0.127 NA
ATOM      7  C   UNL d   1     -40.026  14.580  18.288  0.00  0.00     0.188 A 
ATOM      8  C   UNL d   1     -39.547  14.831  17.659  0.00  0.00     0.056 A 
ATOM      9  C   UNL d   1     -38.853  15.270  17.795  0.00  0.00     0.089 A 
ATOM     10  C   UNL d   1     -39.765  14.640  16.884  0.00  0.00     0.005 A 
ATOM     11  C   UNL d   1     -38.391  15.509  17.161  0.00  0.00     0.019 A 
ATOM     12  C   UNL d   1     -39.296  14.884  16.252  0.00  0.00     0.000 A 
ATOM     13  C   UNL d   1     -38.609  15.319  16.391  0.00  0.00     0.002 A 
ENDROOT
BRANCH   4  14
ATOM     14  C   UNL d   1     -39.039  15.364  20.674  0.00  0.00     0.022 A 
ATOM     15  C   UNL d   1     -38.835  14.678  21.082  0.00  0.00     0.005 A 
ATOM     16  C   UNL d   1     -39.117  14.550  21.842  0.00  0.00     0.071 A 
ATOM     17  C   UNL d   1     -39.606  15.110  22.200  0.00  0.00     0.004 A 
ATOM     18  C   UNL d   1     -39.810  15.802  21.785  0.00  0.00    -0.000 A 
ATOM     19  C   UNL d   1     -39.524  15.921  21.027  0.00  0.00     0.002 A 
BRANCH  16  20
ATOM     20  C   UNL d   1     -38.913  13.864  22.250  0.00  0.00     0.419 C 
ATOM     21  F   UNL d   1     -38.751  13.155  22.640  0.00  0.00    -0.166 F 
ATOM     22  F   UNL d   1     -38.228  14.207  22.538  0.00  0.00    -0.166 F 
ATOM     23  F   UNL d   1     -39.609  13.508  21.960  0.00  0.00    -0.166 F 
ENDBRANCH  16  20
ENDBRANCH   4  14
BRANCH   7  24
ATOM     24  N   UNL d   1     -40.713  14.146  18.149  0.00  0.00    -0.108 NA
ATOM     25  N   UNL d   1     -41.279  14.063  18.752  0.00  0.00    -0.021 N 
ENDBRANCH   7  24
TORSDOF 3
ENDMDL
MODEL 8
REMARK VINA RESULT:      -6.2      9.393     10.828
REMARK  3 active torsions:
REMARK  status: ('A' for Active; 'I' for Inactive)
REMARK    1  A    between atoms: C_11  and  C_4 
REMARK    2  A    between atoms: N_14  and  C_7 
REMARK    3  A    between atoms: C_10  and  C_12 
ROOT
ATOM      1  C   UNL d   1     -39.016  15.115  19.750  0.00  0.00     0.186 A 
ATOM      2  N   UNL d   1     -38.540  15.532  20.282  0.00  0.00    -0.193 N 
ATOM      3  N   UNL d   1     -39.662  14.670  20.030  0.00  0.00    -0.204 NA
ATOM      4  C   UNL d   1     -38.720  15.243  18.989  0.00  0.00     0.140 A 
ATOM      5  N   UNL d   1     -37.947  15.920  19.852  0.00  0.00    -0.058 NA
ATOM      6  N   UNL d   1     -38.058  15.741  19.049  0.00  0.00    -0.127 NA
ATOM      7  C   UNL d   1     -39.833  14.642  20.853  0.00  0.00     0.188 A 
ATOM      8  C   UNL d   1     -39.348  15.064  21.376  0.00  0.00     0.056 A 
ATOM      9  C   UNL d   1     -38.702  15.510  21.099  0.00  0.00     0.089 A 
ATOM     10  C   UNL d   1     -39.512  15.040  22.187  0.00  0.00     0.005 A 
ATOM     11  C   UNL d   1     -38.233  15.922  21.631  0.00  0.00     0.019 A 
ATOM     12  C   UNL d   1     -39.037  15.457  22.715  0.00  0.00     0.000 A 
ATOM     13  C   UNL d   1     -38.397  15.898  22.437  0.00  0.00     0.002 A 
ENDROOT
BRANCH   4  14
ATOM     14  C   UNL d   1     -39.032  14.927  18.291  0.00  0.00     0.022 A 
ATOM     15  C   UNL d   1     -38.699  14.248  17.966  0.00  0.00     0.005 A 
ATOM     16  C   UNL d   1     -39.004  13.930  17.273  0.00  0.00     0.071 A 
ATOM     17  C   UNL d   1     -39.645  14.290  16.901  0.00  0.00     0.004 A 
ATOM     18  C   UNL d   1     -39.979  14.977  17.232  0.00  0.00    -0.000 A 
ATOM     19  C   UNL d   1     -39.669  15.288  17.923  0.00  0.00     0.002 A 
BRANCH  16  20
ATOM     20  C   UNL d   1     -38.671  13.250  16.948  0.00  0.00     0.419 C 
ATOM     21  F   UNL d   1     -38.305  12.599  16.597  0.00  0.00    -0.166 F 
ATOM     22  F   UNL d   1     -39.191  12.768  17.356  0.00  0.00    -0.166 F 
ATOM     23  F   UNL d   1     -38.137  13.735  16.530  0.00  0.00    -0.166 F 
ENDBRANCH  16  20
ENDBRANCH   4  14
BRANCH   7  24
ATOM     24  N   UNL d   1     -40.473  14.201  21.131  0.00  0.00    -0.108 NA
ATOM     25  N   UNL d   1     -41.186  14.193  20.704  0.00  0.00    -0.021 N 
ENDBRANCH   7  24
TORSDOF 3
ENDMDL
MODEL 9
REMARK VINA RESULT:      -6.0      8.165      9.850
REMARK  3 active torsions:
REMARK  status: ('A' for Active; 'I' for Inactive)
REMARK    1  A    between atoms: C_11  and  C_4 
REMARK    2  A    between atoms: N_14  and  C_7 
REMARK    3  A    between atoms: C_10  and  C_12 
ROOT
ATOM      1  C   UNL d   1     -40.076  15.164  18.632  0.00  0.00     0.186 A 
ATOM      2  N   UNL d   1     -39.335  15.116  18.268  0.00  0.00    -0.193 N 
ATOM      3  N   UNL d   1     -40.764  15.229  18.167  0.00  0.00    -0.204 NA
ATOM      4  C   UNL d   1     -39.962  15.134  19.450  0.00  0.00     0.140 A 
ATOM      5  N   UNL d   1     -38.757  15.056  18.861  0.00  0.00    -0.058 NA
ATOM      6  N   UNL d   1     -39.146  15.067  19.594  0.00  0.00    -0.127 NA
ATOM      7  C   UNL d   1     -40.709  15.246  17.328  0.00  0.00     0.188 A 
ATOM      8  C   UNL d   1     -39.960  15.197  16.976  0.00  0.00     0.056 A 
ATOM      9  C   UNL d   1     -39.270  15.132  17.438  0.00  0.00     0.089 A 
ATOM     10  C   UNL d   1     -39.900  15.213  16.151  0.00  0.00     0.005 A 
ATOM     11  C   UNL d   1     -38.538  15.084  17.073  0.00  0.00     0.019 A 
ATOM     12  C   UNL d   1     -39.161  15.165  15.790  0.00  0.00     0.000 A 
ATOM     13  C   UNL d   1     -38.480  15.101  16.252  0.00  0.00     0.002 A 
ENDROOT
BRANCH   4  14
ATOM     14  C   UNL d   1     -40.558  15.166  20.022  0.00  0.00     0.022 A 
ATOM     15  C   UNL d   1     -40.856  14.467  20.339  0.00  0.00     0.005 A 
ATOM     16  C   UNL d   1     -41.448  14.491  20.908  0.00  0.00     0.071 A 
ATOM     17  C   UNL d   1     -41.746  15.217  21.162  0.00  0.00     0.004 A 
ATOM     18  C   UNL d   1     -41.443  15.921  20.839  0.00  0.00    -0.000 A 
ATOM     19  C   UNL d   1     -40.852  15.888  20.272  0.00  0.00     0.002 A 
BRANCH  16  20
ATOM     20  C   UNL d   1     -41.746  13.792  21.225  0.00  0.00     0.419 C 
ATOM     21  F   UNL d   1     -42.091  13.108  21.532  0.00  0.00    -0.166 F 
ATOM     22  F   UNL d   1     -40.995  13.528  21.416  0.00  0.00    -0.166 F 
ATOM     23  F   UNL d   1     -42.514  14.055  21.034  0.00  0.00    -0.166 F 
ENDBRANCH  16  20
ENDBRANCH   4  14
BRANCH   7  24
ATOM     24  N   UNL d   1     -41.390  15.310  16.867  0.00  0.00    -0.108 NA
ATOM     25  N   UNL d   1     -42.005  15.815  17.106  0.00  0.00    -0.021 N 
ENDBRANCH   7  24
TORSDOF 3
ENDMDL
