MODEL 1
REMARK VINA RESULT:      -5.7      0.000      0.000
REMARK  11 active torsions:
REMARK  status: ('A' for Active; 'I' for Inactive)
REMARK    1  A    between atoms: C_8  and  C_1 
REMARK    2  A    between atoms: C_6  and  N_7 
REMARK    3  A    between atoms: N_19  and  C_6 
REMARK    4  A    between atoms: N_7  and  C_14 
REMARK    5  A    between atoms: C_11  and  N_7 
REMARK    6  A    between atoms: C_14  and  C_8 
REMARK    7  A    between atoms: C_9  and  C_11 
REMARK    8  A    between atoms: C_25  and  N_19 
REMARK    9  A    between atoms: O_23  and  C_20 
REMARK   10  A    between atoms: O_24  and  C_26 
REMARK   11  A    between atoms: C_26  and  C_25 
ROOT
ATOM      1  N   UNL d   1      52.144  33.867  53.234  0.00  0.00    -0.279 N 
ENDROOT
BRANCH   1   2
ATOM      2  C   UNL d   1      51.340  33.816  53.068  0.00  0.00     0.206 C 
ATOM      3  S   UNL d   1      50.824  33.490  53.629  0.00  0.00    -0.038 SA
BRANCH   2   4
ATOM      4  N   UNL d   1      51.046  34.088  52.345  0.00  0.00    -0.215 NA
BRANCH   4   5
ATOM      5  C   UNL d   1      50.232  34.077  52.209  0.00  0.00     0.128 C 
BRANCH   5   6
ATOM      6  C   UNL d   1      49.930  34.324  51.485  0.00  0.00     0.137 C 
BRANCH   6   7
ATOM      7  O   UNL d   1      49.128  34.496  51.414  0.00  0.00    -0.325 OA
ATOM      8  C   UNL d   1      48.797  34.598  50.674  0.00  0.00     0.182 C 
ENDBRANCH   6   7
ENDBRANCH   5   6
ENDBRANCH   4   5
ENDBRANCH   2   4
ENDBRANCH   1   2
BRANCH   1   9
ATOM      9  C   UNL d   1      52.562  33.190  53.488  0.00  0.00     0.082 C 
BRANCH   9  10
ATOM     10  C   UNL d   1      52.951  32.709  52.936  0.00  0.00     0.021 C 
BRANCH  10  11
ATOM     11  C   UNL d   1      53.416  32.080  53.188  0.00  0.00     0.021 A 
ATOM     12  C   UNL d   1      54.226  32.115  53.395  0.00  0.00     0.082 A 
ATOM     13  N   UNL d   1      54.462  31.357  53.613  0.00  0.00    -0.246 NA
ATOM     14  C   UNL d   1      54.698  32.795  53.379  0.00  0.00     0.021 C 
ATOM     15  C   UNL d   1      53.815  30.849  53.548  0.00  0.00     0.082 A 
ATOM     16  C   UNL d   1      53.171  31.301  53.284  0.00  0.00     0.021 A 
ATOM     17  C   UNL d   1      53.725  30.043  53.690  0.00  0.00     0.021 A 
ATOM     18  C   UNL d   1      52.444  30.934  53.168  0.00  0.00     0.026 A 
ATOM     19  C   UNL d   1      52.352  30.125  53.311  0.00  0.00     0.094 A 
ATOM     20  C   UNL d   1      53.000  29.685  53.573  0.00  0.00     0.026 A 
BRANCH  19  21
ATOM     21  O   UNL d   1      51.621  29.760  53.193  0.00  0.00    -0.328 OA
ATOM     22  C   UNL d   1      51.150  29.567  53.849  0.00  0.00     0.181 C 
ENDBRANCH  19  21
ENDBRANCH  10  11
ENDBRANCH   9  10
ENDBRANCH   1   9
BRANCH   1  23
ATOM     23  C   UNL d   1      52.534  34.585  53.149  0.00  0.00     0.107 C 
BRANCH  23  24
ATOM     24  C   UNL d   1      52.747  35.024  53.824  0.00  0.00     0.118 A 
ATOM     25  O   UNL d   1      52.535  34.850  54.607  0.00  0.00    -0.304 OA
ATOM     26  C   UNL d   1      52.866  35.430  55.096  0.00  0.00     0.123 A 
ATOM     27  C   UNL d   1      53.275  35.952  54.620  0.00  0.00     0.029 A 
ATOM     28  C   UNL d   1      53.197  35.694  53.833  0.00  0.00     0.028 A 
ENDBRANCH  23  24
ENDBRANCH   1  23
TORSDOF 11
ENDMDL
MODEL 2
REMARK VINA RESULT:      -4.5      1.718      4.632
REMARK  11 active torsions:
REMARK  status: ('A' for Active; 'I' for Inactive)
REMARK    1  A    between atoms: C_8  and  C_1 
REMARK    2  A    between atoms: C_6  and  N_7 
REMARK    3  A    between atoms: N_19  and  C_6 
REMARK    4  A    between atoms: N_7  and  C_14 
REMARK    5  A    between atoms: C_11  and  N_7 
REMARK    6  A    between atoms: C_14  and  C_8 
REMARK    7  A    between atoms: C_9  and  C_11 
REMARK    8  A    between atoms: C_25  and  N_19 
REMARK    9  A    between atoms: O_23  and  C_20 
REMARK   10  A    between atoms: O_24  and  C_26 
REMARK   11  A    between atoms: C_26  and  C_25 
ROOT
ATOM      1  N   UNL d   1      53.670  31.936  53.650  0.00  0.00    -0.279 N 
ENDROOT
BRANCH   1   2
ATOM      2  C   UNL d   1      53.710  31.121  53.542  0.00  0.00     0.206 C 
ATOM      3  S   UNL d   1      54.080  30.813  52.867  0.00  0.00    -0.038 SA
BRANCH   2   4
ATOM      4  N   UNL d   1      53.383  30.610  54.103  0.00  0.00    -0.215 NA
BRANCH   4   5
ATOM      5  C   UNL d   1      53.496  29.796  54.025  0.00  0.00     0.128 C 
BRANCH   5   6
ATOM      6  C   UNL d   1      53.144  29.277  54.556  0.00  0.00     0.137 C 
BRANCH   6   7
ATOM      7  O   UNL d   1      53.449  28.517  54.647  0.00  0.00    -0.325 OA
ATOM      8  C   UNL d   1      53.447  28.163  55.384  0.00  0.00     0.182 C 
ENDBRANCH   6   7
ENDBRANCH   5   6
ENDBRANCH   4   5
ENDBRANCH   2   4
ENDBRANCH   1   2
BRANCH   1   9
ATOM      9  C   UNL d   1      52.927  32.311  53.724  0.00  0.00     0.082 C 
BRANCH   9  10
ATOM     10  C   UNL d   1      52.533  32.591  53.051  0.00  0.00     0.021 C 
BRANCH  10  11
ATOM     11  C   UNL d   1      51.815  32.984  53.124  0.00  0.00     0.021 A 
ATOM     12  C   UNL d   1      51.055  32.643  53.041  0.00  0.00     0.082 A 
ATOM     13  N   UNL d   1      50.499  33.240  53.159  0.00  0.00    -0.246 NA
ATOM     14  C   UNL d   1      50.899  31.849  52.871  0.00  0.00     0.021 C 
ATOM     15  C   UNL d   1      50.897  33.946  53.314  0.00  0.00     0.082 A 
ATOM     16  C   UNL d   1      51.710  33.783  53.291  0.00  0.00     0.021 A 
ATOM     17  C   UNL d   1      50.632  34.709  53.471  0.00  0.00     0.021 A 
ATOM     18  C   UNL d   1      52.246  34.391  53.426  0.00  0.00     0.026 A 
ATOM     19  C   UNL d   1      51.982  35.159  53.585  0.00  0.00     0.094 A 
ATOM     20  C   UNL d   1      51.170  35.309  53.605  0.00  0.00     0.026 A 
BRANCH  19  21
ATOM     21  O   UNL d   1      52.523  35.767  53.721  0.00  0.00    -0.328 OA
ATOM     22  C   UNL d   1      52.704  35.986  54.500  0.00  0.00     0.181 C 
ENDBRANCH  19  21
ENDBRANCH  10  11
ENDBRANCH   9  10
ENDBRANCH   1   9
BRANCH   1  23
ATOM     23  C   UNL d   1      54.360  32.378  53.685  0.00  0.00     0.107 C 
BRANCH  23  24
ATOM     24  C   UNL d   1      54.567  32.770  54.391  0.00  0.00     0.118 A 
ATOM     25  O   UNL d   1      54.246  32.626  55.142  0.00  0.00    -0.304 OA
ATOM     26  C   UNL d   1      54.611  33.139  55.678  0.00  0.00     0.123 A 
ATOM     27  C   UNL d   1      55.148  33.592  55.262  0.00  0.00     0.029 A 
ATOM     28  C   UNL d   1      55.116  33.358  54.465  0.00  0.00     0.028 A 
ENDBRANCH  23  24
ENDBRANCH   1  23
TORSDOF 11
ENDMDL
MODEL 3
REMARK VINA RESULT:      -4.3      1.807      4.972
REMARK  11 active torsions:
REMARK  status: ('A' for Active; 'I' for Inactive)
REMARK    1  A    between atoms: C_8  and  C_1 
REMARK    2  A    between atoms: C_6  and  N_7 
REMARK    3  A    between atoms: N_19  and  C_6 
REMARK    4  A    between atoms: N_7  and  C_14 
REMARK    5  A    between atoms: C_11  and  N_7 
REMARK    6  A    between atoms: C_14  and  C_8 
REMARK    7  A    between atoms: C_9  and  C_11 
REMARK    8  A    between atoms: C_25  and  N_19 
REMARK    9  A    between atoms: O_23  and  C_20 
REMARK   10  A    between atoms: O_24  and  C_26 
REMARK   11  A    between atoms: C_26  and  C_25 
ROOT
ATOM      1  N   UNL d   1      51.540  33.964  53.224  0.00  0.00    -0.279 N 
ENDROOT
BRANCH   1   2
ATOM      2  C   UNL d   1      51.989  33.363  52.886  0.00  0.00     0.206 C 
ATOM      3  S   UNL d   1      52.494  33.534  52.251  0.00  0.00    -0.038 SA
BRANCH   2   4
ATOM      4  N   UNL d   1      51.939  32.591  53.178  0.00  0.00    -0.215 NA
BRANCH   4   5
ATOM      5  C   UNL d   1      52.420  32.004  52.855  0.00  0.00     0.128 C 
BRANCH   5   6
ATOM      6  C   UNL d   1      52.357  31.227  53.116  0.00  0.00     0.137 C 
BRANCH   6   7
ATOM      7  O   UNL d   1      52.905  30.666  52.866  0.00  0.00    -0.325 OA
ATOM      8  C   UNL d   1      52.966  29.953  53.260  0.00  0.00     0.182 C 
ENDBRANCH   6   7
ENDBRANCH   5   6
ENDBRANCH   4   5
ENDBRANCH   2   4
ENDBRANCH   1   2
BRANCH   1   9
ATOM      9  C   UNL d   1      50.960  34.358  52.769  0.00  0.00     0.082 C 
BRANCH   9  10
ATOM     10  C   UNL d   1      50.156  34.193  52.885  0.00  0.00     0.021 C 
BRANCH  10  11
ATOM     11  C   UNL d   1      49.584  34.598  52.458  0.00  0.00     0.021 A 
ATOM     12  C   UNL d   1      49.444  34.536  51.635  0.00  0.00     0.082 A 
ATOM     13  N   UNL d   1      48.820  35.040  51.448  0.00  0.00    -0.246 NA
ATOM     14  C   UNL d   1      49.863  34.052  51.111  0.00  0.00     0.021 C 
ATOM     15  C   UNL d   1      48.566  35.415  52.138  0.00  0.00     0.082 A 
ATOM     16  C   UNL d   1      49.042  35.139  52.760  0.00  0.00     0.021 A 
ATOM     17  C   UNL d   1      47.973  35.967  52.284  0.00  0.00     0.021 A 
ATOM     18  C   UNL d   1      48.912  35.422  53.521  0.00  0.00     0.026 A 
ATOM     19  C   UNL d   1      48.316  35.976  53.669  0.00  0.00     0.094 A 
ATOM     20  C   UNL d   1      47.850  36.244  53.042  0.00  0.00     0.026 A 
BRANCH  19  21
ATOM     21  O   UNL d   1      48.190  36.258  54.434  0.00  0.00    -0.328 OA
ATOM     22  C   UNL d   1      47.426  36.487  54.664  0.00  0.00     0.181 C 
ENDBRANCH  19  21
ENDBRANCH  10  11
ENDBRANCH   9  10
ENDBRANCH   1   9
BRANCH   1  23
ATOM     23  C   UNL d   1      51.663  34.175  54.008  0.00  0.00     0.107 C 
BRANCH  23  24
ATOM     24  C   UNL d   1      52.249  34.734  54.201  0.00  0.00     0.118 A 
ATOM     25  O   UNL d   1      52.321  35.496  53.881  0.00  0.00    -0.304 OA
ATOM     26  C   UNL d   1      52.979  35.858  54.229  0.00  0.00     0.123 A 
ATOM     27  C   UNL d   1      53.305  35.325  54.755  0.00  0.00     0.029 A 
ATOM     28  C   UNL d   1      52.848  34.631  54.732  0.00  0.00     0.028 A 
ENDBRANCH  23  24
ENDBRANCH   1  23
TORSDOF 11
ENDMDL
MODEL 4
REMARK VINA RESULT:      -4.3      1.622      2.132
REMARK  11 active torsions:
REMARK  status: ('A' for Active; 'I' for Inactive)
REMARK    1  A    between atoms: C_8  and  C_1 
REMARK    2  A    between atoms: C_6  and  N_7 
REMARK    3  A    between atoms: N_19  and  C_6 
REMARK    4  A    between atoms: N_7  and  C_14 
REMARK    5  A    between atoms: C_11  and  N_7 
REMARK    6  A    between atoms: C_14  and  C_8 
REMARK    7  A    between atoms: C_9  and  C_11 
REMARK    8  A    between atoms: C_25  and  N_19 
REMARK    9  A    between atoms: O_23  and  C_20 
REMARK   10  A    between atoms: O_24  and  C_26 
REMARK   11  A    between atoms: C_26  and  C_25 
ROOT
ATOM      1  N   UNL d   1      52.946  32.973  53.774  0.00  0.00    -0.279 N 
ENDROOT
BRANCH   1   2
ATOM      2  C   UNL d   1      52.517  33.498  53.306  0.00  0.00     0.206 C 
ATOM      3  S   UNL d   1      52.868  33.830  52.633  0.00  0.00    -0.038 SA
BRANCH   2   4
ATOM      4  N   UNL d   1      51.740  33.694  53.506  0.00  0.00    -0.215 NA
BRANCH   4   5
ATOM      5  C   UNL d   1      51.287  34.143  52.982  0.00  0.00     0.128 C 
BRANCH   5   6
ATOM      6  C   UNL d   1      50.523  34.368  53.183  0.00  0.00     0.137 C 
BRANCH   6   7
ATOM      7  O   UNL d   1      49.983  34.555  52.590  0.00  0.00    -0.325 OA
ATOM      8  C   UNL d   1      49.290  34.945  52.778  0.00  0.00     0.182 C 
ENDBRANCH   6   7
ENDBRANCH   5   6
ENDBRANCH   4   5
ENDBRANCH   2   4
ENDBRANCH   1   2
BRANCH   1   9
ATOM      9  C   UNL d   1      53.139  32.215  53.481  0.00  0.00     0.082 C 
BRANCH   9  10
ATOM     10  C   UNL d   1      52.651  31.566  53.648  0.00  0.00     0.021 C 
BRANCH  10  11
ATOM     11  C   UNL d   1      52.887  30.806  53.446  0.00  0.00     0.021 A 
ATOM     12  C   UNL d   1      52.995  30.511  52.670  0.00  0.00     0.082 A 
ATOM     13  N   UNL d   1      53.233  29.725  52.731  0.00  0.00    -0.246 NA
ATOM     14  C   UNL d   1      52.882  30.941  51.972  0.00  0.00     0.021 C 
ATOM     15  C   UNL d   1      53.276  29.522  53.530  0.00  0.00     0.082 A 
ATOM     16  C   UNL d   1      53.061  30.194  53.968  0.00  0.00     0.021 A 
ATOM     17  C   UNL d   1      53.479  28.824  53.916  0.00  0.00     0.021 A 
ATOM     18  C   UNL d   1      53.053  30.152  54.789  0.00  0.00     0.026 A 
ATOM     19  C   UNL d   1      53.257  29.452  55.178  0.00  0.00     0.094 A 
ATOM     20  C   UNL d   1      53.469  28.790  54.732  0.00  0.00     0.026 A 
BRANCH  19  21
ATOM     21  O   UNL d   1      53.249  29.414  56.002  0.00  0.00    -0.328 OA
ATOM     22  C   UNL d   1      53.264  28.674  56.378  0.00  0.00     0.181 C 
ENDBRANCH  19  21
ENDBRANCH  10  11
ENDBRANCH   9  10
ENDBRANCH   1   9
BRANCH   1  23
ATOM     23  C   UNL d   1      53.182  33.196  54.527  0.00  0.00     0.107 C 
BRANCH  23  24
ATOM     24  C   UNL d   1      53.984  33.364  54.679  0.00  0.00     0.118 A 
ATOM     25  O   UNL d   1      54.592  33.389  54.116  0.00  0.00    -0.304 OA
ATOM     26  C   UNL d   1      55.296  33.575  54.509  0.00  0.00     0.123 A 
ATOM     27  C   UNL d   1      55.122  33.662  55.302  0.00  0.00     0.029 A 
ATOM     28  C   UNL d   1      54.307  33.529  55.400  0.00  0.00     0.028 A 
ENDBRANCH  23  24
ENDBRANCH   1  23
TORSDOF 11
ENDMDL
MODEL 5
REMARK VINA RESULT:      -4.1      1.597      3.447
REMARK  11 active torsions:
REMARK  status: ('A' for Active; 'I' for Inactive)
REMARK    1  A    between atoms: C_8  and  C_1 
REMARK    2  A    between atoms: C_6  and  N_7 
REMARK    3  A    between atoms: N_19  and  C_6 
REMARK    4  A    between atoms: N_7  and  C_14 
REMARK    5  A    between atoms: C_11  and  N_7 
REMARK    6  A    between atoms: C_14  and  C_8 
REMARK    7  A    between atoms: C_9  and  C_11 
REMARK    8  A    between atoms: C_25  and  N_19 
REMARK    9  A    between atoms: O_23  and  C_20 
REMARK   10  A    between atoms: O_24  and  C_26 
REMARK   11  A    between atoms: C_26  and  C_25 
ROOT
ATOM      1  N   UNL d   1      51.722  33.637  52.808  0.00  0.00    -0.279 N 
ENDROOT
BRANCH   1   2
ATOM      2  C   UNL d   1      51.093  34.051  52.477  0.00  0.00     0.206 C 
ATOM      3  S   UNL d   1      51.129  34.291  51.685  0.00  0.00    -0.038 SA
BRANCH   2   4
ATOM      4  N   UNL d   1      50.427  34.229  52.933  0.00  0.00    -0.215 NA
BRANCH   4   5
ATOM      5  C   UNL d   1      49.818  34.679  52.602  0.00  0.00     0.128 C 
BRANCH   5   6
ATOM      6  C   UNL d   1      49.188  34.926  53.067  0.00  0.00     0.137 C 
BRANCH   6   7
ATOM      7  O   UNL d   1      48.699  35.535  52.803  0.00  0.00    -0.325 OA
ATOM      8  C   UNL d   1      48.168  35.883  53.317  0.00  0.00     0.182 C 
ENDBRANCH   6   7
ENDBRANCH   5   6
ENDBRANCH   4   5
ENDBRANCH   2   4
ENDBRANCH   1   2
BRANCH   1   9
ATOM      9  C   UNL d   1      52.060  33.895  53.528  0.00  0.00     0.082 C 
BRANCH   9  10
ATOM     10  C   UNL d   1      52.681  34.444  53.523  0.00  0.00     0.021 C 
BRANCH  10  11
ATOM     11  C   UNL d   1      53.123  34.576  54.202  0.00  0.00     0.021 A 
ATOM     12  C   UNL d   1      52.934  35.107  54.821  0.00  0.00     0.082 A 
ATOM     13  N   UNL d   1      53.531  35.057  55.386  0.00  0.00    -0.246 NA
ATOM     14  C   UNL d   1      52.263  35.591  54.851  0.00  0.00     0.021 C 
ATOM     15  C   UNL d   1      54.090  34.506  55.133  0.00  0.00     0.082 A 
ATOM     16  C   UNL d   1      53.834  34.211  54.400  0.00  0.00     0.021 A 
ATOM     17  C   UNL d   1      54.792  34.234  55.466  0.00  0.00     0.021 A 
ATOM     18  C   UNL d   1      54.289  33.646  54.014  0.00  0.00     0.026 A 
ATOM     19  C   UNL d   1      54.994  33.372  54.347  0.00  0.00     0.094 A 
ATOM     20  C   UNL d   1      55.239  33.673  55.076  0.00  0.00     0.026 A 
BRANCH  19  21
ATOM     21  O   UNL d   1      55.448  32.805  53.955  0.00  0.00    -0.328 OA
ATOM     22  C   UNL d   1      55.715  32.955  53.185  0.00  0.00     0.181 C 
ENDBRANCH  19  21
ENDBRANCH  10  11
ENDBRANCH   9  10
ENDBRANCH   1   9
BRANCH   1  23
ATOM     23  C   UNL d   1      52.017  32.970  52.431  0.00  0.00     0.107 C 
BRANCH  23  24
ATOM     24  C   UNL d   1      51.933  32.221  52.785  0.00  0.00     0.118 A 
ATOM     25  O   UNL d   1      51.325  31.989  53.300  0.00  0.00    -0.304 OA
ATOM     26  C   UNL d   1      51.460  31.203  53.517  0.00  0.00     0.123 A 
ATOM     27  C   UNL d   1      52.141  30.955  53.140  0.00  0.00     0.029 A 
ATOM     28  C   UNL d   1      52.429  31.591  52.688  0.00  0.00     0.028 A 
ENDBRANCH  23  24
ENDBRANCH   1  23
TORSDOF 11
ENDMDL
MODEL 6
REMARK VINA RESULT:      -4.1      1.362      3.886
REMARK  11 active torsions:
REMARK  status: ('A' for Active; 'I' for Inactive)
REMARK    1  A    between atoms: C_8  and  C_1 
REMARK    2  A    between atoms: C_6  and  N_7 
REMARK    3  A    between atoms: N_19  and  C_6 
REMARK    4  A    between atoms: N_7  and  C_14 
REMARK    5  A    between atoms: C_11  and  N_7 
REMARK    6  A    between atoms: C_14  and  C_8 
REMARK    7  A    between atoms: C_9  and  C_11 
REMARK    8  A    between atoms: C_25  and  N_19 
REMARK    9  A    between atoms: O_23  and  C_20 
REMARK   10  A    between atoms: O_24  and  C_26 
REMARK   11  A    between atoms: C_26  and  C_25 
ROOT
ATOM      1  N   UNL d   1      51.589  33.557  52.950  0.00  0.00    -0.279 N 
ENDROOT
BRANCH   1   2
ATOM      2  C   UNL d   1      51.491  32.746  53.049  0.00  0.00     0.206 C 
ATOM      3  S   UNL d   1      50.874  32.460  53.523  0.00  0.00    -0.038 SA
BRANCH   2   4
ATOM      4  N   UNL d   1      52.006  32.216  52.678  0.00  0.00    -0.215 NA
BRANCH   4   5
ATOM      5  C   UNL d   1      52.037  31.433  52.937  0.00  0.00     0.128 C 
BRANCH   5   6
ATOM      6  C   UNL d   1      52.669  30.952  52.724  0.00  0.00     0.137 C 
BRANCH   6   7
ATOM      7  O   UNL d   1      52.696  30.173  52.989  0.00  0.00    -0.325 OA
ATOM      8  C   UNL d   1      53.377  29.886  53.339  0.00  0.00     0.182 C 
ENDBRANCH   6   7
ENDBRANCH   5   6
ENDBRANCH   4   5
ENDBRANCH   2   4
ENDBRANCH   1   2
BRANCH   1   9
ATOM      9  C   UNL d   1      51.890  34.021  53.576  0.00  0.00     0.082 C 
BRANCH   9  10
ATOM     10  C   UNL d   1      52.607  34.427  53.486  0.00  0.00     0.021 C 
BRANCH  10  11
ATOM     11  C   UNL d   1      53.062  34.615  54.143  0.00  0.00     0.021 A 
ATOM     12  C   UNL d   1      52.890  35.203  54.714  0.00  0.00     0.082 A 
ATOM     13  N   UNL d   1      53.496  35.198  55.271  0.00  0.00    -0.246 NA
ATOM     14  C   UNL d   1      52.226  35.697  54.710  0.00  0.00     0.021 C 
ATOM     15  C   UNL d   1      54.044  34.618  55.060  0.00  0.00     0.082 A 
ATOM     16  C   UNL d   1      53.772  34.261  54.362  0.00  0.00     0.021 A 
ATOM     17  C   UNL d   1      54.749  34.368  55.405  0.00  0.00     0.021 A 
ATOM     18  C   UNL d   1      54.213  33.656  54.022  0.00  0.00     0.026 A 
ATOM     19  C   UNL d   1      54.921  33.404  54.367  0.00  0.00     0.094 A 
ATOM     20  C   UNL d   1      55.182  33.767  55.061  0.00  0.00     0.026 A 
BRANCH  19  21
ATOM     21  O   UNL d   1      55.361  32.797  54.022  0.00  0.00    -0.328 OA
ATOM     22  C   UNL d   1      55.649  32.889  53.250  0.00  0.00     0.181 C 
ENDBRANCH  19  21
ENDBRANCH  10  11
ENDBRANCH   9  10
ENDBRANCH   1   9
BRANCH   1  23
ATOM     23  C   UNL d   1      51.390  33.908  52.235  0.00  0.00     0.107 C 
BRANCH  23  24
ATOM     24  C   UNL d   1      50.625  34.219  52.123  0.00  0.00     0.118 A 
ATOM     25  O   UNL d   1      50.129  34.520  52.716  0.00  0.00    -0.304 OA
ATOM     26  C   UNL d   1      49.425  34.767  52.358  0.00  0.00     0.123 A 
ATOM     27  C   UNL d   1      49.489  34.620  51.557  0.00  0.00     0.029 A 
ATOM     28  C   UNL d   1      50.235  34.280  51.419  0.00  0.00     0.028 A 
ENDBRANCH  23  24
ENDBRANCH   1  23
TORSDOF 11
ENDMDL
MODEL 7
REMARK VINA RESULT:      -4.0      1.413      2.124
REMARK  11 active torsions:
REMARK  status: ('A' for Active; 'I' for Inactive)
REMARK    1  A    between atoms: C_8  and  C_1 
REMARK    2  A    between atoms: C_6  and  N_7 
REMARK    3  A    between atoms: N_19  and  C_6 
REMARK    4  A    between atoms: N_7  and  C_14 
REMARK    5  A    between atoms: C_11  and  N_7 
REMARK    6  A    between atoms: C_14  and  C_8 
REMARK    7  A    between atoms: C_9  and  C_11 
REMARK    8  A    between atoms: C_25  and  N_19 
REMARK    9  A    between atoms: O_23  and  C_20 
REMARK   10  A    between atoms: O_24  and  C_26 
REMARK   11  A    between atoms: C_26  and  C_25 
ROOT
ATOM      1  N   UNL d   1      51.555  34.192  52.885  0.00  0.00    -0.279 N 
ENDROOT
BRANCH   1   2
ATOM      2  C   UNL d   1      50.819  34.383  52.570  0.00  0.00     0.206 C 
ATOM      3  S   UNL d   1      50.710  34.383  51.749  0.00  0.00    -0.038 SA
BRANCH   2   4
ATOM      4  N   UNL d   1      50.189  34.575  53.071  0.00  0.00    -0.215 NA
BRANCH   4   5
ATOM      5  C   UNL d   1      49.498  34.891  52.749  0.00  0.00     0.128 C 
BRANCH   5   6
ATOM      6  C   UNL d   1      48.946  35.257  53.235  0.00  0.00     0.137 C 
BRANCH   6   7
ATOM      7  O   UNL d   1      48.328  35.686  52.899  0.00  0.00    -0.325 OA
ATOM      8  C   UNL d   1      47.850  36.150  53.373  0.00  0.00     0.182 C 
ENDBRANCH   6   7
ENDBRANCH   5   6
ENDBRANCH   4   5
ENDBRANCH   2   4
ENDBRANCH   1   2
BRANCH   1   9
ATOM      9  C   UNL d   1      51.691  33.429  53.197  0.00  0.00     0.082 C 
BRANCH   9  10
ATOM     10  C   UNL d   1      51.918  32.809  52.697  0.00  0.00     0.021 C 
BRANCH  10  11
ATOM     11  C   UNL d   1      52.184  32.098  53.012  0.00  0.00     0.021 A 
ATOM     12  C   UNL d   1      51.708  31.448  53.237  0.00  0.00     0.082 A 
ATOM     13  N   UNL d   1      52.208  30.858  53.522  0.00  0.00    -0.246 NA
ATOM     14  C   UNL d   1      50.883  31.412  53.180  0.00  0.00     0.021 C 
ATOM     15  C   UNL d   1      52.986  31.128  53.480  0.00  0.00     0.082 A 
ATOM     16  C   UNL d   1      52.967  31.895  53.163  0.00  0.00     0.021 A 
ATOM     17  C   UNL d   1      53.706  30.782  53.684  0.00  0.00     0.021 A 
ATOM     18  C   UNL d   1      53.672  32.304  53.057  0.00  0.00     0.026 A 
ATOM     19  C   UNL d   1      54.395  31.958  53.261  0.00  0.00     0.094 A 
ATOM     20  C   UNL d   1      54.402  31.194  53.575  0.00  0.00     0.026 A 
BRANCH  19  21
ATOM     21  O   UNL d   1      55.101  32.372  53.153  0.00  0.00    -0.328 OA
ATOM     22  C   UNL d   1      55.341  32.926  53.722  0.00  0.00     0.181 C 
ENDBRANCH  19  21
ENDBRANCH  10  11
ENDBRANCH   9  10
ENDBRANCH   1   9
BRANCH   1  23
ATOM     23  C   UNL d   1      52.155  34.753  52.892  0.00  0.00     0.107 C 
BRANCH  23  24
ATOM     24  C   UNL d   1      52.447  35.040  53.618  0.00  0.00     0.118 A 
ATOM     25  O   UNL d   1      52.146  34.862  54.370  0.00  0.00    -0.304 OA
ATOM     26  C   UNL d   1      52.603  35.266  54.929  0.00  0.00     0.123 A 
ATOM     27  C   UNL d   1      53.176  35.685  54.526  0.00  0.00     0.029 A 
ATOM     28  C   UNL d   1      53.073  35.540  53.714  0.00  0.00     0.028 A 
ENDBRANCH  23  24
ENDBRANCH   1  23
TORSDOF 11
ENDMDL
MODEL 8
REMARK VINA RESULT:      -3.9      1.343      4.381
REMARK  11 active torsions:
REMARK  status: ('A' for Active; 'I' for Inactive)
REMARK    1  A    between atoms: C_8  and  C_1 
REMARK    2  A    between atoms: C_6  and  N_7 
REMARK    3  A    between atoms: N_19  and  C_6 
REMARK    4  A    between atoms: N_7  and  C_14 
REMARK    5  A    between atoms: C_11  and  N_7 
REMARK    6  A    between atoms: C_14  and  C_8 
REMARK    7  A    between atoms: C_9  and  C_11 
REMARK    8  A    between atoms: C_25  and  N_19 
REMARK    9  A    between atoms: O_23  and  C_20 
REMARK   10  A    between atoms: O_24  and  C_26 
REMARK   11  A    between atoms: C_26  and  C_25 
ROOT
ATOM      1  N   UNL d   1      53.306  32.708  53.417  0.00  0.00    -0.279 N 
ENDROOT
BRANCH   1   2
ATOM      2  C   UNL d   1      53.107  31.919  53.291  0.00  0.00     0.206 C 
ATOM      3  S   UNL d   1      52.938  31.654  52.524  0.00  0.00    -0.038 SA
BRANCH   2   4
ATOM      4  N   UNL d   1      53.076  31.392  53.927  0.00  0.00    -0.215 NA
BRANCH   4   5
ATOM      5  C   UNL d   1      52.991  30.584  53.779  0.00  0.00     0.128 C 
BRANCH   5   6
ATOM      6  C   UNL d   1      53.177  30.035  54.362  0.00  0.00     0.137 C 
BRANCH   6   7
ATOM      7  O   UNL d   1      53.036  29.235  54.229  0.00  0.00    -0.325 OA
ATOM      8  C   UNL d   1      53.282  28.682  54.778  0.00  0.00     0.182 C 
ENDBRANCH   6   7
ENDBRANCH   5   6
ENDBRANCH   4   5
ENDBRANCH   2   4
ENDBRANCH   1   2
BRANCH   1   9
ATOM      9  C   UNL d   1      52.718  33.255  53.646  0.00  0.00     0.082 C 
BRANCH   9  10
ATOM     10  C   UNL d   1      52.423  33.804  53.100  0.00  0.00     0.021 C 
BRANCH  10  11
ATOM     11  C   UNL d   1      51.770  34.266  53.288  0.00  0.00     0.021 A 
ATOM     12  C   UNL d   1      51.683  34.749  53.966  0.00  0.00     0.082 A 
ATOM     13  N   UNL d   1      50.943  35.109  53.925  0.00  0.00    -0.246 NA
ATOM     14  C   UNL d   1      52.246  34.841  54.566  0.00  0.00     0.021 C 
ATOM     15  C   UNL d   1      50.566  34.861  53.234  0.00  0.00     0.082 A 
ATOM     16  C   UNL d   1      51.081  34.340  52.844  0.00  0.00     0.021 A 
ATOM     17  C   UNL d   1      49.830  35.037  52.910  0.00  0.00     0.021 A 
ATOM     18  C   UNL d   1      50.847  34.003  52.131  0.00  0.00     0.026 A 
ATOM     19  C   UNL d   1      50.108  34.179  51.804  0.00  0.00     0.094 A 
ATOM     20  C   UNL d   1      49.604  34.698  52.202  0.00  0.00     0.026 A 
BRANCH  19  21
ATOM     21  O   UNL d   1      49.877  33.839  51.088  0.00  0.00    -0.328 OA
ATOM     22  C   UNL d   1      49.222  34.147  50.682  0.00  0.00     0.181 C 
ENDBRANCH  19  21
ENDBRANCH  10  11
ENDBRANCH   9  10
ENDBRANCH   1   9
BRANCH   1  23
ATOM     23  C   UNL d   1      54.082  32.955  53.316  0.00  0.00     0.107 C 
BRANCH  23  24
ATOM     24  C   UNL d   1      54.539  33.170  53.978  0.00  0.00     0.118 A 
ATOM     25  O   UNL d   1      54.361  32.999  54.770  0.00  0.00    -0.304 OA
ATOM     26  C   UNL d   1      54.964  33.316  55.240  0.00  0.00     0.123 A 
ATOM     27  C   UNL d   1      55.504  33.675  54.744  0.00  0.00     0.029 A 
ATOM     28  C   UNL d   1      55.234  33.581  53.963  0.00  0.00     0.028 A 
ENDBRANCH  23  24
ENDBRANCH   1  23
TORSDOF 11
ENDMDL
MODEL 9
REMARK VINA RESULT:      -3.9      1.947      5.368
REMARK  11 active torsions:
REMARK  status: ('A' for Active; 'I' for Inactive)
REMARK    1  A    between atoms: C_8  and  C_1 
REMARK    2  A    between atoms: C_6  and  N_7 
REMARK    3  A    between atoms: N_19  and  C_6 
REMARK    4  A    between atoms: N_7  and  C_14 
REMARK    5  A    between atoms: C_11  and  N_7 
REMARK    6  A    between atoms: C_14  and  C_8 
REMARK    7  A    between atoms: C_9  and  C_11 
REMARK    8  A    between atoms: C_25  and  N_19 
REMARK    9  A    between atoms: O_23  and  C_20 
REMARK   10  A    between atoms: O_24  and  C_26 
REMARK   11  A    between atoms: C_26  and  C_25 
ROOT
ATOM      1  N   UNL d   1      51.524  33.920  53.220  0.00  0.00    -0.279 N 
ENDROOT
BRANCH   1   2
ATOM      2  C   UNL d   1      52.151  34.414  53.422  0.00  0.00     0.206 C 
ATOM      3  S   UNL d   1      52.522  34.869  52.838  0.00  0.00    -0.038 SA
BRANCH   2   4
ATOM      4  N   UNL d   1      52.410  34.457  54.206  0.00  0.00    -0.215 NA
BRANCH   4   5
ATOM      5  C   UNL d   1      53.139  34.806  54.373  0.00  0.00     0.128 C 
BRANCH   5   6
ATOM      6  C   UNL d   1      53.519  34.651  55.085  0.00  0.00     0.137 C 
BRANCH   6   7
ATOM      7  O   UNL d   1      54.338  34.571  55.102  0.00  0.00    -0.325 OA
ATOM      8  C   UNL d   1      54.676  33.907  55.439  0.00  0.00     0.182 C 
ENDBRANCH   6   7
ENDBRANCH   5   6
ENDBRANCH   4   5
ENDBRANCH   2   4
ENDBRANCH   1   2
BRANCH   1   9
ATOM      9  C   UNL d   1      50.936  34.187  52.691  0.00  0.00     0.082 C 
BRANCH   9  10
ATOM     10  C   UNL d   1      50.139  34.189  52.919  0.00  0.00     0.021 C 
BRANCH  10  11
ATOM     11  C   UNL d   1      49.577  34.575  52.462  0.00  0.00     0.021 A 
ATOM     12  C   UNL d   1      49.457  34.478  51.639  0.00  0.00     0.082 A 
ATOM     13  N   UNL d   1      48.837  34.973  51.416  0.00  0.00    -0.246 NA
ATOM     14  C   UNL d   1      49.888  33.973  51.146  0.00  0.00     0.021 C 
ATOM     15  C   UNL d   1      48.568  35.378  52.083  0.00  0.00     0.082 A 
ATOM     16  C   UNL d   1      49.029  35.129  52.727  0.00  0.00     0.021 A 
ATOM     17  C   UNL d   1      47.972  35.935  52.191  0.00  0.00     0.021 A 
ATOM     18  C   UNL d   1      48.881  35.444  53.472  0.00  0.00     0.026 A 
ATOM     19  C   UNL d   1      48.283  36.004  53.582  0.00  0.00     0.094 A 
ATOM     20  C   UNL d   1      47.831  36.244  52.934  0.00  0.00     0.026 A 
BRANCH  19  21
ATOM     21  O   UNL d   1      48.138  36.318  54.331  0.00  0.00    -0.328 OA
ATOM     22  C   UNL d   1      47.364  36.531  54.543  0.00  0.00     0.181 C 
ENDBRANCH  19  21
ENDBRANCH  10  11
ENDBRANCH   9  10
ENDBRANCH   1   9
BRANCH   1  23
ATOM     23  C   UNL d   1      51.480  33.165  53.539  0.00  0.00     0.107 C 
BRANCH  23  24
ATOM     24  C   UNL d   1      51.888  32.536  53.176  0.00  0.00     0.118 A 
ATOM     25  O   UNL d   1      52.415  32.599  52.538  0.00  0.00    -0.304 OA
ATOM     26  C   UNL d   1      52.690  31.839  52.359  0.00  0.00     0.123 A 
ATOM     27  C   UNL d   1      52.336  31.318  52.878  0.00  0.00     0.029 A 
ATOM     28  C   UNL d   1      51.840  31.756  53.382  0.00  0.00     0.028 A 
ENDBRANCH  23  24
ENDBRANCH   1  23
TORSDOF 11
ENDMDL
