MODEL 1
REMARK VINA RESULT:       2.4      0.000      0.000
REMARK  4 active torsions:
REMARK  status: ('A' for Active; 'I' for Inactive)
REMARK    1  A    between atoms: C_4  and  C_1 
REMARK    2  A    between atoms: N_7  and  C_4 
REMARK    3  A    between atoms: C_10  and  C_4 
REMARK    4  A    between atoms: C_8  and  N_7 
ROOT
ATOM      1  C   UNL d   1     -41.523-122.056 -51.403  0.00  0.00     0.085 C 
ENDROOT
BRANCH   1   2
ATOM      2  C   UNL d   1     -42.067-122.295 -50.829  0.00  0.00     0.037 A 
ATOM      3  C   UNL d   1     -42.888-122.202 -50.828  0.00  0.00     0.083 A 
ATOM      4  N   UNL d   1     -43.201-122.498 -50.197  0.00  0.00    -0.245 NA
ATOM      5  C   UNL d   1     -43.313-121.835 -51.433  0.00  0.00     0.021 C 
ATOM      6  C   UNL d   1     -42.593-122.821 -49.713  0.00  0.00     0.081 A 
ATOM      7  C   UNL d   1     -41.882-122.694 -50.110  0.00  0.00     0.021 A 
ATOM      8  C   UNL d   1     -42.604-123.208 -48.975  0.00  0.00     0.019 A 
ATOM      9  C   UNL d   1     -41.176-122.953 -49.771  0.00  0.00     0.002 A 
ATOM     10  C   UNL d   1     -41.173-123.335 -49.045  0.00  0.00     0.000 A 
ATOM     11  C   UNL d   1     -41.885-123.462 -48.648  0.00  0.00     0.002 A 
ENDBRANCH   1   2
BRANCH   1  12
ATOM     12  N   UNL d   1     -41.123-122.627 -51.823  0.00  0.00    -0.227 NA
BRANCH  12  13
ATOM     13  C   UNL d   1     -41.400-122.896 -52.535  0.00  0.00     0.162 A 
ATOM     14  N   UNL d   1     -41.918-123.527 -52.575  0.00  0.00    -0.225 NA
ATOM     15  C   UNL d   1     -42.200-123.798 -53.334  0.00  0.00     0.101 A 
ATOM     16  C   UNL d   1     -41.940-123.413 -53.995  0.00  0.00     0.021 A 
ATOM     17  C   UNL d   1     -41.425-122.785 -53.963  0.00  0.00     0.005 A 
ATOM     18  C   UNL d   1     -41.148-122.516 -53.241  0.00  0.00     0.039 A 
ATOM     19  C   UNL d   1     -41.185-122.420 -54.667  0.00  0.00     0.000 C 
ENDBRANCH  12  13
ENDBRANCH   1  12
BRANCH   1  20
ATOM     20  C   UNL d   1     -41.388-121.251 -51.548  0.00  0.00     0.021 A 
ATOM     21  C   UNL d   1     -41.366-120.742 -50.902  0.00  0.00     0.022 A 
ATOM     22  C   UNL d   1     -41.231-119.938 -51.047  0.00  0.00     0.099 A 
ATOM     23  N   UNL d   1     -41.123-119.668 -51.825  0.00  0.00    -0.242 NA
ATOM     24  C   UNL d   1     -41.150-120.193 -52.449  0.00  0.00     0.099 A 
ATOM     25  C   UNL d   1     -41.280-120.982 -52.326  0.00  0.00     0.022 A 
ENDBRANCH   1  20
TORSDOF 4
ENDMDL
MODEL 2
REMARK VINA RESULT:       5.3      0.757      2.558
REMARK  4 active torsions:
REMARK  status: ('A' for Active; 'I' for Inactive)
REMARK    1  A    between atoms: C_4  and  C_1 
REMARK    2  A    between atoms: N_7  and  C_4 
REMARK    3  A    between atoms: C_10  and  C_4 
REMARK    4  A    between atoms: C_8  and  N_7 
ROOT
ATOM      1  C   UNL d   1     -41.766-122.189 -51.571  0.00  0.00     0.085 C 
ENDROOT
BRANCH   1   2
ATOM      2  C   UNL d   1     -42.323-122.237 -50.962  0.00  0.00     0.037 A 
ATOM      3  C   UNL d   1     -43.116-122.011 -50.971  0.00  0.00     0.083 A 
ATOM      4  N   UNL d   1     -43.452-122.142 -50.297  0.00  0.00    -0.245 NA
ATOM      5  C   UNL d   1     -43.497-121.685 -51.627  0.00  0.00     0.021 C 
ATOM      6  C   UNL d   1     -42.889-122.477 -49.770  0.00  0.00     0.081 A 
ATOM      7  C   UNL d   1     -42.179-122.536 -50.187  0.00  0.00     0.021 A 
ATOM      8  C   UNL d   1     -42.936-122.729 -48.976  0.00  0.00     0.019 A 
ATOM      9  C   UNL d   1     -41.513-122.848 -49.813  0.00  0.00     0.002 A 
ATOM     10  C   UNL d   1     -41.548-123.099 -49.032  0.00  0.00     0.000 A 
ATOM     11  C   UNL d   1     -42.257-123.040 -48.615  0.00  0.00     0.002 A 
ENDBRANCH   1   2
BRANCH   1  12
ATOM     12  N   UNL d   1     -41.125-121.697 -51.476  0.00  0.00    -0.227 NA
BRANCH  12  13
ATOM     13  C   UNL d   1     -41.125-120.945 -51.778  0.00  0.00     0.162 A 
ATOM     14  N   UNL d   1     -41.124-120.815 -52.585  0.00  0.00    -0.225 NA
ATOM     15  C   UNL d   1     -41.124-120.016 -52.887  0.00  0.00     0.101 A 
ATOM     16  C   UNL d   1     -41.124-119.409 -52.353  0.00  0.00     0.021 A 
ATOM     17  C   UNL d   1     -41.124-119.531 -51.550  0.00  0.00     0.005 A 
ATOM     18  C   UNL d   1     -41.124-120.292 -51.249  0.00  0.00     0.039 A 
ATOM     19  C   UNL d   1     -41.124-118.878 -51.040  0.00  0.00     0.000 C 
ENDBRANCH  12  13
ENDBRANCH   1  12
BRANCH   1  20
ATOM     20  C   UNL d   1     -41.860-122.634 -52.265  0.00  0.00     0.021 A 
ATOM     21  C   UNL d   1     -41.460-123.350 -52.319  0.00  0.00     0.022 A 
ATOM     22  C   UNL d   1     -41.554-123.795 -53.013  0.00  0.00     0.099 A 
ATOM     23  N   UNL d   1     -42.039-123.512 -53.624  0.00  0.00    -0.242 NA
ATOM     24  C   UNL d   1     -42.425-122.798 -53.546  0.00  0.00     0.099 A 
ATOM     25  C   UNL d   1     -42.345-122.351 -52.876  0.00  0.00     0.022 A 
ENDBRANCH   1  20
TORSDOF 4
ENDMDL
