MODEL 1
REMARK VINA RESULT:      -8.6      0.000      0.000
REMARK  3 active torsions:
REMARK  status: ('A' for Active; 'I' for Inactive)
REMARK    1  A    between atoms: C_6  and  N_1 
REMARK    2  A    between atoms: C_9  and  C_6 
REMARK    3  A    between atoms: C_10  and  C_9 
ROOT
ATOM      1  C   UNL d   1      53.880  31.396  53.711  0.00  0.00     0.086 C 
ENDROOT
BRANCH   1   2
ATOM      2  N   UNL d   1      53.376  30.816  53.472  0.00  0.00    -0.240 N 
ATOM      3  C   UNL d   1      53.325  30.041  53.804  0.00  0.00     0.267 A 
ATOM      4  C   UNL d   1      52.727  29.621  53.387  0.00  0.00     0.066 A 
ATOM      5  O   UNL d   1      53.772  29.765  54.410  0.00  0.00    -0.267 OA
ATOM      6  C   UNL d   1      52.414  30.145  52.798  0.00  0.00     0.066 A 
ATOM      7  C   UNL d   1      52.810  30.873  52.850  0.00  0.00     0.267 A 
ATOM      8  O   UNL d   1      52.679  31.516  52.393  0.00  0.00    -0.267 OA
ENDBRANCH   1   2
BRANCH   1   9
ATOM      9  C   UNL d   1      53.578  32.068  54.081  0.00  0.00     0.019 C 
BRANCH   9  10
ATOM     10  C   UNL d   1      54.090  32.619  54.406  0.00  0.00     0.002 A 
ATOM     11  C   UNL d   1      54.655  32.977  53.934  0.00  0.00     0.000 A 
ATOM     12  C   UNL d   1      55.169  33.529  54.255  0.00  0.00     0.000 A 
ATOM     13  C   UNL d   1      55.113  33.719  55.056  0.00  0.00     0.000 A 
ATOM     14  C   UNL d   1      54.543  33.356  55.529  0.00  0.00     0.000 A 
ATOM     15  C   UNL d   1      54.035  32.806  55.194  0.00  0.00     0.000 A 
ENDBRANCH   9  10
ENDBRANCH   1   9
TORSDOF 3
ENDMDL
MODEL 2
REMARK VINA RESULT:      -8.3      2.796      3.823
REMARK  3 active torsions:
REMARK  status: ('A' for Active; 'I' for Inactive)
REMARK    1  A    between atoms: C_6  and  N_1 
REMARK    2  A    between atoms: C_9  and  C_6 
REMARK    3  A    between atoms: C_10  and  C_9 
ROOT
ATOM      1  C   UNL d   1      52.726  33.596  54.063  0.00  0.00     0.086 C 
ENDROOT
BRANCH   1   2
ATOM      2  N   UNL d   1      53.457  33.525  54.393  0.00  0.00    -0.240 N 
ATOM      3  C   UNL d   1      53.992  32.883  54.269  0.00  0.00     0.267 A 
ATOM      4  C   UNL d   1      54.686  33.038  54.719  0.00  0.00     0.066 A 
ATOM      5  O   UNL d   1      53.853  32.246  53.803  0.00  0.00    -0.267 OA
ATOM      6  C   UNL d   1      54.571  33.776  55.118  0.00  0.00     0.066 A 
ATOM      7  C   UNL d   1      53.821  34.073  54.919  0.00  0.00     0.267 A 
ATOM      8  O   UNL d   1      53.499  34.758  55.179  0.00  0.00    -0.267 OA
ENDBRANCH   1   2
BRANCH   1   9
ATOM      9  C   UNL d   1      52.607  34.138  53.454  0.00  0.00     0.019 C 
BRANCH   9  10
ATOM     10  C   UNL d   1      51.896  34.144  53.047  0.00  0.00     0.002 A 
ATOM     11  C   UNL d   1      51.894  34.232  52.233  0.00  0.00     0.000 A 
ATOM     12  C   UNL d   1      51.185  34.239  51.821  0.00  0.00     0.000 A 
ATOM     13  C   UNL d   1      50.475  34.156  52.234  0.00  0.00     0.000 A 
ATOM     14  C   UNL d   1      50.481  34.067  53.054  0.00  0.00     0.000 A 
ATOM     15  C   UNL d   1      51.198  34.063  53.452  0.00  0.00     0.000 A 
ENDBRANCH   9  10
ENDBRANCH   1   9
TORSDOF 3
ENDMDL
MODEL 3
REMARK VINA RESULT:      -8.2      2.022      3.570
REMARK  3 active torsions:
REMARK  status: ('A' for Active; 'I' for Inactive)
REMARK    1  A    between atoms: C_6  and  N_1 
REMARK    2  A    between atoms: C_9  and  C_6 
REMARK    3  A    between atoms: C_10  and  C_9 
ROOT
ATOM      1  C   UNL d   1      52.745  33.046  53.848  0.00  0.00     0.086 C 
ENDROOT
BRANCH   1   2
ATOM      2  N   UNL d   1      52.816  33.846  53.910  0.00  0.00    -0.240 N 
ATOM      3  C   UNL d   1      53.230  34.257  54.520  0.00  0.00     0.267 A 
ATOM      4  C   UNL d   1      53.161  35.081  54.367  0.00  0.00     0.066 A 
ATOM      5  O   UNL d   1      53.617  33.913  55.133  0.00  0.00    -0.267 OA
ATOM      6  C   UNL d   1      52.703  35.170  53.660  0.00  0.00     0.066 A 
ATOM      7  C   UNL d   1      52.492  34.416  53.381  0.00  0.00     0.267 A 
ATOM      8  O   UNL d   1      52.059  34.257  52.727  0.00  0.00    -0.267 OA
ENDBRANCH   1   2
BRANCH   1   9
ATOM      9  C   UNL d   1      53.265  32.629  53.363  0.00  0.00     0.019 C 
BRANCH   9  10
ATOM     10  C   UNL d   1      53.229  31.811  53.336  0.00  0.00     0.002 A 
ATOM     11  C   UNL d   1      52.641  31.444  52.900  0.00  0.00     0.000 A 
ATOM     12  C   UNL d   1      52.601  30.626  52.869  0.00  0.00     0.000 A 
ATOM     13  C   UNL d   1      53.157  30.176  53.281  0.00  0.00     0.000 A 
ATOM     14  C   UNL d   1      53.748  30.549  53.719  0.00  0.00     0.000 A 
ATOM     15  C   UNL d   1      53.776  31.368  53.740  0.00  0.00     0.000 A 
ENDBRANCH   9  10
ENDBRANCH   1   9
TORSDOF 3
ENDMDL
MODEL 4
REMARK VINA RESULT:      -7.7      2.373      3.064
REMARK  3 active torsions:
REMARK  status: ('A' for Active; 'I' for Inactive)
REMARK    1  A    between atoms: C_6  and  N_1 
REMARK    2  A    between atoms: C_9  and  C_6 
REMARK    3  A    between atoms: C_10  and  C_9 
ROOT
ATOM      1  C   UNL d   1      52.718  32.443  52.949  0.00  0.00     0.086 C 
ENDROOT
BRANCH   1   2
ATOM      2  N   UNL d   1      53.111  31.806  53.245  0.00  0.00    -0.240 N 
ATOM      3  C   UNL d   1      53.007  31.005  52.997  0.00  0.00     0.267 A 
ATOM      4  C   UNL d   1      53.527  30.526  53.452  0.00  0.00     0.066 A 
ATOM      5  O   UNL d   1      52.499  30.757  52.428  0.00  0.00    -0.267 OA
ATOM      6  C   UNL d   1      53.949  31.039  53.978  0.00  0.00     0.066 A 
ATOM      7  C   UNL d   1      53.695  31.820  53.852  0.00  0.00     0.267 A 
ATOM      8  O   UNL d   1      53.957  32.471  54.236  0.00  0.00    -0.267 OA
ENDBRANCH   1   2
BRANCH   1   9
ATOM      9  C   UNL d   1      52.167  32.835  53.421  0.00  0.00     0.019 C 
BRANCH   9  10
ATOM     10  C   UNL d   1      51.654  33.377  53.084  0.00  0.00     0.002 A 
ATOM     11  C   UNL d   1      50.876  33.414  53.338  0.00  0.00     0.000 A 
ATOM     12  C   UNL d   1      50.359  33.955  53.004  0.00  0.00     0.000 A 
ATOM     13  C   UNL d   1      50.629  34.461  52.409  0.00  0.00     0.000 A 
ATOM     14  C   UNL d   1      51.413  34.421  52.155  0.00  0.00     0.000 A 
ATOM     15  C   UNL d   1      51.918  33.874  52.499  0.00  0.00     0.000 A 
ENDBRANCH   9  10
ENDBRANCH   1   9
TORSDOF 3
ENDMDL
