MODEL 1
REMARK VINA RESULT:      -5.8      0.000      0.000
REMARK  2 active torsions:
REMARK  status: ('A' for Active; 'I' for Inactive)
REMARK    1  A    between atoms: N_8  and  C_7 
REMARK    2  A    between atoms: C_9  and  N_8 
ROOT
ATOM      1  N   UNL d   1     -41.129-121.977 -53.097  0.00  0.00    -0.245 NA
ENDROOT
BRANCH   1   2
ATOM      2  C   UNL d   1     -41.512-122.141 -53.802  0.00  0.00     0.093 A 
ATOM      3  C   UNL d   1     -42.195-121.779 -54.079  0.00  0.00     0.118 A 
ATOM      4  S   UNL d   1     -42.379-122.122 -54.811  0.00  0.00     0.213 S 
ATOM      5  C   UNL d   1     -41.812-122.691 -54.983  0.00  0.00     0.100 A 
ATOM      6  O   UNL d   1     -42.504-122.502 -55.530  0.00  0.00    -0.217 OA
ATOM      7  O   UNL d   1     -42.897-121.539 -54.561  0.00  0.00    -0.217 OA
ATOM      8  C   UNL d   1     -41.275-122.703 -54.357  0.00  0.00     0.032 A 
ENDBRANCH   1   2
BRANCH   1   9
ATOM      9  C   UNL d   1     -41.285-122.442 -52.431  0.00  0.00     0.082 A 
ATOM     10  C   UNL d   1     -41.603-122.096 -51.753  0.00  0.00     0.030 A 
ATOM     11  C   UNL d   1     -41.758-122.552 -51.096  0.00  0.00     0.059 A 
ATOM     12 CL   UNL d   1     -42.070-122.297 -50.384  0.00  0.00    -0.082 Cl
ATOM     13  C   UNL d   1     -41.597-123.362 -51.107  0.00  0.00     0.011 A 
ATOM     14  C   UNL d   1     -41.279-123.708 -51.785  0.00  0.00     0.002 A 
ATOM     15  C   UNL d   1     -41.123-123.243 -52.452  0.00  0.00     0.019 A 
ENDBRANCH   1   9
TORSDOF 2
ENDMDL
MODEL 2
REMARK VINA RESULT:      -5.7      2.296      3.235
REMARK  2 active torsions:
REMARK  status: ('A' for Active; 'I' for Inactive)
REMARK    1  A    between atoms: N_8  and  C_7 
REMARK    2  A    between atoms: C_9  and  N_8 
ROOT
ATOM      1  N   UNL d   1     -41.123-122.082 -52.695  0.00  0.00    -0.245 NA
ENDROOT
BRANCH   1   2
ATOM      2  C   UNL d   1     -41.393-122.430 -52.005  0.00  0.00     0.093 A 
ATOM      3  C   UNL d   1     -41.943-122.114 -51.484  0.00  0.00     0.118 A 
ATOM      4  S   UNL d   1     -42.044-122.659 -50.868  0.00  0.00     0.213 S 
ATOM      5  C   UNL d   1     -41.559-123.306 -51.009  0.00  0.00     0.100 A 
ATOM      6  O   UNL d   1     -42.098-123.241 -50.288  0.00  0.00    -0.217 OA
ATOM      7  O   UNL d   1     -42.495-121.978 -50.806  0.00  0.00    -0.217 OA
ATOM      8  C   UNL d   1     -41.155-123.165 -51.714  0.00  0.00     0.032 A 
ENDBRANCH   1   2
BRANCH   1   9
ATOM      9  C   UNL d   1     -41.375-122.378 -53.425  0.00  0.00     0.082 A 
ATOM     10  C   UNL d   1     -41.873-121.926 -53.903  0.00  0.00     0.030 A 
ATOM     11  C   UNL d   1     -42.122-122.214 -54.623  0.00  0.00     0.059 A 
ATOM     12 CL   UNL d   1     -42.612-121.840 -55.159  0.00  0.00    -0.082 Cl
ATOM     13  C   UNL d   1     -41.876-122.961 -54.876  0.00  0.00     0.011 A 
ATOM     14  C   UNL d   1     -41.379-123.414 -54.398  0.00  0.00     0.002 A 
ATOM     15  C   UNL d   1     -41.126-123.119 -53.667  0.00  0.00     0.019 A 
ENDBRANCH   1   9
TORSDOF 2
ENDMDL
MODEL 3
REMARK VINA RESULT:      -4.3      3.186      4.049
REMARK  2 active torsions:
REMARK  status: ('A' for Active; 'I' for Inactive)
REMARK    1  A    between atoms: N_8  and  C_7 
REMARK    2  A    between atoms: C_9  and  N_8 
ROOT
ATOM      1  N   UNL d   1     -41.123-122.833 -50.203  0.00  0.00    -0.245 NA
ENDROOT
BRANCH   1   2
ATOM      2  C   UNL d   1     -41.817-123.080 -49.849  0.00  0.00     0.093 A 
ATOM      3  C   UNL d   1     -42.236-122.680 -49.266  0.00  0.00     0.118 A 
ATOM      4  S   UNL d   1     -42.899-123.139 -49.077  0.00  0.00     0.213 S 
ATOM      5  C   UNL d   1     -42.889-123.817 -49.540  0.00  0.00     0.100 A 
ATOM      6  O   UNL d   1     -43.537-123.641 -48.937  0.00  0.00    -0.217 OA
ATOM      7  O   UNL d   1     -42.831-122.438 -48.658  0.00  0.00    -0.217 OA
ATOM      8  C   UNL d   1     -42.218-123.781 -50.018  0.00  0.00     0.032 A 
ENDBRANCH   1   2
BRANCH   1   9
ATOM      9  C   UNL d   1     -41.140-122.549 -50.980  0.00  0.00     0.082 A 
ATOM     10  C   UNL d   1     -41.123-123.078 -51.613  0.00  0.00     0.030 A 
ATOM     11  C   UNL d   1     -41.140-122.801 -52.378  0.00  0.00     0.059 A 
ATOM     12 CL   UNL d   1     -41.126-123.249 -53.062  0.00  0.00    -0.082 Cl
ATOM     13  C   UNL d   1     -41.176-121.989 -52.523  0.00  0.00     0.011 A 
ATOM     14  C   UNL d   1     -41.194-121.459 -51.891  0.00  0.00     0.002 A 
ATOM     15  C   UNL d   1     -41.176-121.742 -51.113  0.00  0.00     0.019 A 
ENDBRANCH   1   9
TORSDOF 2
ENDMDL
