MODEL 1
REMARK VINA RESULT:      -1.0      0.000      0.000
REMARK  9 active torsions:
REMARK  status: ('A' for Active; 'I' for Inactive)
REMARK    1  A    between atoms: C_9  and  N_1 
REMARK    2  A    between atoms: C_6  and  C_2 
REMARK    3  A    between atoms: S_11  and  C_3 
REMARK    4  A    between atoms: C_7  and  C_6 
REMARK    5  A    between atoms: C_20  and  C_9 
REMARK       I    between atoms: N_10  and  C_12 
REMARK    6  A    between atoms: C_13  and  N_10 
REMARK    7  A    between atoms: C_19  and  S_11 
REMARK    8  A    between atoms: C_12  and  C_19 
REMARK    9  A    between atoms: C_23  and  C_20 
ROOT
ATOM      1  N   UNL d   1      57.901  -0.863  30.667  0.00  0.00    -0.268 N 
ATOM      2  C   UNL d   1      57.360  -0.874  31.292  0.00  0.00     0.172 A 
ATOM      3  C   UNL d   1      57.783  -1.540  30.212  0.00  0.00     0.201 A 
ATOM      4  N   UNL d   1      56.908  -1.556  31.224  0.00  0.00    -0.128 NA
ATOM      5  N   UNL d   1      57.164  -1.972  30.559  0.00  0.00    -0.121 NA
ENDROOT
BRANCH   3   6
ATOM      6  S   UNL d   1      58.199  -1.752  29.538  0.00  0.00    -0.043 SA
BRANCH   6   7
ATOM      7  C   UNL d   1      57.936  -2.375  29.067  0.00  0.00     0.101 C 
BRANCH   7   8
ATOM      8  C   UNL d   1      58.430  -3.022  28.923  0.00  0.00     0.286 C 
ATOM      9  N   UNL d   1      59.249  -2.917  28.949  0.00  0.00    -0.205 NA
ATOM     10  O   UNL d   1      58.114  -3.761  28.755  0.00  0.00    -0.265 OA
BRANCH   9  11
ATOM     11  C   UNL d   1      59.737  -3.549  28.809  0.00  0.00     0.112 A 
ATOM     12  C   UNL d   1      60.554  -3.434  28.809  0.00  0.00     0.158 A 
ATOM     13  F   UNL d   1      60.876  -2.684  28.951  0.00  0.00    -0.203 F 
ATOM     14  C   UNL d   1      61.064  -4.065  28.668  0.00  0.00     0.031 A 
ATOM     15  C   UNL d   1      60.744  -4.820  28.525  0.00  0.00     0.002 A 
ATOM     16  C   UNL d   1      59.925  -4.931  28.525  0.00  0.00     0.002 A 
ATOM     17  C   UNL d   1      59.423  -4.288  28.669  0.00  0.00     0.021 A 
ENDBRANCH   9  11
ENDBRANCH   7   8
ENDBRANCH   6   7
ENDBRANCH   3   6
BRANCH   1  18
ATOM     18  C   UNL d   1      58.461  -0.274  30.525  0.00  0.00     0.084 C 
BRANCH  18  19
ATOM     19  C   UNL d   1      58.820  -0.216  29.774  0.00  0.00     0.019 C 
BRANCH  19  20
ATOM     20  C   UNL d   1      59.588   0.087  29.702  0.00  0.00     0.002 A 
ATOM     21  C   UNL d   1      59.859   0.328  28.968  0.00  0.00     0.000 A 
ATOM     22  C   UNL d   1      60.624   0.628  28.902  0.00  0.00     0.000 A 
ATOM     23  C   UNL d   1      61.108   0.682  29.573  0.00  0.00     0.000 A 
ATOM     24  C   UNL d   1      60.827   0.435  30.312  0.00  0.00     0.000 A 
ATOM     25  C   UNL d   1      60.060   0.137  30.366  0.00  0.00     0.000 A 
ENDBRANCH  19  20
ENDBRANCH  18  19
ENDBRANCH   1  18
BRANCH   2  26
ATOM     26  C   UNL d   1      57.286  -0.300  31.882  0.00  0.00     0.057 C 
BRANCH  26  27
ATOM     27  C   UNL d   1      56.650  -0.322  32.403  0.00  0.00     0.067 A 
ATOM     28  N   UNL d   1      56.650  -0.066  33.188  0.00  0.00    -0.303 N 
ATOM     29  C   UNL d   1      55.895  -0.191  33.500  0.00  0.00     0.080 A 
ATOM     30  C   UNL d   1      57.294   0.258  33.587  0.00  0.00     0.100 C 
ATOM     31  C   UNL d   1      55.426  -0.524  32.912  0.00  0.00     0.021 A 
ATOM     32  C   UNL d   1      55.887  -0.606  32.235  0.00  0.00     0.019 A 
ENDBRANCH  26  27
ENDBRANCH   2  26
TORSDOF 9
ENDMDL
MODEL 2
REMARK VINA RESULT:      -0.5      1.930      5.456
REMARK  9 active torsions:
REMARK  status: ('A' for Active; 'I' for Inactive)
REMARK    1  A    between atoms: C_9  and  N_1 
REMARK    2  A    between atoms: C_6  and  C_2 
REMARK    3  A    between atoms: S_11  and  C_3 
REMARK    4  A    between atoms: C_7  and  C_6 
REMARK    5  A    between atoms: C_20  and  C_9 
REMARK       I    between atoms: N_10  and  C_12 
REMARK    6  A    between atoms: C_13  and  N_10 
REMARK    7  A    between atoms: C_19  and  S_11 
REMARK    8  A    between atoms: C_12  and  C_19 
REMARK    9  A    between atoms: C_23  and  C_20 
ROOT
ATOM      1  N   UNL d   1      58.197  -0.814  30.248  0.00  0.00    -0.268 N 
ATOM      2  C   UNL d   1      58.892  -0.401  30.077  0.00  0.00     0.172 A 
ATOM      3  C   UNL d   1      57.716  -0.330  30.710  0.00  0.00     0.201 A 
ATOM      4  N   UNL d   1      58.841   0.338  30.432  0.00  0.00    -0.128 NA
ATOM      5  N   UNL d   1      58.117   0.389  30.824  0.00  0.00    -0.121 NA
ENDROOT
BRANCH   3   6
ATOM      6  S   UNL d   1      56.974  -0.518  31.004  0.00  0.00    -0.043 SA
BRANCH   6   7
ATOM      7  C   UNL d   1      56.896  -0.836  31.761  0.00  0.00     0.101 C 
BRANCH   7   8
ATOM      8  C   UNL d   1      56.300  -0.564  32.264  0.00  0.00     0.286 C 
ATOM      9  N   UNL d   1      56.508  -0.215  32.983  0.00  0.00    -0.205 NA
ATOM     10  O   UNL d   1      55.510  -0.638  32.054  0.00  0.00    -0.265 OA
BRANCH   9  11
ATOM     11  C   UNL d   1      55.925   0.053  33.480  0.00  0.00     0.112 A 
ATOM     12  C   UNL d   1      56.136   0.398  34.199  0.00  0.00     0.158 A 
ATOM     13  F   UNL d   1      56.933   0.471  34.415  0.00  0.00    -0.203 F 
ATOM     14  C   UNL d   1      55.557   0.676  34.715  0.00  0.00     0.031 A 
ATOM     15  C   UNL d   1      54.757   0.604  34.500  0.00  0.00     0.002 A 
ATOM     16  C   UNL d   1      54.549   0.257  33.779  0.00  0.00     0.002 A 
ATOM     17  C   UNL d   1      55.141  -0.018  33.269  0.00  0.00     0.021 A 
ENDBRANCH   9  11
ENDBRANCH   7   8
ENDBRANCH   6   7
ENDBRANCH   3   6
BRANCH   1  18
ATOM     18  C   UNL d   1      58.017  -1.580  29.999  0.00  0.00     0.084 C 
BRANCH  18  19
ATOM     19  C   UNL d   1      58.227  -1.826  29.230  0.00  0.00     0.019 C 
BRANCH  19  20
ATOM     20  C   UNL d   1      58.380  -2.626  29.077  0.00  0.00     0.002 A 
ATOM     21  C   UNL d   1      59.155  -2.890  29.056  0.00  0.00     0.000 A 
ATOM     22  C   UNL d   1      59.303  -3.686  28.903  0.00  0.00     0.000 A 
ATOM     23  C   UNL d   1      58.672  -4.208  28.773  0.00  0.00     0.000 A 
ATOM     24  C   UNL d   1      57.892  -3.934  28.795  0.00  0.00     0.000 A 
ATOM     25  C   UNL d   1      57.755  -3.135  28.949  0.00  0.00     0.000 A 
ENDBRANCH  19  20
ENDBRANCH  18  19
ENDBRANCH   1  18
BRANCH   2  26
ATOM     26  C   UNL d   1      59.527  -0.681  29.628  0.00  0.00     0.057 C 
BRANCH  26  27
ATOM     27  C   UNL d   1      60.070  -0.154  29.307  0.00  0.00     0.067 A 
ATOM     28  N   UNL d   1      60.753   0.130  29.674  0.00  0.00    -0.303 N 
ATOM     29  C   UNL d   1      61.132   0.644  29.150  0.00  0.00     0.080 A 
ATOM     30  C   UNL d   1      61.009  -0.068  30.432  0.00  0.00     0.100 C 
ATOM     31  C   UNL d   1      60.687   0.680  28.458  0.00  0.00     0.021 A 
ATOM     32  C   UNL d   1      60.033   0.190  28.551  0.00  0.00     0.019 A 
ENDBRANCH  26  27
ENDBRANCH   2  26
TORSDOF 9
ENDMDL
MODEL 3
REMARK VINA RESULT:       1.1      1.775      3.193
REMARK  9 active torsions:
REMARK  status: ('A' for Active; 'I' for Inactive)
REMARK    1  A    between atoms: C_9  and  N_1 
REMARK    2  A    between atoms: C_6  and  C_2 
REMARK    3  A    between atoms: S_11  and  C_3 
REMARK    4  A    between atoms: C_7  and  C_6 
REMARK    5  A    between atoms: C_20  and  C_9 
REMARK       I    between atoms: N_10  and  C_12 
REMARK    6  A    between atoms: C_13  and  N_10 
REMARK    7  A    between atoms: C_19  and  S_11 
REMARK    8  A    between atoms: C_12  and  C_19 
REMARK    9  A    between atoms: C_23  and  C_20 
ROOT
ATOM      1  N   UNL d   1      56.744   0.256  32.778  0.00  0.00    -0.268 N 
ATOM      2  C   UNL d   1      56.007   0.237  33.150  0.00  0.00     0.172 A 
ATOM      3  C   UNL d   1      56.707  -0.223  32.108  0.00  0.00     0.201 A 
ATOM      4  N   UNL d   1      55.514  -0.252  32.711  0.00  0.00    -0.128 NA
ATOM      5  N   UNL d   1      55.940  -0.539  32.066  0.00  0.00    -0.121 NA
ENDROOT
BRANCH   3   6
ATOM      6  S   UNL d   1      57.315  -0.364  31.576  0.00  0.00    -0.043 SA
BRANCH   6   7
ATOM      7  C   UNL d   1      57.145  -0.611  30.808  0.00  0.00     0.101 C 
BRANCH   7   8
ATOM      8  C   UNL d   1      57.705  -1.045  30.381  0.00  0.00     0.286 C 
ATOM      9  N   UNL d   1      58.193  -0.655  29.842  0.00  0.00    -0.205 NA
ATOM     10  O   UNL d   1      57.776  -1.856  30.490  0.00  0.00    -0.265 OA
BRANCH   9  11
ATOM     11  C   UNL d   1      58.742  -1.077  29.421  0.00  0.00     0.112 A 
ATOM     12  C   UNL d   1      59.302  -0.673  28.971  0.00  0.00     0.158 A 
ATOM     13  F   UNL d   1      59.307   0.155  28.945  0.00  0.00    -0.203 F 
ATOM     14  C   UNL d   1      59.868  -1.087  28.538  0.00  0.00     0.031 A 
ATOM     15  C   UNL d   1      59.866  -1.919  28.561  0.00  0.00     0.002 A 
ATOM     16  C   UNL d   1      59.303  -2.321  29.014  0.00  0.00     0.002 A 
ATOM     17  C   UNL d   1      58.740  -1.892  29.445  0.00  0.00     0.021 A 
ENDBRANCH   9  11
ENDBRANCH   7   8
ENDBRANCH   6   7
ENDBRANCH   3   6
BRANCH   1  18
ATOM     18  C   UNL d   1      57.403   0.680  33.035  0.00  0.00     0.084 C 
BRANCH  18  19
ATOM     19  C   UNL d   1      57.739   0.515  33.780  0.00  0.00     0.019 C 
BRANCH  19  20
ATOM     20  C   UNL d   1      58.560   0.559  33.886  0.00  0.00     0.002 A 
ATOM     21  C   UNL d   1      58.869   0.562  34.644  0.00  0.00     0.000 A 
ATOM     22  C   UNL d   1      59.686   0.606  34.744  0.00  0.00     0.000 A 
ATOM     23  C   UNL d   1      60.183   0.647  34.081  0.00  0.00     0.000 A 
ATOM     24  C   UNL d   1      59.864   0.645  33.318  0.00  0.00     0.000 A 
ATOM     25  C   UNL d   1      59.045   0.600  33.230  0.00  0.00     0.000 A 
ENDBRANCH  19  20
ENDBRANCH  18  19
ENDBRANCH   1  18
BRANCH   2  26
ATOM     26  C   UNL d   1      55.800   0.639  33.842  0.00  0.00     0.057 C 
BRANCH  26  27
ATOM     27  C   UNL d   1      55.038   0.577  34.145  0.00  0.00     0.067 A 
ATOM     28  N   UNL d   1      54.824   0.596  34.942  0.00  0.00    -0.303 N 
ATOM     29  C   UNL d   1      54.003   0.515  34.991  0.00  0.00     0.080 A 
ATOM     30  C   UNL d   1      55.343   0.679  35.576  0.00  0.00     0.100 C 
ATOM     31  C   UNL d   1      53.706   0.447  34.226  0.00  0.00     0.021 A 
ATOM     32  C   UNL d   1      54.340   0.485  33.703  0.00  0.00     0.019 A 
ENDBRANCH  26  27
ENDBRANCH   2  26
TORSDOF 9
ENDMDL
