MODEL 1
REMARK VINA RESULT:      93.4      0.000      0.000
REMARK  4 active torsions:
REMARK  status: ('A' for Active; 'I' for Inactive)
REMARK    1  A    between atoms: N_5  and  S_1 
REMARK    2  A    between atoms: C_8  and  S_1 
REMARK    3  A    between atoms: C_18  and  N_2 
REMARK    4  A    between atoms: C_10  and  N_5 
ROOT
ATOM      1  N   UNL d   1      61.978  45.859  49.449  0.00  0.00    -0.273 N 
ATOM      2  C   UNL d   1      61.533  45.425  49.992  0.00  0.00     0.265 A 
ATOM      3  C   UNL d   1      61.890  46.676  49.605  0.00  0.00     0.067 A 
ATOM      4  C   UNL d   1      61.378  46.739  50.261  0.00  0.00     0.021 A 
ATOM      5  C   UNL d   1      61.159  45.983  50.499  0.00  0.00     0.058 A 
ATOM      6  C   UNL d   1      61.318  48.142  50.414  0.00  0.00     0.105 A 
ATOM      7  C   UNL d   1      61.101  47.382  50.649  0.00  0.00     0.014 A 
ATOM      8  C   UNL d   1      62.197  47.338  49.249  0.00  0.00     0.018 A 
ATOM      9  C   UNL d   1      61.805  48.249  49.799  0.00  0.00     0.014 A 
ATOM     10  O   UNL d   1      61.482  44.581  50.012  0.00  0.00    -0.267 OA
ATOM     11  C   UNL d   1      60.664  45.871  51.125  0.00  0.00     0.005 A 
ATOM     12  C   UNL d   1      60.586  47.289  51.301  0.00  0.00     0.001 A 
ATOM     13  C   UNL d   1      60.349  46.548  51.563  0.00  0.00     0.000 A 
ENDROOT
BRANCH   6  14
ATOM     14  S   UNL d   1      61.027  48.792  50.821  0.00  0.00     0.287 S 
ATOM     15  O   UNL d   1      61.219  48.446  51.541  0.00  0.00    -0.198 OA
ATOM     16  O   UNL d   1      60.814  49.182  50.096  0.00  0.00    -0.198 OA
BRANCH  14  17
ATOM     17  N   UNL d   1      60.730  49.454  51.235  0.00  0.00    -0.139 NA
BRANCH  17  18
ATOM     18  C   UNL d   1      59.941  49.538  51.427  0.00  0.00     0.174 A 
ATOM     19  N   UNL d   1      59.402  49.535  50.791  0.00  0.00    -0.225 NA
ATOM     20  C   UNL d   1      58.597  49.616  50.936  0.00  0.00     0.101 A 
ATOM     21  C   UNL d   1      58.330  49.702  51.723  0.00  0.00     0.021 A 
ATOM     22  C   UNL d   1      58.867  49.706  52.365  0.00  0.00     0.005 A 
ATOM     23  C   UNL d   1      59.673  49.623  52.214  0.00  0.00     0.037 A 
ATOM     24  C   UNL d   1      60.597  49.573  52.598  0.00  0.00     0.003 C 
ENDBRANCH  17  18
ENDBRANCH  14  17
ENDBRANCH   6  14
BRANCH   1  25
ATOM     25  C   UNL d   1      62.432  45.527  48.851  0.00  0.00     0.083 C 
ATOM     26  C   UNL d   1      62.839  44.832  49.007  0.00  0.00     0.021 C 
ENDBRANCH   1  25
TORSDOF 4
ENDMDL
