MODEL 1
REMARK VINA RESULT:      23.6      0.000      0.000
REMARK  2 active torsions:
REMARK  status: ('A' for Active; 'I' for Inactive)
REMARK    1  A    between atoms: N_14  and  C_4 
REMARK    2  A    between atoms: C_9  and  C_5 
ROOT
ATOM      1  C   UNL d   1     -51.165  25.437  33.371  0.00  0.00     0.060 A 
ATOM      2  C   UNL d   1     -51.270  24.619  33.373  0.00  0.00     0.197 A 
ATOM      3  C   UNL d   1     -51.814  25.948  33.349  0.00  0.00     0.043 A 
ATOM      4  C   UNL d   1     -50.403  25.766  33.391  0.00  0.00     0.090 A 
ATOM      5  C   UNL d   1     -50.298  26.585  33.389  0.00  0.00     0.082 A 
ATOM      6  C   UNL d   1     -52.584  25.655  33.329  0.00  0.00     0.196 A 
ATOM      7  C   UNL d   1     -52.041  24.326  33.353  0.00  0.00     0.042 A 
ATOM      8  C   UNL d   1     -52.690  24.837  33.331  0.00  0.00     0.042 A 
ATOM      9  C   UNL d   1     -51.694  26.785  33.347  0.00  0.00     0.004 A 
ATOM     10  C   UNL d   1     -50.900  27.060  33.368  0.00  0.00     0.008 A 
ATOM     11  O   UNL d   1     -50.613  24.130  33.395  0.00  0.00    -0.286 OA
ATOM     12  O   UNL d   1     -53.236  26.199  33.306  0.00  0.00    -0.287 OA
ATOM     13  C   UNL d   1     -52.164  23.485  33.354  0.00  0.00     0.003 A 
ATOM     14  C   UNL d   1     -53.478  24.521  33.310  0.00  0.00     0.003 A 
ATOM     15  C   UNL d   1     -53.583  23.703  33.312  0.00  0.00     0.000 A 
ATOM     16  C   UNL d   1     -52.935  23.192  33.334  0.00  0.00     0.000 A 
ENDROOT
BRANCH   5  17
ATOM     17  C   UNL d   1     -49.564  26.945  33.408  0.00  0.00     0.212 C 
ATOM     18  O   UNL d   1     -49.478  27.766  33.329  0.00  0.00    -0.644 OA
ATOM     19  O   UNL d   1     -48.870  26.513  33.506  0.00  0.00    -0.644 OA
ENDBRANCH   5  17
BRANCH   4  20
ATOM     20  N   UNL d   1     -49.719  25.265  33.414  0.00  0.00    -0.242 NA
ATOM     21  C   UNL d   1     -49.777  24.461  33.309  0.00  0.00     0.119 C 
ENDBRANCH   4  20
TORSDOF 2
ENDMDL
