MODEL 1
REMARK VINA RESULT:      -1.2      0.000      0.000
REMARK  5 active torsions:
REMARK  status: ('A' for Active; 'I' for Inactive)
REMARK    1  A    between atoms: C_10  and  C_3 
REMARK    2  A    between atoms: C_11  and  N_5 
REMARK    3  A    between atoms: O_17  and  C_10 
REMARK    4  A    between atoms: C_22  and  O_17 
REMARK    5  A    between atoms: O_21  and  C_18 
ROOT
ATOM      1  C   UNL d   1      31.914  16.619 -24.542  0.00  0.00     0.086 A 
ATOM      2  C   UNL d   1      31.095  16.575 -24.578  0.00  0.00     0.038 A 
ATOM      3  C   UNL d   1      30.619  17.192 -24.297  0.00  0.00     0.165 A 
ATOM      4  C   UNL d   1      32.273  17.292 -24.217  0.00  0.00     0.282 A 
ATOM      5  N   UNL d   1      31.811  17.911 -23.935  0.00  0.00    -0.194 N 
ATOM      6  N   UNL d   1      30.986  17.861 -23.975  0.00  0.00    -0.157 NA
ATOM      7  C   UNL d   1      32.222  15.922 -24.863  0.00  0.00     0.137 A 
ATOM      8  C   UNL d   1      30.887  15.855 -24.921  0.00  0.00     0.039 A 
ATOM      9  S   UNL d   1      31.588  15.453 -25.097  0.00  0.00    -0.066 SA
ATOM     10  O   UNL d   1      33.092  17.344 -24.177  0.00  0.00    -0.265 OA
ATOM     11  N   UNL d   1      33.025  15.735 -24.936  0.00  0.00    -0.141 N 
ENDROOT
BRANCH   5  12
ATOM     12  C   UNL d   1      32.168  18.580 -23.613  0.00  0.00     0.086 A 
ATOM     13  C   UNL d   1      32.444  19.186 -24.110  0.00  0.00     0.021 A 
ATOM     14  C   UNL d   1      32.801  19.854 -23.782  0.00  0.00     0.026 A 
ATOM     15  C   UNL d   1      32.884  19.921 -22.965  0.00  0.00     0.094 A 
ATOM     16  C   UNL d   1      32.609  19.316 -22.469  0.00  0.00     0.026 A 
ATOM     17  C   UNL d   1      32.251  18.646 -22.801  0.00  0.00     0.021 A 
BRANCH  15  18
ATOM     18  O   UNL d   1      33.241  20.590 -22.647  0.00  0.00    -0.328 OA
ATOM     19  C   UNL d   1      32.812  21.082 -22.133  0.00  0.00     0.181 C 
ENDBRANCH  15  18
ENDBRANCH   5  12
BRANCH   3  20
ATOM     20  C   UNL d   1      29.798  17.144 -24.336  0.00  0.00     0.320 C 
ATOM     21  O   UNL d   1      29.410  17.269 -25.058  0.00  0.00    -0.257 OA
BRANCH  20  22
ATOM     22  O   UNL d   1      29.361  16.971 -23.655  0.00  0.00    -0.270 OA
BRANCH  22  23
ATOM     23  C   UNL d   1      28.547  16.877 -23.702  0.00  0.00     0.126 C 
ATOM     24  C   UNL d   1      28.162  16.319 -23.234  0.00  0.00     0.029 C 
ENDBRANCH  22  23
ENDBRANCH  20  22
ENDBRANCH   3  20
TORSDOF 5
ENDMDL
MODEL 2
REMARK VINA RESULT:       1.7      1.422      2.500
REMARK  5 active torsions:
REMARK  status: ('A' for Active; 'I' for Inactive)
REMARK    1  A    between atoms: C_10  and  C_3 
REMARK    2  A    between atoms: C_11  and  N_5 
REMARK    3  A    between atoms: O_17  and  C_10 
REMARK    4  A    between atoms: C_22  and  O_17 
REMARK    5  A    between atoms: O_21  and  C_18 
ROOT
ATOM      1  C   UNL d   1      30.255  17.422 -24.456  0.00  0.00     0.086 A 
ATOM      2  C   UNL d   1      30.648  16.705 -24.385  0.00  0.00     0.038 A 
ATOM      3  C   UNL d   1      31.472  16.672 -24.313  0.00  0.00     0.165 A 
ATOM      4  C   UNL d   1      30.691  18.128 -24.454  0.00  0.00     0.282 A 
ATOM      5  N   UNL d   1      31.509  18.108 -24.382  0.00  0.00    -0.194 N 
ATOM      6  N   UNL d   1      31.899  17.381 -24.312  0.00  0.00    -0.157 NA
ATOM      7  C   UNL d   1      29.445  17.266 -24.518  0.00  0.00     0.137 A 
ATOM      8  C   UNL d   1      30.089  16.099 -24.403  0.00  0.00     0.039 A 
ATOM      9  S   UNL d   1      29.345  16.450 -24.485  0.00  0.00    -0.066 SA
ATOM     10  O   UNL d   1      30.306  18.850 -24.524  0.00  0.00    -0.265 OA
ATOM     11  N   UNL d   1      28.846  17.832 -24.598  0.00  0.00    -0.141 N 
ENDROOT
BRANCH   5  12
ATOM     12  C   UNL d   1      31.942  18.809 -24.381  0.00  0.00     0.086 A 
ATOM     13  C   UNL d   1      32.096  19.206 -25.093  0.00  0.00     0.021 A 
ATOM     14  C   UNL d   1      32.530  19.908 -25.085  0.00  0.00     0.026 A 
ATOM     15  C   UNL d   1      32.809  20.216 -24.375  0.00  0.00     0.094 A 
ATOM     16  C   UNL d   1      32.655  19.819 -23.663  0.00  0.00     0.026 A 
ATOM     17  C   UNL d   1      32.219  19.114 -23.673  0.00  0.00     0.021 A 
BRANCH  15  18
ATOM     18  O   UNL d   1      33.240  20.916 -24.376  0.00  0.00    -0.328 OA
ATOM     19  C   UNL d   1      33.015  21.539 -24.876  0.00  0.00     0.181 C 
ENDBRANCH  15  18
ENDBRANCH   5  12
BRANCH   3  20
ATOM     20  C   UNL d   1      31.861  15.950 -24.242  0.00  0.00     0.320 C 
ATOM     21  O   UNL d   1      31.974  15.473 -24.911  0.00  0.00    -0.257 OA
BRANCH  20  22
ATOM     22  O   UNL d   1      32.140  15.700 -23.504  0.00  0.00    -0.270 OA
BRANCH  22  23
ATOM     23  C   UNL d   1      32.943  15.730 -23.337  0.00  0.00     0.126 C 
ATOM     24  C   UNL d   1      33.220  15.565 -22.578  0.00  0.00     0.029 C 
ENDBRANCH  22  23
ENDBRANCH  20  22
ENDBRANCH   3  20
TORSDOF 5
ENDMDL
