MODEL 1
REMARK VINA RESULT:      49.5      0.000      0.000
REMARK  5 active torsions:
REMARK  status: ('A' for Active; 'I' for Inactive)
REMARK    1  A    between atoms: S_2  and  C_1 
REMARK    2  A    between atoms: C_8  and  S_2 
REMARK    3  A    between atoms: C_23  and  N_7 
REMARK    4  A    between atoms: N_13  and  C_10 
REMARK    5  A    between atoms: C_31  and  C_23 
ROOT
ATOM      1  C   UNL d   1      46.037 -17.337  43.113  0.00  0.00     0.144 A 
ATOM      2  C   UNL d   1      46.127 -15.905  43.040  0.00  0.00     0.058 A 
ATOM      3  C   UNL d   1      46.270 -16.647  42.710  0.00  0.00     0.209 A 
ATOM      4  C   UNL d   1      45.662 -17.276  43.848  0.00  0.00     0.095 A 
ATOM      5  C   UNL d   1      45.752 -15.843  43.774  0.00  0.00     0.069 A 
ATOM      6  N   UNL d   1      45.519 -16.524  44.178  0.00  0.00    -0.303 N 
ATOM      7  C   UNL d   1      45.608 -15.101  44.105  0.00  0.00     0.037 A 
ATOM      8  C   UNL d   1      45.841 -14.420  43.701  0.00  0.00     0.093 A 
ATOM      9  C   UNL d   1      46.359 -15.224  42.636  0.00  0.00     0.036 A 
ATOM     10  C   UNL d   1      46.216 -14.481  42.966  0.00  0.00     0.156 A 
ATOM     11  O   UNL d   1      46.644 -16.708  41.976  0.00  0.00    -0.286 OA
ATOM     12  F   UNL d   1      46.449 -13.788  42.562  0.00  0.00    -0.203 F 
ENDROOT
BRANCH   1  13
ATOM     13  S   UNL d   1      46.180 -18.083  42.783  0.00  0.00     0.214 S 
ATOM     14  O   UNL d   1      46.615 -17.723  42.167  0.00  0.00    -0.217 OA
ATOM     15  O   UNL d   1      45.745 -18.442  43.400  0.00  0.00    -0.217 OA
BRANCH  13  16
ATOM     16  C   UNL d   1      46.326 -18.834  42.448  0.00  0.00     0.088 A 
ATOM     17  C   UNL d   1      46.385 -19.501  42.929  0.00  0.00     0.011 A 
ATOM     18  C   UNL d   1      46.529 -20.240  42.593  0.00  0.00     0.001 A 
ATOM     19  C   UNL d   1      46.300 -19.429  43.749  0.00  0.00     0.001 C 
ATOM     20  C   UNL d   1      46.614 -20.312  41.769  0.00  0.00     0.000 A 
ATOM     21  C   UNL d   1      46.555 -19.645  41.291  0.00  0.00     0.001 A 
ATOM     22  C   UNL d   1      46.411 -18.906  41.624  0.00  0.00     0.011 A 
ATOM     23  C   UNL d   1      46.639 -19.713  40.472  0.00  0.00     0.000 C 
ENDBRANCH  13  16
ENDBRANCH   1  13
BRANCH   6  24
ATOM     24  C   UNL d   1      45.145 -16.463  44.912  0.00  0.00     0.080 C 
BRANCH  24  25
ATOM     25  C   UNL d   1      44.321 -16.418  44.954  0.00  0.00     0.019 C 
ATOM     26  C   UNL d   1      43.943 -15.687  44.886  0.00  0.00     0.002 C 
ENDBRANCH  24  25
ENDBRANCH   6  24
BRANCH   8  27
ATOM     27  N   UNL d   1      45.698 -13.674  44.032  0.00  0.00    -0.298 N 
ATOM     28  C   UNL d   1      46.228 -13.362  44.583  0.00  0.00     0.107 A 
ATOM     29  C   UNL d   1      46.087 -12.619  44.913  0.00  0.00     0.142 A 
ATOM     30  O   UNL d   1      45.407 -12.193  44.683  0.00  0.00    -0.300 OA
ATOM     31  C   UNL d   1      44.881 -12.512  44.131  0.00  0.00     0.142 A 
ATOM     32  C   UNL d   1      45.030 -13.250  43.809  0.00  0.00     0.107 A 
ENDBRANCH   8  27
TORSDOF 5
ENDMDL
