MODEL 1
REMARK VINA RESULT:      37.8      0.000      0.000
REMARK  5 active torsions:
REMARK  status: ('A' for Active; 'I' for Inactive)
REMARK    1  A    between atoms: O_8  and  C_1 
REMARK    2  A    between atoms: C_10  and  C_5 
REMARK    3  A    between atoms: C_12  and  O_8 
REMARK    4  A    between atoms: N_9  and  C_10 
REMARK    5  A    between atoms: O_24  and  C_17 
ROOT
ATOM      1  C   UNL d   1      45.429 -14.102  44.192  0.00  0.00     0.161 A 
ATOM      2  C   UNL d   1      45.725 -15.737  44.218  0.00  0.00     0.108 A 
ATOM      3  C   UNL d   1      45.034 -15.430  44.577  0.00  0.00     0.064 A 
ATOM      4  C   UNL d   1      44.887 -14.622  44.564  0.00  0.00     0.222 A 
ATOM      5  C   UNL d   1      45.874 -16.554  44.231  0.00  0.00     0.079 A 
ATOM      6  O   UNL d   1      46.268 -15.230  43.848  0.00  0.00    -0.305 OA
ATOM      7  C   UNL d   1      46.115 -14.406  43.837  0.00  0.00     0.126 A 
ATOM      8  C   UNL d   1      44.502 -15.954  44.943  0.00  0.00     0.009 A 
ATOM      9  C   UNL d   1      45.334 -17.062  44.600  0.00  0.00     0.199 A 
ATOM     10  O   UNL d   1      44.207 -14.316  44.916  0.00  0.00    -0.284 OA
ATOM     11  C   UNL d   1      44.652 -16.763  44.954  0.00  0.00     0.042 A 
ATOM     12  O   UNL d   1      45.485 -17.872  44.610  0.00  0.00    -0.286 OA
ATOM     13  C   UNL d   1      46.647 -13.896  43.472  0.00  0.00     0.029 C 
ENDROOT
BRANCH   1  14
ATOM     14  O   UNL d   1      45.279 -13.293  44.181  0.00  0.00    -0.300 OA
BRANCH  14  15
ATOM     15  C   UNL d   1      45.257 -12.889  43.464  0.00  0.00     0.122 A 
ATOM     16  C   UNL d   1      44.532 -12.619  43.173  0.00  0.00     0.117 A 
ATOM     17  C   UNL d   1      44.505 -12.215  42.458  0.00  0.00     0.026 A 
ATOM     18  C   UNL d   1      45.198 -12.080  42.030  0.00  0.00     0.002 A 
ATOM     19  C   UNL d   1      45.925 -12.356  42.329  0.00  0.00     0.002 A 
ATOM     20  C   UNL d   1      45.946 -12.759  43.046  0.00  0.00     0.027 A 
BRANCH  16  21
ATOM     21  O   UNL d   1      43.844 -12.751  43.594  0.00  0.00    -0.326 OA
ATOM     22  C   UNL d   1      43.216 -12.214  43.547  0.00  0.00     0.181 C 
ENDBRANCH  16  21
ENDBRANCH  14  15
ENDBRANCH   1  14
BRANCH   5  23
ATOM     23  C   UNL d   1      46.545 -16.848  43.882  0.00  0.00     0.086 C 
BRANCH  23  24
ATOM     24  N   UNL d   1      46.500 -17.515  43.395  0.00  0.00    -0.300 N 
ATOM     25  C   UNL d   1      46.364 -17.421  42.587  0.00  0.00     0.100 A 
ATOM     26  C   UNL d   1      46.319 -18.085  42.101  0.00  0.00     0.100 A 
ATOM     27  N   UNL d   1      46.409 -18.840  42.423  0.00  0.00    -0.299 N 
ATOM     28  C   UNL d   1      46.545 -18.929  43.232  0.00  0.00     0.100 A 
ATOM     29  C   UNL d   1      46.364 -19.504  41.938  0.00  0.00     0.100 C 
ATOM     30  C   UNL d   1      46.590 -18.263  43.719  0.00  0.00     0.100 A 
ENDBRANCH  23  24
ENDBRANCH   5  23
TORSDOF 5
ENDMDL
