MODEL 1
REMARK VINA RESULT:      44.5      0.000      0.000
REMARK  5 active torsions:
REMARK  status: ('A' for Active; 'I' for Inactive)
REMARK    1  A    between atoms: C_4  and  C_1 
REMARK    2  A    between atoms: N_8  and  C_4 
REMARK    3  A    between atoms: C_11  and  N_8 
REMARK    4  A    between atoms: O_17  and  C_12 
REMARK    5  A    between atoms: C_20  and  O_17 
ROOT
ATOM      1  C   UNL d   1      59.087  49.707  50.983  0.00  0.00     0.105 C 
ENDROOT
BRANCH   1   2
ATOM      2  C   UNL d   1      58.330  49.695  50.627  0.00  0.00     0.096 A 
ATOM      3  C   UNL d   1      57.654  49.684  51.092  0.00  0.00     0.196 A 
ATOM      4  C   UNL d   1      56.909  49.672  50.729  0.00  0.00     0.019 A 
ATOM      5  O   UNL d   1      57.712  49.683  51.926  0.00  0.00    -0.287 OA
ATOM      6  C   UNL d   1      56.846  49.672  49.904  0.00  0.00     0.043 A 
ATOM      7  C   UNL d   1      57.533  49.684  49.442  0.00  0.00     0.019 A 
ATOM      8  C   UNL d   1      56.095  49.659  50.211  0.00  0.00     0.009 C 
ATOM      9  C   UNL d   1      56.378  49.666  49.224  0.00  0.00     0.009 C 
ATOM     10  C   UNL d   1      58.274  49.696  49.797  0.00  0.00     0.196 A 
ATOM     11  O   UNL d   1      58.955  49.708  49.314  0.00  0.00    -0.287 OA
ENDBRANCH   1   2
BRANCH   1  12
ATOM     12  N   UNL d   1      59.373  49.058  51.391  0.00  0.00    -0.244 NA
BRANCH  12  13
ATOM     13  C   UNL d   1      59.998  48.625  51.079  0.00  0.00     0.082 A 
ATOM     14  C   UNL d   1      59.890  47.823  50.921  0.00  0.00     0.021 A 
ATOM     15  C   UNL d   1      60.523  47.390  50.607  0.00  0.00     0.026 A 
ATOM     16  C   UNL d   1      61.250  47.747  50.452  0.00  0.00     0.100 A 
ATOM     17  C   UNL d   1      61.344  48.552  50.615  0.00  0.00     0.026 A 
ATOM     18  C   UNL d   1      60.720  48.989  50.927  0.00  0.00     0.021 A 
BRANCH  16  19
ATOM     19  O   UNL d   1      61.894  47.302  50.130  0.00  0.00    -0.305 OA
BRANCH  19  20
ATOM     20  C   UNL d   1      61.804  46.484  49.938  0.00  0.00     0.123 C 
ATOM     21  C   UNL d   1      62.464  46.065  49.675  0.00  0.00     0.029 C 
ENDBRANCH  19  20
ENDBRANCH  16  19
ENDBRANCH  12  13
ENDBRANCH   1  12
TORSDOF 5
ENDMDL
MODEL 2
REMARK VINA RESULT:      44.8      1.388      1.904
REMARK  5 active torsions:
REMARK  status: ('A' for Active; 'I' for Inactive)
REMARK    1  A    between atoms: C_4  and  C_1 
REMARK    2  A    between atoms: N_8  and  C_4 
REMARK    3  A    between atoms: C_11  and  N_8 
REMARK    4  A    between atoms: O_17  and  C_12 
REMARK    5  A    between atoms: C_20  and  O_17 
ROOT
ATOM      1  C   UNL d   1      59.125  49.662  50.410  0.00  0.00     0.105 C 
ENDROOT
BRANCH   1   2
ATOM      2  C   UNL d   1      58.303  49.601  50.265  0.00  0.00     0.096 A 
ATOM      3  C   UNL d   1      57.777  49.523  50.891  0.00  0.00     0.196 A 
ATOM      4  C   UNL d   1      56.965  49.464  50.737  0.00  0.00     0.019 A 
ATOM      5  O   UNL d   1      58.055  49.504  51.680  0.00  0.00    -0.287 OA
ATOM      6  C   UNL d   1      56.685  49.482  49.958  0.00  0.00     0.043 A 
ATOM      7  C   UNL d   1      57.222  49.561  49.333  0.00  0.00     0.019 A 
ATOM      8  C   UNL d   1      56.045  49.402  50.451  0.00  0.00     0.009 C 
ATOM      9  C   UNL d   1      56.055  49.458  49.426  0.00  0.00     0.009 C 
ATOM     10  C   UNL d   1      58.029  49.620  49.480  0.00  0.00     0.196 A 
ATOM     11  O   UNL d   1      58.554  49.699  48.837  0.00  0.00    -0.287 OA
ENDBRANCH   1   2
BRANCH   1  12
ATOM     12  N   UNL d   1      59.569  49.004  50.612  0.00  0.00    -0.244 NA
BRANCH  12  13
ATOM     13  C   UNL d   1      60.260  49.099  51.045  0.00  0.00     0.082 A 
ATOM     14  C   UNL d   1      60.212  49.180  51.864  0.00  0.00     0.021 A 
ATOM     15  C   UNL d   1      60.912  49.275  52.298  0.00  0.00     0.026 A 
ATOM     16  C   UNL d   1      61.647  49.289  51.924  0.00  0.00     0.100 A 
ATOM     17  C   UNL d   1      61.682  49.207  51.102  0.00  0.00     0.026 A 
ATOM     18  C   UNL d   1      60.990  49.112  50.665  0.00  0.00     0.021 A 
BRANCH  16  19
ATOM     19  O   UNL d   1      62.360  49.387  52.370  0.00  0.00    -0.305 OA
BRANCH  19  20
ATOM     20  C   UNL d   1      62.346  49.407  53.214  0.00  0.00     0.123 C 
ATOM     21  C   UNL d   1      61.673  49.698  53.591  0.00  0.00     0.029 C 
ENDBRANCH  19  20
ENDBRANCH  16  19
ENDBRANCH  12  13
ENDBRANCH   1  12
TORSDOF 5
ENDMDL
