MODEL 1
REMARK VINA RESULT:      83.4      0.000      0.000
REMARK  4 active torsions:
REMARK  status: ('A' for Active; 'I' for Inactive)
REMARK    1  A    between atoms: C_8  and  C_1 
REMARK    2  A    between atoms: C_12  and  C_3 
REMARK    3  A    between atoms: N_10  and  C_8 
REMARK    4  A    between atoms: C_25  and  C_13 
ROOT
ATOM      1  C   UNL d   1     -55.300-100.323 -44.193  0.00  0.00     0.079 A 
ATOM      2  C   UNL d   1     -55.019-101.468 -43.388  0.00  0.00     0.062 A 
ATOM      3  C   UNL d   1     -55.074-101.368 -41.967  0.00  0.00     0.064 A 
ATOM      4  C   UNL d   1     -55.225-100.671 -43.451  0.00  0.00     0.108 A 
ATOM      5  C   UNL d   1     -54.943-101.817 -42.645  0.00  0.00     0.199 A 
ATOM      6  O   UNL d   1     -55.355-100.224 -42.773  0.00  0.00    -0.305 OA
ATOM      7  C   UNL d   1     -55.280-100.572 -42.031  0.00  0.00     0.126 A 
ATOM      8  C   UNL d   1     -55.169-100.771 -44.876  0.00  0.00     0.199 A 
ATOM      9  C   UNL d   1     -54.888-101.916 -44.066  0.00  0.00     0.008 A 
ATOM     10  C   UNL d   1     -54.964-101.567 -44.812  0.00  0.00     0.039 A 
ATOM     11  O   UNL d   1     -54.738-102.613 -42.581  0.00  0.00    -0.286 OA
ATOM     12  O   UNL d   1     -55.243-100.430 -45.613  0.00  0.00    -0.286 OA
ENDROOT
BRANCH   3  13
ATOM     13  C   UNL d   1     -54.999-101.717 -41.225  0.00  0.00     0.007 A 
ATOM     14  C   UNL d   1     -55.037-101.250 -40.535  0.00  0.00     0.027 A 
ATOM     15  C   UNL d   1     -54.961-101.599 -39.793  0.00  0.00     0.123 A 
ATOM     16  O   UNL d   1     -55.000-101.132 -39.115  0.00  0.00    -0.301 OA
ATOM     17  C   UNL d   1     -54.848-102.414 -39.732  0.00  0.00     0.123 A 
ATOM     18  C   UNL d   1     -54.924-101.480 -38.365  0.00  0.00     0.149 A 
ATOM     19  C   UNL d   1     -54.810-102.303 -38.308  0.00  0.00     0.149 A 
ATOM     20  O   UNL d   1     -54.773-102.762 -38.990  0.00  0.00    -0.301 OA
ATOM     21  C   UNL d   1     -54.810-102.880 -40.419  0.00  0.00     0.027 A 
ATOM     22  C   UNL d   1     -54.885-102.532 -41.160  0.00  0.00     0.002 A 
ENDBRANCH   3  13
BRANCH   1  23
ATOM     23  C   UNL d   1     -55.505 -99.527 -44.257  0.00  0.00     0.085 C 
BRANCH  23  24
ATOM     24  N   UNL d   1     -56.297 -99.309 -44.324  0.00  0.00    -0.304 N 
ATOM     25  C   UNL d   1     -56.586 -99.000 -45.033  0.00  0.00     0.064 A 
ATOM     26  C   UNL d   1     -56.080 -98.910 -45.675  0.00  0.00     0.019 C 
ATOM     27  C   UNL d   1     -57.374 -98.786 -45.093  0.00  0.00     0.018 A 
ATOM     28  C   UNL d   1     -57.886 -98.877 -44.442  0.00  0.00     0.003 A 
ATOM     29  C   UNL d   1     -57.595 -99.185 -43.740  0.00  0.00     0.019 A 
ATOM     30  C   UNL d   1     -56.804 -99.403 -43.672  0.00  0.00     0.080 A 
ENDBRANCH  23  24
ENDBRANCH   1  23
BRANCH  10  31
ATOM     31  C   UNL d   1     -54.833-102.016 -45.499  0.00  0.00     0.003 C 
ATOM     32  C   UNL d   1     -55.468-102.384 -45.876  0.00  0.00     0.000 C 
ENDBRANCH  10  31
TORSDOF 4
ENDMDL
