MODEL 1
REMARK VINA RESULT:      27.1      0.000      0.000
REMARK  5 active torsions:
REMARK  status: ('A' for Active; 'I' for Inactive)
REMARK    1  A    between atoms: C_9  and  N_2 
REMARK    2  A    between atoms: C_7  and  O_10 
REMARK    3  A    between atoms: C_11  and  C_9 
REMARK    4  A    between atoms: O_10  and  C_14 
REMARK    5  A    between atoms: C_14  and  C_11 
ROOT
ATOM      1  C   UNL d   1      12.863  12.489  -3.810  0.00  0.00     0.086 C 
ENDROOT
BRANCH   1   2
ATOM      2  N   UNL d   1      13.146  12.971  -4.413  0.00  0.00    -0.268 N 
ATOM      3  C   UNL d   1      13.335  12.726  -5.176  0.00  0.00     0.296 A 
ATOM      4  S   UNL d   1      13.598  13.394  -5.599  0.00  0.00    -0.025 SA
ATOM      5  O   UNL d   1      13.278  11.961  -5.477  0.00  0.00    -0.259 OA
ATOM      6  C   UNL d   1      13.566  14.040  -5.086  0.00  0.00     0.050 A 
ATOM      7  C   UNL d   1      13.758  14.846  -5.194  0.00  0.00     0.008 A 
ATOM      8  C   UNL d   1      13.289  13.785  -4.358  0.00  0.00     0.073 A 
ATOM      9  C   UNL d   1      13.668  15.374  -4.569  0.00  0.00     0.001 A 
ATOM     10  C   UNL d   1      13.388  15.107  -3.838  0.00  0.00     0.002 A 
ATOM     11  C   UNL d   1      13.197  14.311  -3.729  0.00  0.00     0.018 A 
ENDBRANCH   1   2
BRANCH   1  12
ATOM     12  C   UNL d   1      13.388  12.029  -3.361  0.00  0.00     0.046 C 
BRANCH  12  13
ATOM     13  C   UNL d   1      13.185  11.779  -2.603  0.00  0.00     0.124 C 
BRANCH  13  14
ATOM     14  O   UNL d   1      13.744  11.782  -2.006  0.00  0.00    -0.305 OA
BRANCH  14  15
ATOM     15  C   UNL d   1      14.307  11.788  -1.400  0.00  0.00     0.100 A 
ATOM     16  C   UNL d   1      14.067  11.796  -0.613  0.00  0.00     0.023 A 
ATOM     17  C   UNL d   1      13.261  11.799  -0.432  0.00  0.00     0.002 C 
ATOM     18  C   UNL d   1      14.625  11.801  -0.016  0.00  0.00     0.002 A 
ATOM     19  C   UNL d   1      15.429  11.798  -0.201  0.00  0.00     0.000 A 
ATOM     20  C   UNL d   1      15.667  11.790  -0.992  0.00  0.00     0.002 A 
ATOM     21  C   UNL d   1      15.095  11.785  -1.592  0.00  0.00     0.025 A 
ENDBRANCH  14  15
ENDBRANCH  13  14
ENDBRANCH  12  13
ENDBRANCH   1  12
TORSDOF 5
ENDMDL
MODEL 2
REMARK VINA RESULT:      27.7      1.735      4.389
REMARK  5 active torsions:
REMARK  status: ('A' for Active; 'I' for Inactive)
REMARK    1  A    between atoms: C_9  and  N_2 
REMARK    2  A    between atoms: C_7  and  O_10 
REMARK    3  A    between atoms: C_11  and  C_9 
REMARK    4  A    between atoms: O_10  and  C_14 
REMARK    5  A    between atoms: C_14  and  C_11 
ROOT
ATOM      1  C   UNL d   1      13.677  11.780  -1.976  0.00  0.00     0.086 C 
ENDROOT
BRANCH   1   2
ATOM      2  N   UNL d   1      13.927  12.138  -1.279  0.00  0.00    -0.268 N 
ATOM      3  C   UNL d   1      13.508  12.153  -0.570  0.00  0.00     0.296 A 
ATOM      4  S   UNL d   1      13.966  12.572  -0.015  0.00  0.00    -0.025 SA
ATOM      5  O   UNL d   1      12.769  11.817  -0.425  0.00  0.00    -0.259 OA
ATOM      6  C   UNL d   1      14.660  12.809  -0.394  0.00  0.00     0.050 A 
ATOM      7  C   UNL d   1      15.322  13.241  -0.124  0.00  0.00     0.008 A 
ATOM      8  C   UNL d   1      14.639  12.544  -1.169  0.00  0.00     0.073 A 
ATOM      9  C   UNL d   1      15.945  13.396  -0.637  0.00  0.00     0.001 A 
ATOM     10  C   UNL d   1      15.915  13.125  -1.419  0.00  0.00     0.002 A 
ATOM     11  C   UNL d   1      15.262  12.698  -1.688  0.00  0.00     0.018 A 
ENDBRANCH   1   2
BRANCH   1  12
ATOM     12  C   UNL d   1      13.149  12.172  -2.482  0.00  0.00     0.046 C 
BRANCH  12  13
ATOM     13  C   UNL d   1      13.011  11.892  -3.244  0.00  0.00     0.124 C 
BRANCH  13  14
ATOM     14  O   UNL d   1      13.084  12.394  -3.886  0.00  0.00    -0.305 OA
BRANCH  14  15
ATOM     15  C   UNL d   1      13.158  12.904  -4.533  0.00  0.00     0.100 A 
ATOM     16  C   UNL d   1      13.306  12.599  -5.284  0.00  0.00     0.023 A 
ATOM     17  C   UNL d   1      13.379  11.783  -5.386  0.00  0.00     0.002 C 
ATOM     18  C   UNL d   1      13.380  13.104  -5.922  0.00  0.00     0.002 A 
ATOM     19  C   UNL d   1      13.306  13.919  -5.815  0.00  0.00     0.000 A 
ATOM     20  C   UNL d   1      13.158  14.222  -5.062  0.00  0.00     0.002 A 
ATOM     21  C   UNL d   1      13.084  13.703  -4.418  0.00  0.00     0.025 A 
ENDBRANCH  14  15
ENDBRANCH  13  14
ENDBRANCH  12  13
ENDBRANCH   1  12
TORSDOF 5
ENDMDL
