MODEL 1
REMARK VINA RESULT:      39.1      0.000      0.000
REMARK  2 active torsions:
REMARK  status: ('A' for Active; 'I' for Inactive)
REMARK    1  A    between atoms: C_10  and  N_3 
REMARK    2  A    between atoms: C_11  and  C_4 
ROOT
ATOM      1  C   UNL d   1      13.908  13.529  -3.226  0.00  0.00     0.152 A 
ATOM      2  C   UNL d   1      14.135  13.400  -2.450  0.00  0.00     0.065 A 
ATOM      3  N   UNL d   1      13.742  12.796  -3.571  0.00  0.00    -0.290 N 
ATOM      4  C   UNL d   1      14.110  12.586  -2.307  0.00  0.00     0.023 A 
ATOM      5  C   UNL d   1      13.869  12.218  -2.998  0.00  0.00     0.082 A 
ATOM      6  N   UNL d   1      13.879  14.296  -3.530  0.00  0.00    -0.206 NA
ATOM      7  C   UNL d   1      14.336  14.035  -1.963  0.00  0.00     0.143 A 
ATOM      8  N   UNL d   1      14.307  14.802  -2.267  0.00  0.00    -0.212 NA
ATOM      9  C   UNL d   1      14.081  14.932  -3.043  0.00  0.00     0.201 A 
ATOM     10 CL   UNL d   1      14.563  13.906  -1.186  0.00  0.00    -0.061 Cl
ENDROOT
BRANCH   3  11
ATOM     11  C   UNL d   1      13.497  12.630  -4.330  0.00  0.00     0.065 A 
ATOM     12  C   UNL d   1      13.019  11.973  -4.475  0.00  0.00     0.018 A 
ATOM     13  C   UNL d   1      12.770  11.804  -5.244  0.00  0.00     0.002 A 
ATOM     14  C   UNL d   1      13.000  12.297  -5.877  0.00  0.00     0.000 A 
ATOM     15  C   UNL d   1      13.478  12.952  -5.722  0.00  0.00     0.002 A 
ATOM     16  C   UNL d   1      13.725  13.118  -4.953  0.00  0.00     0.018 A 
ENDBRANCH   3  11
BRANCH   4  17
ATOM     17  C   UNL d   1      14.320  12.328  -1.551  0.00  0.00     0.002 A 
ATOM     18  C   UNL d   1      13.735  12.097  -1.015  0.00  0.00     0.000 A 
ATOM     19  C   UNL d   1      13.944  11.839  -0.259  0.00  0.00     0.000 A 
ATOM     20  C   UNL d   1      14.737  11.813  -0.041  0.00  0.00     0.000 A 
ATOM     21  C   UNL d   1      15.322  12.045  -0.578  0.00  0.00     0.000 A 
ATOM     22  C   UNL d   1      15.114  12.301  -1.329  0.00  0.00     0.000 A 
ENDBRANCH   4  17
TORSDOF 2
ENDMDL
MODEL 2
REMARK VINA RESULT:      40.4      1.639      3.999
REMARK  2 active torsions:
REMARK  status: ('A' for Active; 'I' for Inactive)
REMARK    1  A    between atoms: C_10  and  N_3 
REMARK    2  A    between atoms: C_11  and  C_4 
ROOT
ATOM      1  C   UNL d   1      14.312  13.208  -1.148  0.00  0.00     0.152 A 
ATOM      2  C   UNL d   1      13.954  12.852  -1.792  0.00  0.00     0.065 A 
ATOM      3  N   UNL d   1      14.663  13.912  -1.405  0.00  0.00    -0.290 N 
ATOM      4  C   UNL d   1      14.079  13.332  -2.454  0.00  0.00     0.023 A 
ATOM      5  C   UNL d   1      14.516  13.982  -2.212  0.00  0.00     0.082 A 
ATOM      6  N   UNL d   1      14.279  12.854  -0.404  0.00  0.00    -0.206 NA
ATOM      7  C   UNL d   1      13.555  12.135  -1.705  0.00  0.00     0.143 A 
ATOM      8  N   UNL d   1      13.522  11.780  -0.960  0.00  0.00    -0.212 NA
ATOM      9  C   UNL d   1      13.880  12.136  -0.315  0.00  0.00     0.201 A 
ATOM     10 CL   UNL d   1      13.197  11.779  -2.349  0.00  0.00    -0.061 Cl
ENDROOT
BRANCH   3  11
ATOM     11  C   UNL d   1      15.085  14.461  -0.976  0.00  0.00     0.065 A 
ATOM     12  C   UNL d   1      15.703  14.219  -0.488  0.00  0.00     0.018 A 
ATOM     13  C   UNL d   1      16.130  14.775  -0.052  0.00  0.00     0.002 A 
ATOM     14  C   UNL d   1      15.939  15.586  -0.106  0.00  0.00     0.000 A 
ATOM     15  C   UNL d   1      15.318  15.820  -0.598  0.00  0.00     0.002 A 
ATOM     16  C   UNL d   1      14.894  15.261  -1.030  0.00  0.00     0.018 A 
ENDBRANCH   3  11
BRANCH   4  17
ATOM     17  C   UNL d   1      13.762  13.077  -3.172  0.00  0.00     0.002 A 
ATOM     18  C   UNL d   1      13.825  12.283  -3.394  0.00  0.00     0.000 A 
ATOM     19  C   UNL d   1      13.508  12.027  -4.112  0.00  0.00     0.000 A 
ATOM     20  C   UNL d   1      13.129  12.565  -4.607  0.00  0.00     0.000 A 
ATOM     21  C   UNL d   1      13.066  13.359  -4.384  0.00  0.00     0.000 A 
ATOM     22  C   UNL d   1      13.381  13.613  -3.670  0.00  0.00     0.000 A 
ENDBRANCH   4  17
TORSDOF 2
ENDMDL
MODEL 3
REMARK VINA RESULT:      41.0      1.355      3.856
REMARK  2 active torsions:
REMARK  status: ('A' for Active; 'I' for Inactive)
REMARK    1  A    between atoms: C_10  and  N_3 
REMARK    2  A    between atoms: C_11  and  C_4 
ROOT
ATOM      1  C   UNL d   1      13.542  12.674  -3.240  0.00  0.00     0.152 A 
ATOM      2  C   UNL d   1      13.445  13.295  -3.766  0.00  0.00     0.065 A 
ATOM      3  N   UNL d   1      13.889  12.973  -2.551  0.00  0.00    -0.290 N 
ATOM      4  C   UNL d   1      13.730  13.983  -3.407  0.00  0.00     0.023 A 
ATOM      5  C   UNL d   1      14.002  13.781  -2.661  0.00  0.00     0.082 A 
ATOM      6  N   UNL d   1      13.306  11.911  -3.447  0.00  0.00    -0.206 NA
ATOM      7  C   UNL d   1      13.109  13.163  -4.508  0.00  0.00     0.143 A 
ATOM      8  N   UNL d   1      12.872  12.400  -4.715  0.00  0.00    -0.212 NA
ATOM      9  C   UNL d   1      12.969  11.779  -4.189  0.00  0.00     0.201 A 
ATOM     10 CL   UNL d   1      13.011  13.784  -5.034  0.00  0.00    -0.061 Cl
ENDROOT
BRANCH   3  11
ATOM     11  C   UNL d   1      14.096  12.580  -1.869  0.00  0.00     0.065 A 
ATOM     12  C   UNL d   1      13.522  12.182  -1.430  0.00  0.00     0.018 A 
ATOM     13  C   UNL d   1      13.732  11.783  -0.738  0.00  0.00     0.002 A 
ATOM     14  C   UNL d   1      14.526  11.780  -0.480  0.00  0.00     0.000 A 
ATOM     15  C   UNL d   1      15.094  12.181  -0.926  0.00  0.00     0.002 A 
ATOM     16  C   UNL d   1      14.881  12.578  -1.616  0.00  0.00     0.018 A 
ENDBRANCH   3  11
BRANCH   4  17
ATOM     17  C   UNL d   1      13.686  14.682  -3.843  0.00  0.00     0.002 A 
ATOM     18  C   UNL d   1      12.962  14.932  -4.155  0.00  0.00     0.000 A 
ATOM     19  C   UNL d   1      12.918  15.631  -4.591  0.00  0.00     0.000 A 
ATOM     20  C   UNL d   1      13.596  16.080  -4.715  0.00  0.00     0.000 A 
ATOM     21  C   UNL d   1      14.320  15.830  -4.402  0.00  0.00     0.000 A 
ATOM     22  C   UNL d   1      14.365  15.135  -3.969  0.00  0.00     0.000 A 
ENDBRANCH   4  17
TORSDOF 2
ENDMDL
