MODEL 1
REMARK VINA RESULT:      -2.2      0.000      0.000
REMARK  2 active torsions:
REMARK  status: ('A' for Active; 'I' for Inactive)
REMARK       I    between atoms: N_2  and  C_1 
REMARK    1  A    between atoms: C_4  and  N_2 
REMARK    2  A    between atoms: O_8  and  C_7 
ROOT
ATOM      1  C   UNL d   1      29.654  16.291 -24.297  0.00  0.00     0.102 A 
ATOM      2  C   UNL d   1      30.347  16.216 -23.855  0.00  0.00     0.044 A 
ATOM      3  C   UNL d   1      30.968  16.749 -23.965  0.00  0.00     0.096 A 
ATOM      4  C   UNL d   1      30.200  17.430 -24.962  0.00  0.00     0.004 A 
ATOM      5  C   UNL d   1      29.579  16.898 -24.851  0.00  0.00     0.020 A 
ATOM      6  C   UNL d   1      30.894  17.356 -24.519  0.00  0.00     0.024 A 
ENDROOT
BRANCH   1   7
ATOM      7  N   UNL d   1      29.030  15.758 -24.189  0.00  0.00    -0.056 NA
ATOM      8  C   UNL d   1      28.352  15.986 -23.769  0.00  0.00     0.787 C 
ATOM      9  N   UNL d   1      27.728  15.459 -23.658  0.00  0.00     0.064 N 
ATOM     10  N   UNL d   1      28.307  16.752 -23.459  0.00  0.00     0.064 N 
ENDBRANCH   1   7
BRANCH   3  11
ATOM     11  O   UNL d   1      31.662  16.674 -23.523  0.00  0.00    -0.328 OA
ATOM     12  C   UNL d   1      32.205  17.295 -23.498  0.00  0.00     0.181 C 
ENDBRANCH   3  11
TORSDOF 2
ENDMDL
MODEL 2
REMARK VINA RESULT:      -2.2      2.046      3.068
REMARK  2 active torsions:
REMARK  status: ('A' for Active; 'I' for Inactive)
REMARK       I    between atoms: N_2  and  C_1 
REMARK    1  A    between atoms: C_4  and  N_2 
REMARK    2  A    between atoms: O_8  and  C_7 
ROOT
ATOM      1  C   UNL d   1      30.925  16.417 -24.258  0.00  0.00     0.102 A 
ATOM      2  C   UNL d   1      30.140  16.632 -24.397  0.00  0.00     0.044 A 
ATOM      3  C   UNL d   1      29.534  16.306 -23.941  0.00  0.00     0.096 A 
ATOM      4  C   UNL d   1      30.501  15.549 -23.206  0.00  0.00     0.004 A 
ATOM      5  C   UNL d   1      31.107  15.876 -23.663  0.00  0.00     0.020 A 
ATOM      6  C   UNL d   1      29.716  15.764 -23.346  0.00  0.00     0.024 A 
ENDROOT
BRANCH   1   7
ATOM      7  N   UNL d   1      31.534  16.742 -24.714  0.00  0.00    -0.056 NA
ATOM      8  C   UNL d   1      31.975  17.384 -24.428  0.00  0.00     0.787 C 
ATOM      9  N   UNL d   1      32.583  17.711 -24.879  0.00  0.00     0.064 N 
ATOM     10  N   UNL d   1      31.799  17.695 -23.683  0.00  0.00     0.064 N 
ENDBRANCH   1   7
BRANCH   3  11
ATOM     11  O   UNL d   1      28.749  16.521 -24.080  0.00  0.00    -0.328 OA
ATOM     12  C   UNL d   1      28.203  16.518 -23.461  0.00  0.00     0.181 C 
ENDBRANCH   3  11
TORSDOF 2
ENDMDL
MODEL 3
REMARK VINA RESULT:      -2.1      1.844      2.652
REMARK  2 active torsions:
REMARK  status: ('A' for Active; 'I' for Inactive)
REMARK       I    between atoms: N_2  and  C_1 
REMARK    1  A    between atoms: C_4  and  N_2 
REMARK    2  A    between atoms: O_8  and  C_7 
ROOT
ATOM      1  C   UNL d   1      32.181  17.243 -23.988  0.00  0.00     0.102 A 
ATOM      2  C   UNL d   1      32.448  17.540 -23.265  0.00  0.00     0.044 A 
ATOM      3  C   UNL d   1      32.778  18.295 -23.225  0.00  0.00     0.096 A 
ATOM      4  C   UNL d   1      32.575  18.455 -24.632  0.00  0.00     0.004 A 
ATOM      5  C   UNL d   1      32.244  17.699 -24.673  0.00  0.00     0.020 A 
ATOM      6  C   UNL d   1      32.842  18.752 -23.909  0.00  0.00     0.024 A 
ENDROOT
BRANCH   1   7
ATOM      7  N   UNL d   1      31.849  16.486 -24.032  0.00  0.00    -0.056 NA
ATOM      8  C   UNL d   1      31.028  16.391 -24.087  0.00  0.00     0.787 C 
ATOM      9  N   UNL d   1      30.693  15.639 -24.131  0.00  0.00     0.064 N 
ATOM     10  N   UNL d   1      30.543  17.061 -24.098  0.00  0.00     0.064 N 
ENDBRANCH   1   7
BRANCH   3  11
ATOM     11  O   UNL d   1      33.045  18.592 -22.502  0.00  0.00    -0.328 OA
ATOM     12  C   UNL d   1      33.041  19.406 -22.362  0.00  0.00     0.181 C 
ENDBRANCH   3  11
TORSDOF 2
ENDMDL
