MODEL 1
REMARK VINA RESULT:      -3.7      0.000      0.000
REMARK  4 active torsions:
REMARK  status: ('A' for Active; 'I' for Inactive)
REMARK    1  A    between atoms: C_2  and  C_1 
REMARK    2  A    between atoms: C_3  and  C_1 
REMARK       I    between atoms: N_6  and  C_2 
REMARK    3  A    between atoms: C_13  and  C_3 
REMARK    4  A    between atoms: C_8  and  N_6 
ROOT
ATOM      1  C   UNL d   1      32.997  19.135 -22.783  0.00  0.00     0.282 C 
ATOM      2  N   UNL d   1      32.735  18.946 -23.577  0.00  0.00    -0.208 NA
ATOM      3  O   UNL d   1      33.116  18.534 -22.228  0.00  0.00    -0.265 OA
ENDROOT
BRANCH   1   4
ATOM      4  C   UNL d   1      33.128  19.916 -22.580  0.00  0.00     0.104 C 
BRANCH   4   5
ATOM      5  C   UNL d   1      33.083  20.142 -21.782  0.00  0.00     0.200 C 
ATOM      6  O   UNL d   1      33.240  19.594 -21.182  0.00  0.00    -0.286 OA
BRANCH   5   7
ATOM      7  C   UNL d   1      32.882  20.916 -21.596  0.00  0.00     0.039 A 
ATOM      8  C   UNL d   1      32.331  21.066 -20.999  0.00  0.00     0.003 A 
ATOM      9  C   UNL d   1      32.133  21.849 -20.819  0.00  0.00     0.000 A 
ATOM     10  C   UNL d   1      32.483  22.467 -21.229  0.00  0.00     0.000 A 
ATOM     11  C   UNL d   1      33.039  22.310 -21.831  0.00  0.00     0.000 A 
ATOM     12  C   UNL d   1      33.241  21.535 -22.017  0.00  0.00     0.003 A 
ENDBRANCH   5   7
ENDBRANCH   4   5
ENDBRANCH   1   4
BRANCH   2  13
ATOM     13  C   UNL d   1      32.603  18.135 -23.772  0.00  0.00     0.087 A 
ATOM     14  C   UNL d   1      31.860  17.817 -23.719  0.00  0.00     0.046 A 
ATOM     15  C   UNL d   1      31.735  17.046 -23.904  0.00  0.00     0.124 A 
ATOM     16  O   UNL d   1      30.975  16.706 -23.854  0.00  0.00    -0.301 OA
ATOM     17  C   UNL d   1      32.370  16.570 -24.151  0.00  0.00     0.123 A 
ATOM     18  C   UNL d   1      30.845  15.929 -24.040  0.00  0.00     0.149 A 
ATOM     19  C   UNL d   1      31.480  15.453 -24.286  0.00  0.00     0.149 A 
ATOM     20  O   UNL d   1      32.239  15.759 -24.345  0.00  0.00    -0.301 OA
ATOM     21  C   UNL d   1      33.124  16.869 -24.210  0.00  0.00     0.028 A 
ATOM     22  C   UNL d   1      33.238  17.659 -24.018  0.00  0.00     0.021 A 
ENDBRANCH   2  13
TORSDOF 4
ENDMDL
MODEL 2
REMARK VINA RESULT:      -3.1      1.277      1.868
REMARK  4 active torsions:
REMARK  status: ('A' for Active; 'I' for Inactive)
REMARK    1  A    between atoms: C_2  and  C_1 
REMARK    2  A    between atoms: C_3  and  C_1 
REMARK       I    between atoms: N_6  and  C_2 
REMARK    3  A    between atoms: C_13  and  C_3 
REMARK    4  A    between atoms: C_8  and  N_6 
ROOT
ATOM      1  C   UNL d   1      32.919  20.530 -21.964  0.00  0.00     0.282 C 
ATOM      2  N   UNL d   1      33.241  19.736 -22.007  0.00  0.00    -0.208 NA
ATOM      3  O   UNL d   1      32.451  20.825 -22.579  0.00  0.00    -0.265 OA
ENDROOT
BRANCH   1   4
ATOM      4  C   UNL d   1      33.078  20.992 -21.309  0.00  0.00     0.104 C 
BRANCH   4   5
ATOM      5  C   UNL d   1      32.452  21.378 -20.921  0.00  0.00     0.200 C 
ATOM      6  O   UNL d   1      31.678  21.098 -20.995  0.00  0.00    -0.286 OA
BRANCH   5   7
ATOM      7  C   UNL d   1      32.613  22.041 -20.464  0.00  0.00     0.039 A 
ATOM      8  C   UNL d   1      33.052  21.965 -19.769  0.00  0.00     0.003 A 
ATOM      9  C   UNL d   1      33.209  22.639 -19.315  0.00  0.00     0.000 A 
ATOM     10  C   UNL d   1      32.931  23.371 -19.555  0.00  0.00     0.000 A 
ATOM     11  C   UNL d   1      32.488  23.443 -20.259  0.00  0.00     0.000 A 
ATOM     12  C   UNL d   1      32.327  22.779 -20.716  0.00  0.00     0.003 A 
ENDBRANCH   5   7
ENDBRANCH   4   5
ENDBRANCH   1   4
BRANCH   2  13
ATOM     13  C   UNL d   1      33.067  19.271 -22.690  0.00  0.00     0.087 A 
ATOM     14  C   UNL d   1      32.734  18.537 -22.611  0.00  0.00     0.046 A 
ATOM     15  C   UNL d   1      32.569  18.095 -23.260  0.00  0.00     0.124 A 
ATOM     16  O   UNL d   1      32.226  17.338 -23.192  0.00  0.00    -0.301 OA
ATOM     17  C   UNL d   1      32.740  18.390 -24.018  0.00  0.00     0.123 A 
ATOM     18  C   UNL d   1      32.058  16.888 -23.845  0.00  0.00     0.149 A 
ATOM     19  C   UNL d   1      32.229  17.183 -24.603  0.00  0.00     0.149 A 
ATOM     20  O   UNL d   1      32.567  17.925 -24.701  0.00  0.00    -0.301 OA
ATOM     21  C   UNL d   1      33.075  19.124 -24.120  0.00  0.00     0.028 A 
ATOM     22  C   UNL d   1      33.238  19.566 -23.448  0.00  0.00     0.021 A 
ENDBRANCH   2  13
TORSDOF 4
ENDMDL
MODEL 3
REMARK VINA RESULT:      -2.9      1.285      5.157
REMARK  4 active torsions:
REMARK  status: ('A' for Active; 'I' for Inactive)
REMARK    1  A    between atoms: C_2  and  C_1 
REMARK    2  A    between atoms: C_3  and  C_1 
REMARK       I    between atoms: N_6  and  C_2 
REMARK    3  A    between atoms: C_13  and  C_3 
REMARK    4  A    between atoms: C_8  and  N_6 
ROOT
ATOM      1  C   UNL d   1      32.865  19.205 -22.850  0.00  0.00     0.282 C 
ATOM      2  N   UNL d   1      32.997  19.542 -22.073  0.00  0.00    -0.208 NA
ATOM      3  O   UNL d   1      32.659  19.691 -23.487  0.00  0.00    -0.265 OA
ENDROOT
BRANCH   1   4
ATOM      4  C   UNL d   1      32.944  18.398 -22.956  0.00  0.00     0.104 C 
BRANCH   4   5
ATOM      5  C   UNL d   1      32.502  18.021 -23.550  0.00  0.00     0.200 C 
ATOM      6  O   UNL d   1      32.110  18.466 -24.127  0.00  0.00    -0.286 OA
BRANCH   5   7
ATOM      7  C   UNL d   1      32.461  17.201 -23.558  0.00  0.00     0.039 A 
ATOM      8  C   UNL d   1      33.154  16.754 -23.516  0.00  0.00     0.003 A 
ATOM      9  C   UNL d   1      33.103  15.927 -23.525  0.00  0.00     0.000 A 
ATOM     10  C   UNL d   1      32.372  15.561 -23.575  0.00  0.00     0.000 A 
ATOM     11  C   UNL d   1      31.675  16.017 -23.617  0.00  0.00     0.000 A 
ATOM     12  C   UNL d   1      31.716  16.838 -23.609  0.00  0.00     0.003 A 
ENDBRANCH   5   7
ENDBRANCH   4   5
ENDBRANCH   1   4
BRANCH   2  13
ATOM     13  C   UNL d   1      32.912  20.377 -21.980  0.00  0.00     0.087 A 
ATOM     14  C   UNL d   1      32.511  20.679 -21.344  0.00  0.00     0.046 A 
ATOM     15  C   UNL d   1      32.430  21.472 -21.255  0.00  0.00     0.124 A 
ATOM     16  O   UNL d   1      32.019  21.795 -20.605  0.00  0.00    -0.301 OA
ATOM     17  C   UNL d   1      32.758  21.988 -21.817  0.00  0.00     0.123 A 
ATOM     18  C   UNL d   1      31.935  22.595 -20.512  0.00  0.00     0.149 A 
ATOM     19  C   UNL d   1      32.263  23.112 -21.074  0.00  0.00     0.149 A 
ATOM     20  O   UNL d   1      32.673  22.823 -21.724  0.00  0.00    -0.301 OA
ATOM     21  C   UNL d   1      33.165  21.707 -22.462  0.00  0.00     0.028 A 
ATOM     22  C   UNL d   1      33.241  20.893 -22.542  0.00  0.00     0.021 A 
ENDBRANCH   2  13
TORSDOF 4
ENDMDL
MODEL 4
REMARK VINA RESULT:      -0.9      0.954      4.955
REMARK  4 active torsions:
REMARK  status: ('A' for Active; 'I' for Inactive)
REMARK    1  A    between atoms: C_2  and  C_1 
REMARK    2  A    between atoms: C_3  and  C_1 
REMARK       I    between atoms: N_6  and  C_2 
REMARK    3  A    between atoms: C_13  and  C_3 
REMARK    4  A    between atoms: C_8  and  N_6 
ROOT
ATOM      1  C   UNL d   1      32.274  18.095 -23.830  0.00  0.00     0.282 C 
ATOM      2  N   UNL d   1      33.049  18.441 -23.709  0.00  0.00    -0.208 NA
ATOM      3  O   UNL d   1      31.596  18.481 -23.555  0.00  0.00    -0.265 OA
ENDROOT
BRANCH   1   4
ATOM      4  C   UNL d   1      32.211  17.379 -24.218  0.00  0.00     0.104 C 
BRANCH   4   5
ATOM      5  C   UNL d   1      31.988  16.701 -23.791  0.00  0.00     0.200 C 
ATOM      6  O   UNL d   1      32.441  16.445 -23.147  0.00  0.00    -0.286 OA
BRANCH   5   7
ATOM      7  C   UNL d   1      31.314  16.291 -24.015  0.00  0.00     0.039 A 
ATOM      8  C   UNL d   1      31.184  16.117 -24.811  0.00  0.00     0.003 A 
ATOM      9  C   UNL d   1      30.501  15.703 -25.028  0.00  0.00     0.000 A 
ATOM     10  C   UNL d   1      29.962  15.468 -24.457  0.00  0.00     0.000 A 
ATOM     11  C   UNL d   1      30.099  15.646 -23.653  0.00  0.00     0.000 A 
ATOM     12  C   UNL d   1      30.774  16.057 -23.429  0.00  0.00     0.003 A 
ENDBRANCH   5   7
ENDBRANCH   4   5
ENDBRANCH   1   4
BRANCH   2  13
ATOM     13  C   UNL d   1      33.097  19.181 -23.305  0.00  0.00     0.087 A 
ATOM     14  C   UNL d   1      33.099  19.206 -22.496  0.00  0.00     0.046 A 
ATOM     15  C   UNL d   1      33.145  19.909 -22.112  0.00  0.00     0.124 A 
ATOM     16  O   UNL d   1      33.148  19.949 -21.279  0.00  0.00    -0.301 OA
ATOM     17  C   UNL d   1      33.192  20.617 -22.546  0.00  0.00     0.123 A 
ATOM     18  C   UNL d   1      33.194  20.657 -20.888  0.00  0.00     0.149 A 
ATOM     19  C   UNL d   1      33.241  21.364 -21.322  0.00  0.00     0.149 A 
ATOM     20  O   UNL d   1      33.240  21.357 -22.142  0.00  0.00    -0.301 OA
ATOM     21  C   UNL d   1      33.192  20.614 -23.359  0.00  0.00     0.028 A 
ATOM     22  C   UNL d   1      33.144  19.888 -23.739  0.00  0.00     0.021 A 
ENDBRANCH   2  13
TORSDOF 4
ENDMDL
