MODEL 1
REMARK VINA RESULT:      69.9      0.000      0.000
REMARK  4 active torsions:
REMARK  status: ('A' for Active; 'I' for Inactive)
REMARK    1  A    between atoms: N_6  and  C_1 
REMARK       I    between atoms: C_7  and  N_8 
REMARK    2  A    between atoms: C_9  and  C_7 
REMARK    3  A    between atoms: O_20  and  C_10 
REMARK    4  A    between atoms: O_19  and  C_11 
ROOT
ATOM      1  C   UNL d   1     -50.006  26.955  33.967  0.00  0.00     0.180 A 
ATOM      2  N   UNL d   1     -50.824  26.945  33.847  0.00  0.00    -0.220 NA
ATOM      3  S   UNL d   1     -49.728  26.180  33.845  0.00  0.00    -0.046 SA
ATOM      4  C   UNL d   1     -51.048  26.179  33.654  0.00  0.00     0.114 A 
ATOM      5  C   UNL d   1     -50.369  25.711  33.654  0.00  0.00     0.074 A 
ATOM      6  C   UNL d   1     -51.770  25.848  33.481  0.00  0.00     0.112 A 
ATOM      7  C   UNL d   1     -50.420  24.921  33.482  0.00  0.00     0.102 A 
ATOM      8  C   UNL d   1     -51.151  24.583  33.306  0.00  0.00     0.027 A 
ATOM      9  C   UNL d   1     -51.831  25.050  33.306  0.00  0.00     0.028 A 
ENDROOT
BRANCH   1  10
ATOM     10  N   UNL d   1     -49.561  27.615  34.168  0.00  0.00    -0.281 N 
ATOM     11  C   UNL d   1     -49.655  28.317  33.742  0.00  0.00     0.101 A 
ATOM     12  C   UNL d   1     -49.215  28.989  33.933  0.00  0.00     0.102 A 
ATOM     13  N   UNL d   1     -48.675  28.946  34.561  0.00  0.00    -0.272 N 
ATOM     14  C   UNL d   1     -48.229  29.622  34.757  0.00  0.00     0.240 C 
ATOM     15  C   UNL d   1     -48.581  28.244  34.988  0.00  0.00     0.102 A 
ATOM     16  O   UNL d   1     -48.323  30.316  34.335  0.00  0.00    -0.272 OA
ATOM     17  C   UNL d   1     -49.026  27.584  34.786  0.00  0.00     0.101 A 
BRANCH  14  18
ATOM     18  C   UNL d   1     -47.692  29.577  35.383  0.00  0.00     0.072 C 
ATOM     19  C   UNL d   1     -47.974  29.678  36.146  0.00  0.00     0.009 C 
ATOM     20  C   UNL d   1     -46.880  29.434  35.265  0.00  0.00     0.009 C 
ATOM     21  C   UNL d   1     -47.126  29.526  35.984  0.00  0.00     0.009 C 
ENDBRANCH  14  18
ENDBRANCH   1  10
BRANCH   6  22
ATOM     22  O   UNL d   1     -52.446  26.315  33.482  0.00  0.00    -0.327 OA
ATOM     23  C   UNL d   1     -53.168  25.982  33.677  0.00  0.00     0.181 C 
ENDBRANCH   6  22
BRANCH   7  24
ATOM     24  O   UNL d   1     -49.744  24.453  33.481  0.00  0.00    -0.328 OA
ATOM     25  C   UNL d   1     -49.808  23.630  33.520  0.00  0.00     0.181 C 
ENDBRANCH   7  24
TORSDOF 4
ENDMDL
MODEL 2
REMARK VINA RESULT:      72.7      1.010      1.377
REMARK  4 active torsions:
REMARK  status: ('A' for Active; 'I' for Inactive)
REMARK    1  A    between atoms: N_6  and  C_1 
REMARK       I    between atoms: C_7  and  N_8 
REMARK    2  A    between atoms: C_9  and  C_7 
REMARK    3  A    between atoms: O_20  and  C_10 
REMARK    4  A    between atoms: O_19  and  C_11 
ROOT
ATOM      1  C   UNL d   1     -49.469  27.580  34.294  0.00  0.00     0.180 A 
ATOM      2  N   UNL d   1     -50.285  27.612  34.166  0.00  0.00    -0.220 NA
ATOM      3  S   UNL d   1     -49.213  26.821  34.070  0.00  0.00    -0.046 SA
ATOM      4  C   UNL d   1     -50.530  26.887  33.869  0.00  0.00     0.114 A 
ATOM      5  C   UNL d   1     -49.865  26.403  33.812  0.00  0.00     0.074 A 
ATOM      6  C   UNL d   1     -51.260  26.606  33.646  0.00  0.00     0.112 A 
ATOM      7  C   UNL d   1     -49.938  25.645  33.533  0.00  0.00     0.102 A 
ATOM      8  C   UNL d   1     -50.677  25.357  33.306  0.00  0.00     0.027 A 
ATOM      9  C   UNL d   1     -51.342  25.842  33.364  0.00  0.00     0.028 A 
ENDROOT
BRANCH   1  10
ATOM     10  N   UNL d   1     -49.007  28.192  34.587  0.00  0.00    -0.281 N 
ATOM     11  C   UNL d   1     -48.553  28.069  35.268  0.00  0.00     0.101 A 
ATOM     12  C   UNL d   1     -48.082  28.675  35.576  0.00  0.00     0.102 A 
ATOM     13  N   UNL d   1     -48.074  29.408  35.189  0.00  0.00    -0.272 N 
ATOM     14  C   UNL d   1     -47.601  30.021  35.497  0.00  0.00     0.240 C 
ATOM     15  C   UNL d   1     -48.528  29.531  34.509  0.00  0.00     0.102 A 
ATOM     16  O   UNL d   1     -47.152  29.900  36.170  0.00  0.00    -0.272 OA
ATOM     17  C   UNL d   1     -48.991  28.919  34.215  0.00  0.00     0.101 A 
BRANCH  14  18
ATOM     18  C   UNL d   1     -47.594  30.751  35.110  0.00  0.00     0.072 C 
ATOM     19  C   UNL d   1     -46.870  31.089  34.929  0.00  0.00     0.009 C 
ATOM     20  C   UNL d   1     -48.293  31.152  34.901  0.00  0.00     0.009 C 
ATOM     21  C   UNL d   1     -47.627  31.482  34.723  0.00  0.00     0.009 C 
ENDBRANCH  14  18
ENDBRANCH   1  10
BRANCH   6  22
ATOM     22  O   UNL d   1     -51.921  27.090  33.704  0.00  0.00    -0.327 OA
ATOM     23  C   UNL d   1     -52.607  26.888  33.306  0.00  0.00     0.181 C 
ENDBRANCH   6  22
BRANCH   7  24
ATOM     24  O   UNL d   1     -49.277  25.161  33.475  0.00  0.00    -0.328 OA
ATOM     25  C   UNL d   1     -49.309  24.379  33.743  0.00  0.00     0.181 C 
ENDBRANCH   7  24
TORSDOF 4
ENDMDL
