MODEL 1
REMARK VINA RESULT:      -2.5      0.000      0.000
REMARK  5 active torsions:
REMARK  status: ('A' for Active; 'I' for Inactive)
REMARK    1  A    between atoms: C_14  and  N_1 
REMARK    2  A    between atoms: C_13  and  C_3 
REMARK    3  A    between atoms: C_4  and  S_11 
REMARK    4  A    between atoms: S_11  and  C_13 
REMARK    5  A    between atoms: C_15  and  C_14 
ROOT
ATOM      1  S   UNL d   1      33.241  18.457 -23.396  0.00  0.00    -0.058 SA
ENDROOT
BRANCH   1   2
ATOM      2  C   UNL d   1      33.208  19.108 -22.906  0.00  0.00     0.141 A 
ATOM      3  N   UNL d   1      33.155  19.082 -22.080  0.00  0.00    -0.232 NA
ATOM      4  C   UNL d   1      33.137  19.855 -21.810  0.00  0.00     0.088 A 
ATOM      5  C   UNL d   1      33.088  20.187 -21.059  0.00  0.00     0.020 A 
ATOM      6  C   UNL d   1      33.179  20.354 -22.468  0.00  0.00     0.049 A 
ATOM      7  C   UNL d   1      33.081  20.988 -20.956  0.00  0.00     0.002 A 
ATOM      8  C   UNL d   1      33.123  21.487 -21.614  0.00  0.00     0.001 A 
ATOM      9  C   UNL d   1      33.172  21.180 -22.372  0.00  0.00     0.008 A 
ATOM     10  S   UNL d   1      33.222  19.881 -23.136  0.00  0.00    -0.060 SA
ENDBRANCH   1   2
BRANCH   1  11
ATOM     11  C   UNL d   1      32.547  18.033 -23.555  0.00  0.00     0.077 C 
BRANCH  11  12
ATOM     12  C   UNL d   1      32.597  17.306 -23.932  0.00  0.00     0.178 A 
ATOM     13  N   UNL d   1      31.922  16.941 -24.177  0.00  0.00    -0.264 N 
ATOM     14  C   UNL d   1      32.147  16.231 -24.532  0.00  0.00     0.227 A 
ATOM     15  N   UNL d   1      32.943  16.188 -24.492  0.00  0.00    -0.117 NA
ATOM     16  S   UNL d   1      31.639  15.624 -24.890  0.00  0.00    -0.036 SA
ATOM     17  N   UNL d   1      33.226  16.831 -24.132  0.00  0.00    -0.127 NA
BRANCH  13  18
ATOM     18  C   UNL d   1      31.110  17.204 -24.103  0.00  0.00     0.084 C 
BRANCH  18  19
ATOM     19  C   UNL d   1      30.691  17.415 -24.791  0.00  0.00     0.019 C 
ATOM     20  C   UNL d   1      29.875  17.582 -24.747  0.00  0.00     0.002 C 
ENDBRANCH  18  19
ENDBRANCH  13  18
ENDBRANCH  11  12
ENDBRANCH   1  11
TORSDOF 5
ENDMDL
MODEL 2
REMARK VINA RESULT:      -2.3      2.081      5.019
REMARK  5 active torsions:
REMARK  status: ('A' for Active; 'I' for Inactive)
REMARK    1  A    between atoms: C_14  and  N_1 
REMARK    2  A    between atoms: C_13  and  C_3 
REMARK    3  A    between atoms: C_4  and  S_11 
REMARK    4  A    between atoms: S_11  and  C_13 
REMARK    5  A    between atoms: C_15  and  C_14 
ROOT
ATOM      1  S   UNL d   1      33.209  20.132 -21.924  0.00  0.00    -0.058 SA
ENDROOT
BRANCH   1   2
ATOM      2  C   UNL d   1      33.196  19.617 -22.556  0.00  0.00     0.141 A 
ATOM      3  N   UNL d   1      33.240  19.837 -23.353  0.00  0.00    -0.232 NA
ATOM      4  C   UNL d   1      33.209  19.151 -23.800  0.00  0.00     0.088 A 
ATOM      5  C   UNL d   1      33.228  19.006 -24.609  0.00  0.00     0.020 A 
ATOM      6  C   UNL d   1      33.146  18.512 -23.278  0.00  0.00     0.049 A 
ATOM      7  C   UNL d   1      33.186  18.254 -24.901  0.00  0.00     0.002 A 
ATOM      8  C   UNL d   1      33.123  17.616 -24.379  0.00  0.00     0.001 A 
ATOM      9  C   UNL d   1      33.102  17.734 -23.570  0.00  0.00     0.008 A 
ATOM     10  S   UNL d   1      33.139  18.813 -22.517  0.00  0.00    -0.060 SA
ENDBRANCH   1   2
BRANCH   1  11
ATOM     11  C   UNL d   1      33.004  20.926 -22.042  0.00  0.00     0.077 C 
BRANCH  11  12
ATOM     12  C   UNL d   1      32.840  21.400 -21.393  0.00  0.00     0.178 A 
ATOM     13  N   UNL d   1      32.863  22.202 -21.474  0.00  0.00    -0.264 N 
ATOM     14  C   UNL d   1      32.676  22.523 -20.737  0.00  0.00     0.227 A 
ATOM     15  N   UNL d   1      32.548  21.914 -20.238  0.00  0.00    -0.117 NA
ATOM     16  S   UNL d   1      32.622  23.362 -20.515  0.00  0.00    -0.036 SA
ATOM     17  N   UNL d   1      32.644  21.231 -20.622  0.00  0.00    -0.127 NA
BRANCH  13  18
ATOM     18  C   UNL d   1      33.041  22.668 -22.170  0.00  0.00     0.084 C 
BRANCH  18  19
ATOM     19  C   UNL d   1      32.473  23.209 -22.448  0.00  0.00     0.019 C 
ATOM     20  C   UNL d   1      32.602  23.618 -23.163  0.00  0.00     0.002 C 
ENDBRANCH  18  19
ENDBRANCH  13  18
ENDBRANCH  11  12
ENDBRANCH   1  11
TORSDOF 5
ENDMDL
MODEL 3
REMARK VINA RESULT:      -2.3      1.177      1.700
REMARK  5 active torsions:
REMARK  status: ('A' for Active; 'I' for Inactive)
REMARK    1  A    between atoms: C_14  and  N_1 
REMARK    2  A    between atoms: C_13  and  C_3 
REMARK    3  A    between atoms: C_4  and  S_11 
REMARK    4  A    between atoms: S_11  and  C_13 
REMARK    5  A    between atoms: C_15  and  C_14 
ROOT
ATOM      1  S   UNL d   1      33.131  19.448 -22.171  0.00  0.00    -0.058 SA
ENDROOT
BRANCH   1   2
ATOM      2  C   UNL d   1      33.045  20.255 -22.088  0.00  0.00     0.141 A 
ATOM      3  N   UNL d   1      33.240  20.819 -22.663  0.00  0.00    -0.232 NA
ATOM      4  C   UNL d   1      33.067  21.557 -22.353  0.00  0.00     0.088 A 
ATOM      5  C   UNL d   1      33.137  22.320 -22.648  0.00  0.00     0.020 A 
ATOM      6  C   UNL d   1      32.767  21.446 -21.590  0.00  0.00     0.049 A 
ATOM      7  C   UNL d   1      32.917  22.961 -22.208  0.00  0.00     0.002 A 
ATOM      8  C   UNL d   1      32.617  22.851 -21.445  0.00  0.00     0.001 A 
ATOM      9  C   UNL d   1      32.538  22.100 -21.129  0.00  0.00     0.008 A 
ATOM     10  S   UNL d   1      32.759  20.641 -21.440  0.00  0.00    -0.060 SA
ENDBRANCH   1   2
BRANCH   1  11
ATOM     11  C   UNL d   1      32.807  19.071 -22.834  0.00  0.00     0.077 C 
BRANCH  11  12
ATOM     12  C   UNL d   1      32.914  18.263 -22.930  0.00  0.00     0.178 A 
ATOM     13  N   UNL d   1      32.668  17.910 -23.611  0.00  0.00    -0.264 N 
ATOM     14  C   UNL d   1      32.849  17.108 -23.546  0.00  0.00     0.227 A 
ATOM     15  N   UNL d   1      33.196  17.000 -22.835  0.00  0.00    -0.117 NA
ATOM     16  S   UNL d   1      32.703  16.476 -24.123  0.00  0.00    -0.036 SA
ATOM     17  N   UNL d   1      33.241  17.690 -22.454  0.00  0.00    -0.127 NA
BRANCH  13  18
ATOM     18  C   UNL d   1      32.289  18.263 -24.293  0.00  0.00     0.084 C 
BRANCH  18  19
ATOM     19  C   UNL d   1      31.461  18.207 -24.367  0.00  0.00     0.019 C 
ATOM     20  C   UNL d   1      31.096  18.379 -25.097  0.00  0.00     0.002 C 
ENDBRANCH  18  19
ENDBRANCH  13  18
ENDBRANCH  11  12
ENDBRANCH   1  11
TORSDOF 5
ENDMDL
MODEL 4
REMARK VINA RESULT:      -1.2      1.842      2.586
REMARK  5 active torsions:
REMARK  status: ('A' for Active; 'I' for Inactive)
REMARK    1  A    between atoms: C_14  and  N_1 
REMARK    2  A    between atoms: C_13  and  C_3 
REMARK    3  A    between atoms: C_4  and  S_11 
REMARK    4  A    between atoms: S_11  and  C_13 
REMARK    5  A    between atoms: C_15  and  C_14 
ROOT
ATOM      1  S   UNL d   1      33.133  21.065 -22.999  0.00  0.00    -0.058 SA
ENDROOT
BRANCH   1   2
ATOM      2  C   UNL d   1      33.099  21.402 -22.257  0.00  0.00     0.141 A 
ATOM      3  N   UNL d   1      32.981  20.989 -21.549  0.00  0.00    -0.232 NA
ATOM      4  C   UNL d   1      32.985  21.538 -20.941  0.00  0.00     0.088 A 
ATOM      5  C   UNL d   1      32.897  21.473 -20.126  0.00  0.00     0.020 A 
ATOM      6  C   UNL d   1      33.105  22.285 -21.275  0.00  0.00     0.049 A 
ATOM      7  C   UNL d   1      32.926  22.125 -19.649  0.00  0.00     0.002 A 
ATOM      8  C   UNL d   1      33.046  22.872 -19.983  0.00  0.00     0.001 A 
ATOM      9  C   UNL d   1      33.136  22.962 -20.792  0.00  0.00     0.008 A 
ATOM     10  S   UNL d   1      33.173  22.187 -22.085  0.00  0.00    -0.060 SA
ENDBRANCH   1   2
BRANCH   1  11
ATOM     11  C   UNL d   1      33.240  20.247 -23.069  0.00  0.00     0.077 C 
BRANCH  11  12
ATOM     12  C   UNL d   1      33.237  19.902 -23.814  0.00  0.00     0.178 A 
ATOM     13  N   UNL d   1      33.238  19.099 -23.878  0.00  0.00    -0.264 N 
ATOM     14  C   UNL d   1      33.235  18.922 -24.684  0.00  0.00     0.227 A 
ATOM     15  N   UNL d   1      33.233  19.615 -25.079  0.00  0.00    -0.117 NA
ATOM     16  S   UNL d   1      33.234  18.139 -25.062  0.00  0.00    -0.036 SA
ATOM     17  N   UNL d   1      33.234  20.214 -24.565  0.00  0.00    -0.127 NA
BRANCH  13  18
ATOM     18  C   UNL d   1      33.241  18.510 -23.256  0.00  0.00     0.084 C 
BRANCH  18  19
ATOM     19  C   UNL d   1      32.670  17.903 -23.274  0.00  0.00     0.019 C 
ATOM     20  C   UNL d   1      32.747  17.244 -22.769  0.00  0.00     0.002 C 
ENDBRANCH  18  19
ENDBRANCH  13  18
ENDBRANCH  11  12
ENDBRANCH   1  11
TORSDOF 5
ENDMDL
MODEL 5
REMARK VINA RESULT:      -1.1      1.887      2.949
REMARK  5 active torsions:
REMARK  status: ('A' for Active; 'I' for Inactive)
REMARK    1  A    between atoms: C_14  and  N_1 
REMARK    2  A    between atoms: C_13  and  C_3 
REMARK    3  A    between atoms: C_4  and  S_11 
REMARK    4  A    between atoms: S_11  and  C_13 
REMARK    5  A    between atoms: C_15  and  C_14 
ROOT
ATOM      1  S   UNL d   1      31.361  16.674 -23.800  0.00  0.00    -0.058 SA
ENDROOT
BRANCH   1   2
ATOM      2  C   UNL d   1      31.793  17.355 -23.921  0.00  0.00     0.141 A 
ATOM      3  N   UNL d   1      31.997  17.902 -23.334  0.00  0.00    -0.232 NA
ATOM      4  C   UNL d   1      32.428  18.499 -23.694  0.00  0.00     0.088 A 
ATOM      5  C   UNL d   1      32.780  19.186 -23.411  0.00  0.00     0.020 A 
ATOM      6  C   UNL d   1      32.488  18.318 -24.498  0.00  0.00     0.049 A 
ATOM      7  C   UNL d   1      33.181  19.685 -23.905  0.00  0.00     0.002 A 
ATOM      8  C   UNL d   1      33.240  19.504 -24.709  0.00  0.00     0.001 A 
ATOM      9  C   UNL d   1      32.899  18.825 -25.015  0.00  0.00     0.008 A 
ATOM     10  S   UNL d   1      32.093  17.612 -24.625  0.00  0.00    -0.060 SA
ENDBRANCH   1   2
BRANCH   1  11
ATOM     11  C   UNL d   1      30.633  16.581 -24.184  0.00  0.00     0.077 C 
BRANCH  11  12
ATOM     12  C   UNL d   1      30.023  16.187 -23.802  0.00  0.00     0.178 A 
ATOM     13  N   UNL d   1      29.262  16.323 -24.028  0.00  0.00    -0.264 N 
ATOM     14  C   UNL d   1      28.780  15.854 -23.548  0.00  0.00     0.227 A 
ATOM     15  N   UNL d   1      29.259  15.453 -23.052  0.00  0.00    -0.117 NA
ATOM     16  S   UNL d   1      27.914  15.788 -23.558  0.00  0.00    -0.036 SA
ATOM     17  N   UNL d   1      30.011  15.646 -23.195  0.00  0.00    -0.127 NA
BRANCH  13  18
ATOM     18  C   UNL d   1      28.967  16.844 -24.641  0.00  0.00     0.084 C 
BRANCH  18  19
ATOM     19  C   UNL d   1      28.603  17.559 -24.420  0.00  0.00     0.019 C 
ATOM     20  C   UNL d   1      28.532  18.178 -24.974  0.00  0.00     0.002 C 
ENDBRANCH  18  19
ENDBRANCH  13  18
ENDBRANCH  11  12
ENDBRANCH   1  11
TORSDOF 5
ENDMDL
MODEL 6
REMARK VINA RESULT:      -0.9      1.845      4.557
REMARK  5 active torsions:
REMARK  status: ('A' for Active; 'I' for Inactive)
REMARK    1  A    between atoms: C_14  and  N_1 
REMARK    2  A    between atoms: C_13  and  C_3 
REMARK    3  A    between atoms: C_4  and  S_11 
REMARK    4  A    between atoms: S_11  and  C_13 
REMARK    5  A    between atoms: C_15  and  C_14 
ROOT
ATOM      1  S   UNL d   1      31.207  16.839 -24.239  0.00  0.00    -0.058 SA
ENDROOT
BRANCH   1   2
ATOM      2  C   UNL d   1      30.495  16.554 -23.960  0.00  0.00     0.141 A 
ATOM      3  N   UNL d   1      30.390  16.150 -23.245  0.00  0.00    -0.232 NA
ATOM      4  C   UNL d   1      29.594  15.966 -23.181  0.00  0.00     0.088 A 
ATOM      5  C   UNL d   1      29.152  15.574 -22.610  0.00  0.00     0.020 A 
ATOM      6  C   UNL d   1      29.213  16.257 -23.855  0.00  0.00     0.049 A 
ATOM      7  C   UNL d   1      28.355  15.471 -22.695  0.00  0.00     0.002 A 
ATOM      8  C   UNL d   1      27.974  15.762 -23.369  0.00  0.00     0.001 A 
ATOM      9  C   UNL d   1      28.393  16.155 -23.952  0.00  0.00     0.008 A 
ATOM     10  S   UNL d   1      29.779  16.617 -24.325  0.00  0.00    -0.060 SA
ENDBRANCH   1   2
BRANCH   1  11
ATOM     11  C   UNL d   1      31.588  17.451 -23.831  0.00  0.00     0.077 C 
BRANCH  11  12
ATOM     12  C   UNL d   1      32.077  17.966 -24.243  0.00  0.00     0.178 A 
ATOM     13  N   UNL d   1      32.344  18.633 -23.880  0.00  0.00    -0.264 N 
ATOM     14  C   UNL d   1      32.816  19.033 -24.426  0.00  0.00     0.227 A 
ATOM     15  N   UNL d   1      32.821  18.600 -25.096  0.00  0.00    -0.117 NA
ATOM     16  S   UNL d   1      33.241  19.784 -24.321  0.00  0.00    -0.036 SA
ATOM     17  N   UNL d   1      32.379  17.953 -24.998  0.00  0.00    -0.127 NA
BRANCH  13  18
ATOM     18  C   UNL d   1      32.190  18.911 -23.084  0.00  0.00     0.084 C 
BRANCH  18  19
ATOM     19  C   UNL d   1      32.773  18.800 -22.500  0.00  0.00     0.019 C 
ATOM     20  C   UNL d   1      32.808  19.313 -21.843  0.00  0.00     0.002 C 
ENDBRANCH  18  19
ENDBRANCH  13  18
ENDBRANCH  11  12
ENDBRANCH   1  11
TORSDOF 5
ENDMDL
MODEL 7
REMARK VINA RESULT:      -0.1      2.747      4.969
REMARK  5 active torsions:
REMARK  status: ('A' for Active; 'I' for Inactive)
REMARK    1  A    between atoms: C_14  and  N_1 
REMARK    2  A    between atoms: C_13  and  C_3 
REMARK    3  A    between atoms: C_4  and  S_11 
REMARK    4  A    between atoms: S_11  and  C_13 
REMARK    5  A    between atoms: C_15  and  C_14 
ROOT
ATOM      1  S   UNL d   1      29.799  17.060 -24.848  0.00  0.00    -0.058 SA
ENDROOT
BRANCH   1   2
ATOM      2  C   UNL d   1      29.148  16.792 -24.436  0.00  0.00     0.141 A 
ATOM      3  N   UNL d   1      28.765  17.204 -23.828  0.00  0.00    -0.232 NA
ATOM      4  C   UNL d   1      28.143  16.738 -23.569  0.00  0.00     0.088 A 
ATOM      5  C   UNL d   1      27.569  16.839 -22.990  0.00  0.00     0.020 A 
ATOM      6  C   UNL d   1      28.145  16.042 -24.017  0.00  0.00     0.049 A 
ATOM      7  C   UNL d   1      27.010  16.272 -22.851  0.00  0.00     0.002 A 
ATOM      8  C   UNL d   1      27.012  15.576 -23.299  0.00  0.00     0.001 A 
ATOM      9  C   UNL d   1      27.574  15.453 -23.881  0.00  0.00     0.008 A 
ATOM     10  S   UNL d   1      28.768  16.089 -24.546  0.00  0.00    -0.060 SA
ENDBRANCH   1   2
BRANCH   1  11
ATOM     11  C   UNL d   1      30.554  16.967 -24.520  0.00  0.00     0.077 C 
BRANCH  11  12
ATOM     12  C   UNL d   1      31.146  17.501 -24.715  0.00  0.00     0.178 A 
ATOM     13  N   UNL d   1      31.917  17.296 -24.601  0.00  0.00    -0.264 N 
ATOM     14  C   UNL d   1      32.375  17.938 -24.845  0.00  0.00     0.227 A 
ATOM     15  N   UNL d   1      31.874  18.505 -25.096  0.00  0.00    -0.117 NA
ATOM     16  S   UNL d   1      33.241  18.011 -24.840  0.00  0.00    -0.036 SA
ATOM     17  N   UNL d   1      31.129  18.254 -25.023  0.00  0.00    -0.127 NA
BRANCH  13  18
ATOM     18  C   UNL d   1      32.239  16.566 -24.290  0.00  0.00     0.084 C 
BRANCH  18  19
ATOM     19  C   UNL d   1      32.761  16.600 -23.642  0.00  0.00     0.019 C 
ATOM     20  C   UNL d   1      33.146  15.908 -23.381  0.00  0.00     0.002 C 
ENDBRANCH  18  19
ENDBRANCH  13  18
ENDBRANCH  11  12
ENDBRANCH   1  11
TORSDOF 5
ENDMDL
