MODEL 1
REMARK VINA RESULT:      -4.7      0.000      0.000
REMARK  5 active torsions:
REMARK  status: ('A' for Active; 'I' for Inactive)
REMARK    1  A    between atoms: C_9  and  C_5 
REMARK    2  A    between atoms: N_14  and  C_6 
REMARK    3  A    between atoms: N_11  and  C_9 
REMARK    4  A    between atoms: C_15  and  N_11 
REMARK    5  A    between atoms: C_16  and  C_15 
ROOT
ATOM      1  N   UNL d   1      59.111  -2.041  29.220  0.00  0.00    -0.258 N 
ATOM      2  N   UNL d   1      59.885  -0.901  29.168  0.00  0.00    -0.209 NA
ATOM      3  C   UNL d   1      59.795  -1.691  29.028  0.00  0.00     0.152 A 
ATOM      4  C   UNL d   1      58.484  -1.637  29.559  0.00  0.00     0.270 A 
ATOM      5  C   UNL d   1      58.577  -0.811  29.706  0.00  0.00     0.111 A 
ATOM      6  C   UNL d   1      59.288  -0.480  29.498  0.00  0.00     0.170 A 
ATOM      7  C   UNL d   1      60.418  -2.131  28.683  0.00  0.00     0.035 A 
ATOM      8  C   UNL d   1      59.015  -2.885  29.070  0.00  0.00     0.084 A 
ATOM      9  O   UNL d   1      57.772  -1.986  29.762  0.00  0.00    -0.266 OA
ATOM     10  C   UNL d   1      59.615  -3.288  28.743  0.00  0.00     0.019 A 
ATOM     11  C   UNL d   1      60.326  -2.945  28.538  0.00  0.00     0.005 A 
ATOM     12  C   UNL d   1      61.132  -1.770  28.481  0.00  0.00     0.003 C 
ENDROOT
BRANCH   5  13
ATOM     13  C   UNL d   1      57.956  -0.360  30.052  0.00  0.00     0.107 C 
BRANCH  13  14
ATOM     14  N   UNL d   1      57.706  -0.504  30.832  0.00  0.00    -0.242 NA
BRANCH  14  15
ATOM     15  C   UNL d   1      57.124  -0.019  31.165  0.00  0.00     0.099 C 
BRANCH  15  16
ATOM     16  C   UNL d   1      56.867  -0.152  31.924  0.00  0.00     0.019 A 
ATOM     17  C   UNL d   1      56.332  -0.752  32.086  0.00  0.00     0.002 A 
ATOM     18  C   UNL d   1      56.067  -0.895  32.842  0.00  0.00     0.000 A 
ATOM     19  C   UNL d   1      56.347  -0.419  33.462  0.00  0.00     0.000 A 
ATOM     20  C   UNL d   1      56.893   0.195  33.297  0.00  0.00     0.000 A 
ATOM     21  C   UNL d   1      57.147   0.324  32.545  0.00  0.00     0.002 A 
ENDBRANCH  15  16
ENDBRANCH  14  15
ENDBRANCH  13  14
ENDBRANCH   5  13
BRANCH   6  22
ATOM     22  N   UNL d   1      59.381   0.345  29.645  0.00  0.00    -0.223 NA
ATOM     23  C   UNL d   1      60.137   0.680  29.605  0.00  0.00     0.121 C 
ENDBRANCH   6  22
TORSDOF 5
ENDMDL
MODEL 2
REMARK VINA RESULT:      -1.8      2.028      2.413
REMARK  5 active torsions:
REMARK  status: ('A' for Active; 'I' for Inactive)
REMARK    1  A    between atoms: C_9  and  C_5 
REMARK    2  A    between atoms: N_14  and  C_6 
REMARK    3  A    between atoms: N_11  and  C_9 
REMARK    4  A    between atoms: C_15  and  N_11 
REMARK    5  A    between atoms: C_16  and  C_15 
ROOT
ATOM      1  N   UNL d   1      58.677   0.552  29.876  0.00  0.00    -0.258 N 
ATOM      2  N   UNL d   1      59.736   0.611  30.757  0.00  0.00    -0.209 NA
ATOM      3  C   UNL d   1      59.460   0.580  29.999  0.00  0.00     0.152 A 
ATOM      4  C   UNL d   1      58.130   0.552  30.486  0.00  0.00     0.270 A 
ATOM      5  C   UNL d   1      58.419   0.585  31.278  0.00  0.00     0.111 A 
ATOM      6  C   UNL d   1      59.223   0.613  31.374  0.00  0.00     0.170 A 
ATOM      7  C   UNL d   1      59.994   0.578  29.355  0.00  0.00     0.035 A 
ATOM      8  C   UNL d   1      58.382   0.519  29.067  0.00  0.00     0.084 A 
ATOM      9  O   UNL d   1      57.320   0.523  30.372  0.00  0.00    -0.266 OA
ATOM     10  C   UNL d   1      58.901   0.518  28.467  0.00  0.00     0.019 A 
ATOM     11  C   UNL d   1      59.709   0.546  28.575  0.00  0.00     0.005 A 
ATOM     12  C   UNL d   1      60.809   0.608  29.480  0.00  0.00     0.003 C 
ENDROOT
BRANCH   5  13
ATOM     13  C   UNL d   1      57.889   0.587  31.932  0.00  0.00     0.107 C 
BRANCH  13  14
ATOM     14  N   UNL d   1      57.418  -0.077  32.104  0.00  0.00    -0.242 NA
BRANCH  14  15
ATOM     15  C   UNL d   1      57.253  -0.261  32.894  0.00  0.00     0.099 C 
BRANCH  15  16
ATOM     16  C   UNL d   1      56.494  -0.441  33.122  0.00  0.00     0.019 A 
ATOM     17  C   UNL d   1      55.948   0.154  33.265  0.00  0.00     0.002 A 
ATOM     18  C   UNL d   1      55.185  -0.013  33.493  0.00  0.00     0.000 A 
ATOM     19  C   UNL d   1      54.958  -0.808  33.583  0.00  0.00     0.000 A 
ATOM     20  C   UNL d   1      55.516  -1.415  33.436  0.00  0.00     0.000 A 
ATOM     21  C   UNL d   1      56.267  -1.235  33.211  0.00  0.00     0.002 A 
ENDBRANCH  15  16
ENDBRANCH  14  15
ENDBRANCH  13  14
ENDBRANCH   5  13
BRANCH   6  22
ATOM     22  N   UNL d   1      59.512   0.645  32.166  0.00  0.00    -0.223 NA
ATOM     23  C   UNL d   1      60.329   0.682  32.296  0.00  0.00     0.121 C 
ENDBRANCH   6  22
TORSDOF 5
ENDMDL
MODEL 3
REMARK VINA RESULT:      -1.8      1.910      5.387
REMARK  5 active torsions:
REMARK  status: ('A' for Active; 'I' for Inactive)
REMARK    1  A    between atoms: C_9  and  C_5 
REMARK    2  A    between atoms: N_14  and  C_6 
REMARK    3  A    between atoms: N_11  and  C_9 
REMARK    4  A    between atoms: C_15  and  N_11 
REMARK    5  A    between atoms: C_16  and  C_15 
ROOT
ATOM      1  N   UNL d   1      55.638   0.663  33.491  0.00  0.00    -0.258 N 
ATOM      2  N   UNL d   1      56.908   0.676  34.029  0.00  0.00    -0.209 NA
ATOM      3  C   UNL d   1      56.107   0.671  34.130  0.00  0.00     0.152 A 
ATOM      4  C   UNL d   1      55.929   0.661  32.726  0.00  0.00     0.270 A 
ATOM      5  C   UNL d   1      56.767   0.666  32.620  0.00  0.00     0.111 A 
ATOM      6  C   UNL d   1      57.222   0.673  33.291  0.00  0.00     0.170 A 
ATOM      7  C   UNL d   1      55.779   0.673  34.901  0.00  0.00     0.035 A 
ATOM      8  C   UNL d   1      54.783   0.658  33.599  0.00  0.00     0.084 A 
ATOM      9  O   UNL d   1      55.457   0.653  32.058  0.00  0.00    -0.266 OA
ATOM     10  C   UNL d   1      54.488   0.661  34.335  0.00  0.00     0.019 A 
ATOM     11  C   UNL d   1      54.955   0.668  35.005  0.00  0.00     0.005 A 
ATOM     12  C   UNL d   1      56.265   0.681  35.568  0.00  0.00     0.003 C 
ENDROOT
BRANCH   5  13
ATOM     13  C   UNL d   1      57.106   0.663  31.849  0.00  0.00     0.107 C 
BRANCH  13  14
ATOM     14  N   UNL d   1      57.397  -0.039  31.512  0.00  0.00    -0.242 NA
BRANCH  14  15
ATOM     15  C   UNL d   1      57.342  -0.146  30.693  0.00  0.00     0.099 C 
BRANCH  15  16
ATOM     16  C   UNL d   1      57.945  -0.509  30.287  0.00  0.00     0.019 A 
ATOM     17  C   UNL d   1      57.944  -1.321  30.172  0.00  0.00     0.002 A 
ATOM     18  C   UNL d   1      58.543  -1.695  29.768  0.00  0.00     0.000 A 
ATOM     19  C   UNL d   1      59.168  -1.240  29.464  0.00  0.00     0.000 A 
ATOM     20  C   UNL d   1      59.169  -0.411  29.581  0.00  0.00     0.000 A 
ATOM     21  C   UNL d   1      58.571  -0.054  29.984  0.00  0.00     0.002 A 
ENDBRANCH  15  16
ENDBRANCH  14  15
ENDBRANCH  13  14
ENDBRANCH   5  13
BRANCH   6  22
ATOM     22  N   UNL d   1      58.058   0.679  33.185  0.00  0.00    -0.223 NA
ATOM     23  C   UNL d   1      58.549   0.682  33.852  0.00  0.00     0.121 C 
ENDBRANCH   6  22
TORSDOF 5
ENDMDL
MODEL 4
REMARK VINA RESULT:      -1.7      8.557      8.973
REMARK  5 active torsions:
REMARK  status: ('A' for Active; 'I' for Inactive)
REMARK    1  A    between atoms: C_9  and  C_5 
REMARK    2  A    between atoms: N_14  and  C_6 
REMARK    3  A    between atoms: N_11  and  C_9 
REMARK    4  A    between atoms: C_15  and  N_11 
REMARK    5  A    between atoms: C_16  and  C_15 
ROOT
ATOM      1  N   UNL d   1      59.770  -9.790  30.701  0.00  0.00    -0.258 N 
ATOM      2  N   UNL d   1      58.477  -9.798  31.179  0.00  0.00    -0.209 NA
ATOM      3  C   UNL d   1      58.990  -9.790  30.557  0.00  0.00     0.152 A 
ATOM      4  C   UNL d   1      60.083  -9.799  31.458  0.00  0.00     0.270 A 
ATOM      5  C   UNL d   1      59.545  -9.808  32.109  0.00  0.00     0.111 A 
ATOM      6  C   UNL d   1      58.754  -9.807  31.932  0.00  0.00     0.170 A 
ATOM      7  C   UNL d   1      58.701  -9.781  29.771  0.00  0.00     0.035 A 
ATOM      8  C   UNL d   1      60.318  -9.781  30.036  0.00  0.00     0.084 A 
ATOM      9  O   UNL d   1      60.884  -9.800  31.621  0.00  0.00    -0.266 OA
ATOM     10  C   UNL d   1      60.029  -9.773  29.298  0.00  0.00     0.019 A 
ATOM     11  C   UNL d   1      59.230  -9.772  29.131  0.00  0.00     0.005 A 
ATOM     12  C   UNL d   1      57.890  -9.780  29.618  0.00  0.00     0.003 C 
ENDROOT
BRANCH   5  13
ATOM     13  C   UNL d   1      59.827  -9.817  32.903  0.00  0.00     0.107 C 
BRANCH  13  14
ATOM     14  N   UNL d   1      59.989  -9.109  33.307  0.00  0.00    -0.242 NA
BRANCH  14  15
ATOM     15  C   UNL d   1      60.465  -9.131  33.984  0.00  0.00     0.099 C 
BRANCH  15  16
ATOM     16  C   UNL d   1      60.230  -8.749  34.662  0.00  0.00     0.019 A 
ATOM     17  C   UNL d   1      59.792  -9.141  35.233  0.00  0.00     0.002 A 
ATOM     18  C   UNL d   1      59.550  -8.769  35.916  0.00  0.00     0.000 A 
ATOM     19  C   UNL d   1      59.755  -7.973  36.033  0.00  0.00     0.000 A 
ATOM     20  C   UNL d   1      60.202  -7.572  35.449  0.00  0.00     0.000 A 
ATOM     21  C   UNL d   1      60.434  -7.952  34.779  0.00  0.00     0.002 A 
ENDBRANCH  15  16
ENDBRANCH  14  15
ENDBRANCH  13  14
ENDBRANCH   5  13
BRANCH   6  22
ATOM     22  N   UNL d   1      58.218  -9.816  32.582  0.00  0.00    -0.223 NA
ATOM     23  C   UNL d   1      57.417  -9.654  32.447  0.00  0.00     0.121 C 
ENDBRANCH   6  22
TORSDOF 5
ENDMDL
