MODEL 1
REMARK VINA RESULT:      -2.2      0.000      0.000
REMARK  2 active torsions:
REMARK  status: ('A' for Active; 'I' for Inactive)
REMARK    1  A    between atoms: C_4  and  N_1 
REMARK    2  A    between atoms: C_3  and  C_4 
ROOT
ATOM      1  N   UNL d   1      29.931  16.720 -24.288  0.00  0.00    -0.295 N 
ATOM      2  N   UNL d   1      31.502  16.656 -23.750  0.00  0.00    -0.299 N 
ATOM      3  C   UNL d   1      30.480  17.303 -24.512  0.00  0.00     0.100 A 
ATOM      4  C   UNL d   1      30.187  16.098 -23.785  0.00  0.00     0.100 A 
ATOM      5  C   UNL d   1      31.270  17.266 -24.238  0.00  0.00     0.100 A 
ATOM      6  C   UNL d   1      30.966  16.065 -23.517  0.00  0.00     0.100 A 
ATOM      7  C   UNL d   1      32.276  16.619 -23.482  0.00  0.00     0.100 C 
ENDROOT
BRANCH   1   8
ATOM      8  C   UNL d   1      29.160  16.757 -24.556  0.00  0.00     0.152 C 
BRANCH   8   9
ATOM      9  C   UNL d   1      28.609  17.186 -24.123  0.00  0.00     0.230 C 
ATOM     10  O   UNL d   1      28.497  17.993 -24.259  0.00  0.00    -0.643 OA
ATOM     11  O   UNL d   1      28.157  16.793 -23.536  0.00  0.00    -0.643 OA
ENDBRANCH   8   9
ENDBRANCH   1   8
TORSDOF 2
ENDMDL
MODEL 2
REMARK VINA RESULT:      -2.2      5.707      6.348
REMARK  2 active torsions:
REMARK  status: ('A' for Active; 'I' for Inactive)
REMARK    1  A    between atoms: C_4  and  N_1 
REMARK    2  A    between atoms: C_3  and  C_4 
ROOT
ATOM      1  N   UNL d   1      32.811  22.185 -21.604  0.00  0.00    -0.295 N 
ATOM      2  N   UNL d   1      32.890  20.543 -21.848  0.00  0.00    -0.299 N 
ATOM      3  C   UNL d   1      32.465  21.658 -21.061  0.00  0.00     0.100 A 
ATOM      4  C   UNL d   1      33.200  21.870 -22.278  0.00  0.00     0.100 A 
ATOM      5  C   UNL d   1      32.508  20.832 -21.189  0.00  0.00     0.100 A 
ATOM      6  C   UNL d   1      33.241  21.055 -22.401  0.00  0.00     0.100 A 
ATOM      7  C   UNL d   1      32.932  19.733 -21.974  0.00  0.00     0.100 C 
ENDROOT
BRANCH   1   8
ATOM      8  C   UNL d   1      32.768  22.992 -21.479  0.00  0.00     0.152 C 
BRANCH   8   9
ATOM      9  C   UNL d   1      32.112  23.403 -21.754  0.00  0.00     0.230 C 
ATOM     10  O   UNL d   1      31.457  23.532 -21.268  0.00  0.00    -0.643 OA
ATOM     11  O   UNL d   1      32.115  23.692 -22.541  0.00  0.00    -0.643 OA
ENDBRANCH   8   9
ENDBRANCH   1   8
TORSDOF 2
ENDMDL
MODEL 3
REMARK VINA RESULT:      -2.0      1.687      2.747
REMARK  2 active torsions:
REMARK  status: ('A' for Active; 'I' for Inactive)
REMARK    1  A    between atoms: C_4  and  N_1 
REMARK    2  A    between atoms: C_3  and  C_4 
ROOT
ATOM      1  N   UNL d   1      30.589  16.587 -24.148  0.00  0.00    -0.295 N 
ATOM      2  N   UNL d   1      29.012  16.266 -23.730  0.00  0.00    -0.299 N 
ATOM      3  C   UNL d   1      30.408  15.982 -23.606  0.00  0.00     0.100 A 
ATOM      4  C   UNL d   1      29.959  17.031 -24.480  0.00  0.00     0.100 A 
ATOM      5  C   UNL d   1      29.613  15.825 -23.399  0.00  0.00     0.100 A 
ATOM      6  C   UNL d   1      29.176  16.873 -24.273  0.00  0.00     0.100 A 
ATOM      7  C   UNL d   1      28.233  16.113 -23.528  0.00  0.00     0.100 C 
ENDROOT
BRANCH   1   8
ATOM      8  C   UNL d   1      31.366  16.739 -24.350  0.00  0.00     0.152 C 
BRANCH   8   9
ATOM      9  C   UNL d   1      31.776  17.322 -23.940  0.00  0.00     0.230 C 
ATOM     10  O   UNL d   1      32.181  17.146 -23.242  0.00  0.00    -0.643 OA
ATOM     11  O   UNL d   1      31.778  18.104 -24.241  0.00  0.00    -0.643 OA
ENDBRANCH   8   9
ENDBRANCH   1   8
TORSDOF 2
ENDMDL
