MODEL 1
REMARK VINA RESULT:      54.3      0.000      0.000
REMARK  9 active torsions:
REMARK  status: ('A' for Active; 'I' for Inactive)
REMARK    1  A    between atoms: N_5  and  S_1 
REMARK    2  A    between atoms: C_8  and  S_1 
REMARK    3  A    between atoms: C_2  and  N_10 
REMARK    4  A    between atoms: C_9  and  N_5 
REMARK    5  A    between atoms: C_25  and  N_5 
REMARK    6  A    between atoms: C_13  and  C_9 
REMARK    7  A    between atoms: N_10  and  O_14 
REMARK    8  A    between atoms: C_17  and  C_13 
REMARK    9  A    between atoms: O_14  and  C_17 
ROOT
ATOM      1  C   UNL d   1      14.626  16.132  -4.270  0.00  0.00     0.240 C 
ATOM      2  O   UNL d   1      15.436  16.044  -4.115  0.00  0.00    -0.283 OA
ENDROOT
BRANCH   1   3
ATOM      3  C   UNL d   1      14.867  16.710  -4.815  0.00  0.00     0.136 C 
BRANCH   3   4
ATOM      4  N   UNL d   1      14.398  16.858  -5.481  0.00  0.00    -0.226 N 
BRANCH   4   5
ATOM      5  S   UNL d   1      14.266  17.637  -5.734  0.00  0.00     0.271 S 
ATOM      6  O   UNL d   1      13.922  17.197  -6.347  0.00  0.00    -0.200 OA
ATOM      7  O   UNL d   1      14.543  18.242  -5.247  0.00  0.00    -0.200 OA
BRANCH   5   8
ATOM      8  C   UNL d   1      14.257  18.457  -5.767  0.00  0.00     0.104 A 
ATOM      9  C   UNL d   1      13.835  18.840  -6.357  0.00  0.00     0.013 A 
ATOM     10  C   UNL d   1      13.827  19.669  -6.389  0.00  0.00     0.001 A 
ATOM     11  C   UNL d   1      14.246  20.108  -5.823  0.00  0.00     0.000 A 
ATOM     12  C   UNL d   1      14.653  19.670  -5.253  0.00  0.00     0.001 A 
ATOM     13  C   UNL d   1      14.253  20.935  -5.834  0.00  0.00     0.000 C 
ATOM     14  C   UNL d   1      14.685  18.854  -5.189  0.00  0.00     0.013 A 
ENDBRANCH   5   8
ENDBRANCH   4   5
BRANCH   4  15
ATOM     15  C   UNL d   1      13.995  16.352  -5.995  0.00  0.00     0.092 C 
ATOM     16  C   UNL d   1      14.223  15.560  -6.052  0.00  0.00     0.021 C 
ENDBRANCH   4  15
ENDBRANCH   3   4
ENDBRANCH   1   3
BRANCH   1  17
ATOM     17  C   UNL d   1      14.069  15.676  -3.870  0.00  0.00     0.193 C 
BRANCH  17  18
ATOM     18  O   UNL d   1      14.239  14.885  -3.698  0.00  0.00    -0.206 OA
BRANCH  18  19
ATOM     19  N   UNL d   1      13.826  14.493  -3.103  0.00  0.00    -0.126 NA
BRANCH  19  20
ATOM     20  C   UNL d   1      13.803  13.666  -3.087  0.00  0.00     0.108 A 
ATOM     21  C   UNL d   1      13.457  13.178  -3.659  0.00  0.00     0.020 A 
ATOM     22  C   UNL d   1      13.562  12.395  -3.422  0.00  0.00     0.002 A 
ATOM     23  C   UNL d   1      13.061  13.345  -4.364  0.00  0.00     0.002 A 
ATOM     24  C   UNL d   1      13.271  11.779  -3.889  0.00  0.00     0.000 A 
ATOM     25  C   UNL d   1      13.969  12.390  -2.708  0.00  0.00     0.002 A 
ATOM     26  C   UNL d   1      12.876  11.947  -4.593  0.00  0.00     0.000 A 
ATOM     27  C   UNL d   1      12.770  12.730  -4.831  0.00  0.00     0.000 A 
ATOM     28  C   UNL d   1      14.116  13.175  -2.503  0.00  0.00     0.020 A 
ATOM     29  C   UNL d   1      14.227  11.783  -2.214  0.00  0.00     0.000 A 
ATOM     30  C   UNL d   1      14.520  13.354  -1.809  0.00  0.00     0.002 A 
ATOM     31  C   UNL d   1      14.778  12.747  -1.314  0.00  0.00     0.000 A 
ATOM     32  C   UNL d   1      14.630  11.957  -1.519  0.00  0.00     0.000 A 
ENDBRANCH  19  20
ENDBRANCH  18  19
ENDBRANCH  17  18
ENDBRANCH   1  17
TORSDOF 9
ENDMDL
MODEL 2
REMARK VINA RESULT:      56.0      3.440      4.896
REMARK  9 active torsions:
REMARK  status: ('A' for Active; 'I' for Inactive)
REMARK    1  A    between atoms: N_5  and  S_1 
REMARK    2  A    between atoms: C_8  and  S_1 
REMARK    3  A    between atoms: C_2  and  N_10 
REMARK    4  A    between atoms: C_9  and  N_5 
REMARK    5  A    between atoms: C_25  and  N_5 
REMARK    6  A    between atoms: C_13  and  C_9 
REMARK    7  A    between atoms: N_10  and  O_14 
REMARK    8  A    between atoms: C_17  and  C_13 
REMARK    9  A    between atoms: O_14  and  C_17 
ROOT
ATOM      1  C   UNL d   1      14.380  12.403  -0.892  0.00  0.00     0.240 C 
ATOM      2  O   UNL d   1      13.955  11.985  -0.316  0.00  0.00    -0.283 OA
ENDROOT
BRANCH   1   3
ATOM      3  C   UNL d   1      14.667  12.849  -0.254  0.00  0.00     0.136 C 
BRANCH   3   4
ATOM      4  N   UNL d   1      15.283  13.387  -0.382  0.00  0.00    -0.226 N 
BRANCH   4   5
ATOM      5  S   UNL d   1      15.125  14.200  -0.428  0.00  0.00     0.271 S 
ATOM      6  O   UNL d   1      14.442  13.913  -0.055  0.00  0.00    -0.200 OA
ATOM      7  O   UNL d   1      15.702  14.676  -0.777  0.00  0.00    -0.200 OA
BRANCH   5   8
ATOM      8  C   UNL d   1      15.198  15.003  -0.583  0.00  0.00     0.104 A 
ATOM      9  C   UNL d   1      14.972  15.553  -0.018  0.00  0.00     0.013 A 
ATOM     10  C   UNL d   1      15.046  16.364  -0.177  0.00  0.00     0.001 A 
ATOM     11  C   UNL d   1      15.349  16.616  -0.907  0.00  0.00     0.000 A 
ATOM     12  C   UNL d   1      15.561  16.019  -1.437  0.00  0.00     0.001 A 
ATOM     13  C   UNL d   1      15.433  17.418  -1.088  0.00  0.00     0.000 C 
ATOM     14  C   UNL d   1      15.503  15.211  -1.317  0.00  0.00     0.013 A 
ENDBRANCH   5   8
ENDBRANCH   4   5
BRANCH   4  15
ATOM     15  C   UNL d   1      16.096  13.280  -0.483  0.00  0.00     0.092 C 
ATOM     16  C   UNL d   1      16.444  12.564  -0.265  0.00  0.00     0.021 C 
ENDBRANCH   4  15
ENDBRANCH   3   4
ENDBRANCH   1   3
BRANCH   1  17
ATOM     17  C   UNL d   1      14.318  12.200  -1.688  0.00  0.00     0.193 C 
BRANCH  17  18
ATOM     18  O   UNL d   1      13.726  12.545  -2.151  0.00  0.00    -0.206 OA
BRANCH  18  19
ATOM     19  N   UNL d   1      13.552  12.238  -2.895  0.00  0.00    -0.126 NA
BRANCH  19  20
ATOM     20  C   UNL d   1      13.419  12.746  -3.534  0.00  0.00     0.108 A 
ATOM     21  C   UNL d   1      13.243  13.554  -3.485  0.00  0.00     0.020 A 
ATOM     22  C   UNL d   1      13.155  13.842  -4.254  0.00  0.00     0.002 A 
ATOM     23  C   UNL d   1      13.152  14.063  -2.842  0.00  0.00     0.002 A 
ATOM     24  C   UNL d   1      12.976  14.638  -4.379  0.00  0.00     0.000 A 
ATOM     25  C   UNL d   1      13.274  13.222  -4.781  0.00  0.00     0.002 A 
ATOM     26  C   UNL d   1      12.885  15.146  -3.735  0.00  0.00     0.000 A 
ATOM     27  C   UNL d   1      12.973  14.859  -2.967  0.00  0.00     0.000 A 
ATOM     28  C   UNL d   1      13.437  12.547  -4.335  0.00  0.00     0.020 A 
ATOM     29  C   UNL d   1      13.258  13.175  -5.603  0.00  0.00     0.000 A 
ATOM     30  C   UNL d   1      13.583  11.829  -4.708  0.00  0.00     0.002 A 
ATOM     31  C   UNL d   1      13.567  11.781  -5.530  0.00  0.00     0.000 A 
ATOM     32  C   UNL d   1      13.403  12.458  -5.980  0.00  0.00     0.000 A 
ENDBRANCH  19  20
ENDBRANCH  18  19
ENDBRANCH  17  18
ENDBRANCH   1  17
TORSDOF 9
ENDMDL
MODEL 3
REMARK VINA RESULT:      57.1      0.534      1.826
REMARK  9 active torsions:
REMARK  status: ('A' for Active; 'I' for Inactive)
REMARK    1  A    between atoms: N_5  and  S_1 
REMARK    2  A    between atoms: C_8  and  S_1 
REMARK    3  A    between atoms: C_2  and  N_10 
REMARK    4  A    between atoms: C_9  and  N_5 
REMARK    5  A    between atoms: C_25  and  N_5 
REMARK    6  A    between atoms: C_13  and  C_9 
REMARK    7  A    between atoms: N_10  and  O_14 
REMARK    8  A    between atoms: C_17  and  C_13 
REMARK    9  A    between atoms: O_14  and  C_17 
ROOT
ATOM      1  C   UNL d   1      14.134  15.927  -4.474  0.00  0.00     0.240 C 
ATOM      2  O   UNL d   1      13.496  15.617  -4.903  0.00  0.00    -0.283 OA
ENDROOT
BRANCH   1   3
ATOM      3  C   UNL d   1      14.265  16.395  -5.147  0.00  0.00     0.136 C 
BRANCH   3   4
ATOM      4  N   UNL d   1      14.803  17.023  -5.103  0.00  0.00    -0.226 N 
BRANCH   4   5
ATOM      5  S   UNL d   1      14.661  17.724  -5.523  0.00  0.00     0.271 S 
ATOM      6  O   UNL d   1      14.934  17.219  -6.121  0.00  0.00    -0.200 OA
ATOM      7  O   UNL d   1      14.376  18.368  -5.094  0.00  0.00    -0.200 OA
BRANCH   5   8
ATOM      8  C   UNL d   1      14.451  18.496  -5.707  0.00  0.00     0.104 A 
ATOM      9  C   UNL d   1      13.811  18.643  -6.200  0.00  0.00     0.013 A 
ATOM     10  C   UNL d   1      13.602  19.424  -6.384  0.00  0.00     0.001 A 
ATOM     11  C   UNL d   1      14.039  20.055  -6.070  0.00  0.00     0.000 A 
ATOM     12  C   UNL d   1      14.672  19.848  -5.580  0.00  0.00     0.001 A 
ATOM     13  C   UNL d   1      13.849  20.842  -6.239  0.00  0.00     0.000 C 
ATOM     14  C   UNL d   1      14.910  19.092  -5.375  0.00  0.00     0.013 A 
ENDBRANCH   5   8
ENDBRANCH   4   5
BRANCH   4  15
ATOM     15  C   UNL d   1      15.515  17.111  -4.695  0.00  0.00     0.092 C 
ATOM     16  C   UNL d   1      16.126  16.568  -4.815  0.00  0.00     0.021 C 
ENDBRANCH   4  15
ENDBRANCH   3   4
ENDBRANCH   1   3
BRANCH   1  17
ATOM     17  C   UNL d   1      14.296  15.661  -3.712  0.00  0.00     0.193 C 
BRANCH  17  18
ATOM     18  O   UNL d   1      14.351  14.848  -3.567  0.00  0.00    -0.206 OA
BRANCH  18  19
ATOM     19  N   UNL d   1      13.853  14.491  -3.019  0.00  0.00    -0.126 NA
BRANCH  19  20
ATOM     20  C   UNL d   1      13.792  13.667  -2.985  0.00  0.00     0.108 A 
ATOM     21  C   UNL d   1      14.074  13.183  -2.375  0.00  0.00     0.020 A 
ATOM     22  C   UNL d   1      13.896  12.400  -2.569  0.00  0.00     0.002 A 
ATOM     23  C   UNL d   1      14.468  13.353  -1.670  0.00  0.00     0.002 A 
ATOM     24  C   UNL d   1      14.112  11.789  -2.058  0.00  0.00     0.000 A 
ATOM     25  C   UNL d   1      13.506  12.392  -3.293  0.00  0.00     0.002 A 
ATOM     26  C   UNL d   1      14.506  11.960  -1.354  0.00  0.00     0.000 A 
ATOM     27  C   UNL d   1      14.684  12.741  -1.159  0.00  0.00     0.000 A 
ATOM     28  C   UNL d   1      13.444  13.174  -3.548  0.00  0.00     0.020 A 
ATOM     29  C   UNL d   1      13.200  11.784  -3.756  0.00  0.00     0.000 A 
ATOM     30  C   UNL d   1      13.077  13.349  -4.263  0.00  0.00     0.002 A 
ATOM     31  C   UNL d   1      12.770  12.741  -4.727  0.00  0.00     0.000 A 
ATOM     32  C   UNL d   1      12.832  11.955  -4.472  0.00  0.00     0.000 A 
ENDBRANCH  19  20
ENDBRANCH  18  19
ENDBRANCH  17  18
ENDBRANCH   1  17
TORSDOF 9
ENDMDL
