MODEL 1
REMARK VINA RESULT:     -10.7      0.000      0.000
REMARK  2 active torsions:
REMARK  status: ('A' for Active; 'I' for Inactive)
REMARK    1  A    between atoms: C_5  and  C_1 
REMARK    2  A    between atoms: C_7  and  N_2 
ROOT
ATOM      1  C   UNL d   1      52.757  32.800  53.346  0.00  0.00     0.129 A 
ATOM      2  N   UNL d   1      53.398  32.436  53.733  0.00  0.00    -0.302 N 
ATOM      3  C   UNL d   1      52.339  32.207  52.947  0.00  0.00     0.025 A 
ATOM      4  C   UNL d   1      53.372  31.626  53.572  0.00  0.00     0.064 A 
ATOM      5  C   UNL d   1      52.714  31.484  53.083  0.00  0.00     0.018 A 
ATOM      6  C   UNL d   1      53.858  30.994  53.803  0.00  0.00     0.018 A 
ATOM      7  C   UNL d   1      52.548  30.712  52.830  0.00  0.00     0.002 A 
ATOM      8  C   UNL d   1      53.689  30.231  53.549  0.00  0.00     0.002 A 
ATOM      9  C   UNL d   1      53.038  30.091  53.065  0.00  0.00     0.000 A 
ENDROOT
BRANCH   2  10
ATOM     10  C   UNL d   1      53.964  32.817  54.199  0.00  0.00     0.064 A 
ATOM     11  C   UNL d   1      54.648  33.108  53.844  0.00  0.00     0.018 A 
ATOM     12  C   UNL d   1      55.212  33.488  54.307  0.00  0.00     0.002 A 
ATOM     13  C   UNL d   1      55.093  33.576  55.118  0.00  0.00     0.000 A 
ATOM     14  C   UNL d   1      54.405  33.282  55.472  0.00  0.00     0.002 A 
ATOM     15  C   UNL d   1      53.842  32.902  55.004  0.00  0.00     0.018 A 
ENDBRANCH   2  10
BRANCH   1  16
ATOM     16  C   UNL d   1      52.574  33.603  53.359  0.00  0.00     0.228 C 
ATOM     17  O   UNL d   1      52.897  34.108  52.795  0.00  0.00    -0.643 OA
ATOM     18  O   UNL d   1      52.065  33.900  53.941  0.00  0.00    -0.643 OA
ENDBRANCH   1  16
TORSDOF 2
ENDMDL
MODEL 2
REMARK VINA RESULT:     -10.6      1.352      3.097
REMARK  2 active torsions:
REMARK  status: ('A' for Active; 'I' for Inactive)
REMARK    1  A    between atoms: C_5  and  C_1 
REMARK    2  A    between atoms: C_7  and  N_2 
ROOT
ATOM      1  C   UNL d   1      53.035  32.193  53.479  0.00  0.00     0.129 A 
ATOM      2  N   UNL d   1      52.801  32.982  53.610  0.00  0.00    -0.302 N 
ATOM      3  C   UNL d   1      53.708  32.053  53.939  0.00  0.00     0.025 A 
ATOM      4  C   UNL d   1      53.328  33.322  54.147  0.00  0.00     0.064 A 
ATOM      5  C   UNL d   1      53.892  32.745  54.351  0.00  0.00     0.018 A 
ATOM      6  C   UNL d   1      53.375  34.080  54.480  0.00  0.00     0.018 A 
ATOM      7  C   UNL d   1      54.497  32.932  54.887  0.00  0.00     0.002 A 
ATOM      8  C   UNL d   1      53.976  34.261  55.010  0.00  0.00     0.002 A 
ATOM      9  C   UNL d   1      54.534  33.690  55.213  0.00  0.00     0.000 A 
ENDROOT
BRANCH   2  10
ATOM     10  C   UNL d   1      52.153  33.360  53.263  0.00  0.00     0.064 A 
ATOM     11  C   UNL d   1      52.265  33.803  52.578  0.00  0.00     0.018 A 
ATOM     12  C   UNL d   1      51.621  34.180  52.232  0.00  0.00     0.002 A 
ATOM     13  C   UNL d   1      50.871  34.116  52.569  0.00  0.00     0.000 A 
ATOM     14  C   UNL d   1      50.762  33.670  53.259  0.00  0.00     0.002 A 
ATOM     15  C   UNL d   1      51.411  33.293  53.602  0.00  0.00     0.018 A 
ENDBRANCH   2  10
BRANCH   1  16
ATOM     16  C   UNL d   1      52.662  31.652  52.982  0.00  0.00     0.228 C 
ATOM     17  O   UNL d   1      52.886  31.595  52.193  0.00  0.00    -0.643 OA
ATOM     18  O   UNL d   1      52.060  31.166  53.279  0.00  0.00    -0.643 OA
ENDBRANCH   1  16
TORSDOF 2
ENDMDL
MODEL 3
REMARK VINA RESULT:     -10.1      1.261      2.301
REMARK  2 active torsions:
REMARK  status: ('A' for Active; 'I' for Inactive)
REMARK    1  A    between atoms: C_5  and  C_1 
REMARK    2  A    between atoms: C_7  and  N_2 
ROOT
ATOM      1  C   UNL d   1      53.165  32.174  53.437  0.00  0.00     0.129 A 
ATOM      2  N   UNL d   1      53.328  32.941  53.716  0.00  0.00    -0.302 N 
ATOM      3  C   UNL d   1      52.501  32.225  52.945  0.00  0.00     0.025 A 
ATOM      4  C   UNL d   1      52.769  33.458  53.397  0.00  0.00     0.064 A 
ATOM      5  C   UNL d   1      52.255  33.013  52.918  0.00  0.00     0.018 A 
ATOM      6  C   UNL d   1      52.654  34.276  53.475  0.00  0.00     0.018 A 
ATOM      7  C   UNL d   1      51.631  33.389  52.522  0.00  0.00     0.002 A 
ATOM      8  C   UNL d   1      52.035  34.645  53.081  0.00  0.00     0.002 A 
ATOM      9  C   UNL d   1      51.526  34.204  52.607  0.00  0.00     0.000 A 
ENDROOT
BRANCH   2  10
ATOM     10  C   UNL d   1      53.945  33.152  54.225  0.00  0.00     0.064 A 
ATOM     11  C   UNL d   1      54.671  33.373  53.907  0.00  0.00     0.018 A 
ATOM     12  C   UNL d   1      55.285  33.583  54.413  0.00  0.00     0.002 A 
ATOM     13  C   UNL d   1      55.174  33.572  55.230  0.00  0.00     0.000 A 
ATOM     14  C   UNL d   1      54.442  33.349  55.546  0.00  0.00     0.002 A 
ATOM     15  C   UNL d   1      53.829  33.139  55.035  0.00  0.00     0.018 A 
ENDBRANCH   2  10
BRANCH   1  16
ATOM     16  C   UNL d   1      53.587  31.490  53.619  0.00  0.00     0.228 C 
ATOM     17  O   UNL d   1      54.233  31.270  53.159  0.00  0.00    -0.643 OA
ATOM     18  O   UNL d   1      53.360  31.026  54.266  0.00  0.00    -0.643 OA
ENDBRANCH   1  16
TORSDOF 2
ENDMDL
MODEL 4
REMARK VINA RESULT:      -9.9      1.124      2.550
REMARK  2 active torsions:
REMARK  status: ('A' for Active; 'I' for Inactive)
REMARK    1  A    between atoms: C_5  and  C_1 
REMARK    2  A    between atoms: C_7  and  N_2 
ROOT
ATOM      1  C   UNL d   1      53.259  33.341  53.986  0.00  0.00     0.129 A 
ATOM      2  N   UNL d   1      52.684  33.014  53.480  0.00  0.00    -0.302 N 
ATOM      3  C   UNL d   1      53.796  32.740  54.174  0.00  0.00     0.025 A 
ATOM      4  C   UNL d   1      52.868  32.218  53.360  0.00  0.00     0.064 A 
ATOM      5  C   UNL d   1      53.559  32.048  53.791  0.00  0.00     0.018 A 
ATOM      6  C   UNL d   1      52.502  31.620  52.916  0.00  0.00     0.018 A 
ATOM      7  C   UNL d   1      53.877  31.282  53.774  0.00  0.00     0.002 A 
ATOM      8  C   UNL d   1      52.820  30.863  52.902  0.00  0.00     0.002 A 
ATOM      9  C   UNL d   1      53.505  30.695  53.329  0.00  0.00     0.000 A 
ENDROOT
BRANCH   2  10
ATOM     10  C   UNL d   1      52.039  33.415  53.153  0.00  0.00     0.064 A 
ATOM     11  C   UNL d   1      51.313  33.393  53.541  0.00  0.00     0.018 A 
ATOM     12  C   UNL d   1      50.671  33.791  53.218  0.00  0.00     0.002 A 
ATOM     13  C   UNL d   1      50.753  34.209  52.511  0.00  0.00     0.000 A 
ATOM     14  C   UNL d   1      51.485  34.229  52.124  0.00  0.00     0.002 A 
ATOM     15  C   UNL d   1      52.126  33.828  52.452  0.00  0.00     0.018 A 
ENDBRANCH   2  10
BRANCH   1  16
ATOM     16  C   UNL d   1      53.287  34.121  54.249  0.00  0.00     0.228 C 
ATOM     17  O   UNL d   1      53.663  34.696  53.797  0.00  0.00    -0.643 OA
ATOM     18  O   UNL d   1      52.934  34.325  54.971  0.00  0.00    -0.643 OA
ENDBRANCH   1  16
TORSDOF 2
ENDMDL
