MODEL 1
REMARK VINA RESULT:      90.3      0.000      0.000
REMARK  7 active torsions:
REMARK  status: ('A' for Active; 'I' for Inactive)
REMARK    1  A    between atoms: C_5  and  C_1 
REMARK    2  A    between atoms: N_3  and  C_2 
REMARK    3  A    between atoms: C_14  and  C_5 
REMARK    4  A    between atoms: C_10  and  C_6 
REMARK    5  A    between atoms: O_19  and  C_10 
REMARK    6  A    between atoms: O_22  and  C_18 
REMARK    7  A    between atoms: C_26  and  O_19 
ROOT
ATOM      1  C   UNL d   1     -58.624 -98.984 -44.370  0.00  0.00     0.074 A 
ATOM      2  C   UNL d   1     -58.247 -98.999 -43.623  0.00  0.00     0.070 A 
ATOM      3  C   UNL d   1     -58.692 -98.923 -42.931  0.00  0.00     0.036 A 
ATOM      4  C   UNL d   1     -59.444 -98.893 -44.412  0.00  0.00     0.103 A 
ATOM      5  N   UNL d   1     -59.889 -98.816 -43.708  0.00  0.00    -0.244 NA
ATOM      6  C   UNL d   1     -59.512 -98.831 -42.974  0.00  0.00     0.083 A 
ATOM      7  C   UNL d   1     -58.314 -98.938 -42.198  0.00  0.00     0.027 A 
ATOM      8  C   UNL d   1     -59.956 -98.755 -42.283  0.00  0.00     0.021 A 
ATOM      9  C   UNL d   1     -58.759 -98.862 -41.506  0.00  0.00     0.094 A 
ATOM     10  C   UNL d   1     -59.579 -98.771 -41.549  0.00  0.00     0.026 A 
ENDROOT
BRANCH   2  11
ATOM     11  N   UNL d   1     -57.422 -99.091 -43.580  0.00  0.00    -0.303 N 
ATOM     12  C   UNL d   1     -57.023 -99.515 -44.164  0.00  0.00     0.086 A 
ATOM     13  C   UNL d   1     -56.194 -99.608 -44.121  0.00  0.00     0.081 A 
ATOM     14  C   UNL d   1     -55.774 -99.274 -43.494  0.00  0.00     0.008 A 
ATOM     15  C   UNL d   1     -56.173 -98.850 -42.910  0.00  0.00     0.019 A 
ATOM     16  C   UNL d   1     -57.002 -98.757 -42.953  0.00  0.00     0.080 A 
BRANCH  13  17
ATOM     17  C   UNL d   1     -55.791-100.039 -44.714  0.00  0.00     0.302 C 
ATOM     18  O   UNL d   1     -55.767 -99.734 -45.491  0.00  0.00    -0.259 OA
BRANCH  17  19
ATOM     19  O   UNL d   1     -55.425-100.754 -44.529  0.00  0.00    -0.271 OA
BRANCH  19  20
ATOM     20  C   UNL d   1     -54.864-101.074 -45.042  0.00  0.00     0.126 C 
ATOM     21  C   UNL d   1     -54.843-100.833 -45.831  0.00  0.00     0.029 C 
ENDBRANCH  19  20
ENDBRANCH  17  19
ENDBRANCH  13  17
ENDBRANCH   2  11
BRANCH   1  22
ATOM     22  C   UNL d   1     -58.179 -99.060 -45.061  0.00  0.00     0.198 C 
ATOM     23  O   UNL d   1     -57.363 -99.186 -45.029  0.00  0.00    -0.286 OA
BRANCH  22  24
ATOM     24  C   UNL d   1     -58.552 -99.010 -45.794  0.00  0.00     0.039 A 
ATOM     25  C   UNL d   1     -58.108 -98.835 -46.469  0.00  0.00     0.003 A 
ATOM     26  C   UNL d   1     -58.480 -98.783 -47.216  0.00  0.00     0.000 A 
ATOM     27  C   UNL d   1     -59.295 -98.909 -47.265  0.00  0.00     0.000 A 
ATOM     28  C   UNL d   1     -59.739 -99.085 -46.591  0.00  0.00     0.000 A 
ATOM     29  C   UNL d   1     -59.366 -99.135 -45.855  0.00  0.00     0.003 A 
ENDBRANCH  22  24
ENDBRANCH   1  22
BRANCH   9  30
ATOM     30  O   UNL d   1     -58.378 -98.878 -40.772  0.00  0.00    -0.328 OA
ATOM     31  C   UNL d   1     -57.552 -98.929 -40.746  0.00  0.00     0.181 C 
ENDBRANCH   9  30
TORSDOF 7
ENDMDL
