MODEL 1
REMARK VINA RESULT:      -7.5      0.000      0.000
REMARK  6 active torsions:
REMARK  status: ('A' for Active; 'I' for Inactive)
REMARK    1  A    between atoms: N_6  and  C_1 
REMARK    2  A    between atoms: C_4  and  C_2 
REMARK    3  A    between atoms: C_7  and  C_4 
REMARK    4  A    between atoms: C_8  and  C_4 
REMARK    5  A    between atoms: O_12  and  C_7 
REMARK    6  A    between atoms: C_16  and  O_12 
ROOT
ATOM      1  C   UNL d   1      52.860  33.274  53.480  0.00  0.00     0.166 A 
ATOM      2  C   UNL d   1      52.223  33.106  52.983  0.00  0.00     0.122 A 
ATOM      3  N   UNL d   1      53.360  32.666  53.741  0.00  0.00    -0.225 NA
ATOM      4  N   UNL d   1      52.087  32.325  52.747  0.00  0.00    -0.241 NA
ATOM      5  C   UNL d   1      53.216  31.888  53.500  0.00  0.00     0.101 A 
ATOM      6  C   UNL d   1      52.583  31.720  53.005  0.00  0.00     0.099 A 
ATOM      7  C   UNL d   1      53.711  31.290  53.758  0.00  0.00     0.021 A 
ATOM      8  C   UNL d   1      52.443  30.942  52.767  0.00  0.00     0.021 A 
ATOM      9  C   UNL d   1      52.938  30.341  53.025  0.00  0.00     0.002 A 
ATOM     10  C   UNL d   1      53.575  30.510  53.522  0.00  0.00     0.002 A 
ENDROOT
BRANCH   2  11
ATOM     11  C   UNL d   1      51.722  33.714  52.722  0.00  0.00     0.105 C 
BRANCH  11  12
ATOM     12  C   UNL d   1      50.946  33.758  52.998  0.00  0.00     0.303 C 
ATOM     13  O   UNL d   1      50.663  33.185  53.517  0.00  0.00    -0.259 OA
BRANCH  12  14
ATOM     14  O   UNL d   1      50.458  34.371  52.757  0.00  0.00    -0.273 OA
BRANCH  14  15
ATOM     15  C   UNL d   1      49.726  34.744  52.776  0.00  0.00     0.103 A 
ATOM     16  C   UNL d   1      49.203  34.648  52.145  0.00  0.00     0.025 A 
ATOM     17  C   UNL d   1      48.472  35.018  52.159  0.00  0.00     0.002 A 
ATOM     18  C   UNL d   1      48.264  35.482  52.798  0.00  0.00     0.000 A 
ATOM     19  C   UNL d   1      48.779  35.580  53.425  0.00  0.00     0.002 A 
ATOM     20  C   UNL d   1      49.519  35.207  53.415  0.00  0.00     0.025 A 
ENDBRANCH  14  15
ENDBRANCH  12  14
ENDBRANCH  11  12
BRANCH  11  21
ATOM     21  C   UNL d   1      51.998  34.282  52.182  0.00  0.00     0.129 C 
ATOM     22  N   UNL d   1      51.814  34.241  51.249  0.00  0.00    -0.146 N 
ENDBRANCH  11  21
ENDBRANCH   2  11
BRANCH   1  23
ATOM     23  N   UNL d   1      53.002  34.053  53.720  0.00  0.00    -0.288 N 
ATOM     24  C   UNL d   1      52.836  34.274  54.505  0.00  0.00     0.082 A 
ATOM     25  C   UNL d   1      52.982  35.059  54.740  0.00  0.00     0.018 A 
ATOM     26  C   UNL d   1      52.820  35.287  55.519  0.00  0.00     0.002 C 
ATOM     27  C   UNL d   1      53.288  35.611  54.201  0.00  0.00     0.003 A 
ATOM     28  C   UNL d   1      53.447  35.378  53.427  0.00  0.00     0.019 A 
ATOM     29  C   UNL d   1      53.308  34.605  53.181  0.00  0.00     0.082 A 
ENDBRANCH   1  23
TORSDOF 6
ENDMDL
MODEL 2
REMARK VINA RESULT:      -7.2      1.270      1.706
REMARK  6 active torsions:
REMARK  status: ('A' for Active; 'I' for Inactive)
REMARK    1  A    between atoms: N_6  and  C_1 
REMARK    2  A    between atoms: C_4  and  C_2 
REMARK    3  A    between atoms: C_7  and  C_4 
REMARK    4  A    between atoms: C_8  and  C_4 
REMARK    5  A    between atoms: O_12  and  C_7 
REMARK    6  A    between atoms: C_16  and  O_12 
ROOT
ATOM      1  C   UNL d   1      53.631  32.316  54.048  0.00  0.00     0.166 A 
ATOM      2  C   UNL d   1      53.068  32.546  53.491  0.00  0.00     0.122 A 
ATOM      3  N   UNL d   1      53.812  31.513  54.154  0.00  0.00    -0.225 NA
ATOM      4  N   UNL d   1      52.685  31.970  53.037  0.00  0.00    -0.241 NA
ATOM      5  C   UNL d   1      53.424  30.943  53.697  0.00  0.00     0.101 A 
ATOM      6  C   UNL d   1      52.864  31.172  53.141  0.00  0.00     0.099 A 
ATOM      7  C   UNL d   1      53.604  30.153  53.803  0.00  0.00     0.021 A 
ATOM      8  C   UNL d   1      52.480  30.601  52.687  0.00  0.00     0.021 A 
ATOM      9  C   UNL d   1      52.659  29.807  52.792  0.00  0.00     0.002 A 
ATOM     10  C   UNL d   1      53.221  29.577  53.349  0.00  0.00     0.002 A 
ENDROOT
BRANCH   2  11
ATOM     11  C   UNL d   1      52.887  33.349  53.385  0.00  0.00     0.105 C 
BRANCH  11  12
ATOM     12  C   UNL d   1      52.127  33.626  53.546  0.00  0.00     0.303 C 
ATOM     13  O   UNL d   1      51.881  33.715  54.327  0.00  0.00    -0.259 OA
BRANCH  12  14
ATOM     14  O   UNL d   1      51.617  33.812  52.931  0.00  0.00    -0.273 OA
BRANCH  14  15
ATOM     15  C   UNL d   1      50.893  34.099  52.673  0.00  0.00     0.103 A 
ATOM     16  C   UNL d   1      50.670  33.994  51.886  0.00  0.00     0.025 A 
ATOM     17  C   UNL d   1      49.947  34.280  51.623  0.00  0.00     0.002 A 
ATOM     18  C   UNL d   1      49.450  34.667  52.143  0.00  0.00     0.000 A 
ATOM     19  C   UNL d   1      49.668  34.773  52.923  0.00  0.00     0.002 A 
ATOM     20  C   UNL d   1      50.397  34.487  53.193  0.00  0.00     0.025 A 
ENDBRANCH  14  15
ENDBRANCH  12  14
ENDBRANCH  11  12
BRANCH  11  21
ATOM     21  C   UNL d   1      53.468  33.879  53.115  0.00  0.00     0.129 C 
ATOM     22  N   UNL d   1      53.418  34.316  52.271  0.00  0.00    -0.146 N 
ENDBRANCH  11  21
ENDBRANCH   2  11
BRANCH   1  23
ATOM     23  N   UNL d   1      54.018  32.886  54.506  0.00  0.00    -0.288 N 
ATOM     24  C   UNL d   1      54.788  33.122  54.298  0.00  0.00     0.082 A 
ATOM     25  C   UNL d   1      55.172  33.696  54.763  0.00  0.00     0.018 A 
ATOM     26  C   UNL d   1      55.937  33.936  54.562  0.00  0.00     0.002 C 
ATOM     27  C   UNL d   1      54.792  34.028  55.422  0.00  0.00     0.003 A 
ATOM     28  C   UNL d   1      54.029  33.785  55.616  0.00  0.00     0.019 A 
ATOM     29  C   UNL d   1      53.638  33.218  55.165  0.00  0.00     0.082 A 
ENDBRANCH   1  23
TORSDOF 6
ENDMDL
MODEL 3
REMARK VINA RESULT:      -6.1      1.676      4.355
REMARK  6 active torsions:
REMARK  status: ('A' for Active; 'I' for Inactive)
REMARK    1  A    between atoms: N_6  and  C_1 
REMARK    2  A    between atoms: C_4  and  C_2 
REMARK    3  A    between atoms: C_7  and  C_4 
REMARK    4  A    between atoms: C_8  and  C_4 
REMARK    5  A    between atoms: O_12  and  C_7 
REMARK    6  A    between atoms: C_16  and  O_12 
ROOT
ATOM      1  C   UNL d   1      52.995  33.407  53.914  0.00  0.00     0.166 A 
ATOM      2  C   UNL d   1      52.951  32.827  53.329  0.00  0.00     0.122 A 
ATOM      3  N   UNL d   1      52.437  34.021  53.938  0.00  0.00    -0.225 NA
ATOM      4  N   UNL d   1      52.346  32.861  52.766  0.00  0.00    -0.241 NA
ATOM      5  C   UNL d   1      51.835  34.048  53.372  0.00  0.00     0.101 A 
ATOM      6  C   UNL d   1      51.791  33.470  52.790  0.00  0.00     0.099 A 
ATOM      7  C   UNL d   1      51.286  34.653  53.398  0.00  0.00     0.021 A 
ATOM      8  C   UNL d   1      51.189  33.501  52.226  0.00  0.00     0.021 A 
ATOM      9  C   UNL d   1      50.637  34.107  52.250  0.00  0.00     0.002 A 
ATOM     10  C   UNL d   1      50.681  34.687  52.835  0.00  0.00     0.002 A 
ENDROOT
BRANCH   2  11
ATOM     11  C   UNL d   1      53.509  32.214  53.304  0.00  0.00     0.105 C 
BRANCH  11  12
ATOM     12  C   UNL d   1      53.259  31.430  53.237  0.00  0.00     0.303 C 
ATOM     13  O   UNL d   1      52.885  31.178  52.549  0.00  0.00    -0.259 OA
BRANCH  12  14
ATOM     14  O   UNL d   1      53.384  30.904  53.855  0.00  0.00    -0.273 OA
BRANCH  14  15
ATOM     15  C   UNL d   1      53.386  30.135  54.140  0.00  0.00     0.103 A 
ATOM     16  C   UNL d   1      53.007  29.963  54.853  0.00  0.00     0.025 A 
ATOM     17  C   UNL d   1      53.006  29.196  55.142  0.00  0.00     0.002 A 
ATOM     18  C   UNL d   1      53.382  28.604  54.724  0.00  0.00     0.000 A 
ATOM     19  C   UNL d   1      53.758  28.770  54.018  0.00  0.00     0.002 A 
ATOM     20  C   UNL d   1      53.762  29.543  53.721  0.00  0.00     0.025 A 
ENDBRANCH  14  15
ENDBRANCH  12  14
ENDBRANCH  11  12
BRANCH  11  21
ATOM     21  C   UNL d   1      54.322  32.382  53.347  0.00  0.00     0.129 C 
ATOM     22  N   UNL d   1      54.934  32.161  52.653  0.00  0.00    -0.146 N 
ENDBRANCH  11  21
ENDBRANCH   2  11
BRANCH   1  23
ATOM     23  N   UNL d   1      53.598  33.380  54.480  0.00  0.00    -0.288 N 
ATOM     24  C   UNL d   1      54.290  33.825  54.361  0.00  0.00     0.082 A 
ATOM     25  C   UNL d   1      54.892  33.793  54.935  0.00  0.00     0.018 A 
ATOM     26  C   UNL d   1      55.583  34.233  54.824  0.00  0.00     0.002 C 
ATOM     27  C   UNL d   1      54.803  33.324  55.614  0.00  0.00     0.003 A 
ATOM     28  C   UNL d   1      54.112  32.888  55.718  0.00  0.00     0.019 A 
ATOM     29  C   UNL d   1      53.509  32.911  55.159  0.00  0.00     0.082 A 
ENDBRANCH   1  23
TORSDOF 6
ENDMDL
MODEL 4
REMARK VINA RESULT:      -5.1      1.128      4.229
REMARK  6 active torsions:
REMARK  status: ('A' for Active; 'I' for Inactive)
REMARK    1  A    between atoms: N_6  and  C_1 
REMARK    2  A    between atoms: C_4  and  C_2 
REMARK    3  A    between atoms: C_7  and  C_4 
REMARK    4  A    between atoms: C_8  and  C_4 
REMARK    5  A    between atoms: O_12  and  C_7 
REMARK    6  A    between atoms: C_16  and  O_12 
ROOT
ATOM      1  C   UNL d   1      51.817  34.326  53.216  0.00  0.00     0.166 A 
ATOM      2  C   UNL d   1      52.083  33.597  53.497  0.00  0.00     0.122 A 
ATOM      3  N   UNL d   1      52.130  35.032  53.519  0.00  0.00    -0.225 NA
ATOM      4  N   UNL d   1      52.665  33.576  54.084  0.00  0.00    -0.241 NA
ATOM      5  C   UNL d   1      52.712  35.001  54.107  0.00  0.00     0.101 A 
ATOM      6  C   UNL d   1      52.977  34.276  54.387  0.00  0.00     0.099 A 
ATOM      7  C   UNL d   1      53.019  35.698  54.404  0.00  0.00     0.021 A 
ATOM      8  C   UNL d   1      53.558  34.250  54.972  0.00  0.00     0.021 A 
ATOM      9  C   UNL d   1      53.867  34.948  55.273  0.00  0.00     0.002 A 
ATOM     10  C   UNL d   1      53.601  35.676  54.992  0.00  0.00     0.002 A 
ENDROOT
BRANCH   2  11
ATOM     11  C   UNL d   1      51.771  32.892  53.193  0.00  0.00     0.105 C 
BRANCH  11  12
ATOM     12  C   UNL d   1      52.271  32.328  52.859  0.00  0.00     0.303 C 
ATOM     13  O   UNL d   1      52.636  32.480  52.137  0.00  0.00    -0.259 OA
BRANCH  12  14
ATOM     14  O   UNL d   1      52.406  31.616  53.246  0.00  0.00    -0.273 OA
BRANCH  14  15
ATOM     15  C   UNL d   1      52.817  30.907  53.303  0.00  0.00     0.103 A 
ATOM     16  C   UNL d   1      52.451  30.205  53.073  0.00  0.00     0.025 A 
ATOM     17  C   UNL d   1      52.856  29.495  53.129  0.00  0.00     0.002 A 
ATOM     18  C   UNL d   1      53.622  29.485  53.412  0.00  0.00     0.000 A 
ATOM     19  C   UNL d   1      53.988  30.179  53.641  0.00  0.00     0.002 A 
ATOM     20  C   UNL d   1      53.582  30.899  53.587  0.00  0.00     0.025 A 
ENDBRANCH  14  15
ENDBRANCH  12  14
ENDBRANCH  11  12
BRANCH  11  21
ATOM     21  C   UNL d   1      50.953  32.747  53.223  0.00  0.00     0.129 C 
ATOM     22  N   UNL d   1      50.573  32.018  53.704  0.00  0.00    -0.146 N 
ENDBRANCH  11  21
ENDBRANCH   2  11
BRANCH   1  23
ATOM     23  N   UNL d   1      51.235  34.356  52.629  0.00  0.00    -0.288 N 
ATOM     24  C   UNL d   1      50.453  34.543  52.839  0.00  0.00     0.082 A 
ATOM     25  C   UNL d   1      49.872  34.572  52.243  0.00  0.00     0.018 A 
ATOM     26  C   UNL d   1      49.092  34.758  52.444  0.00  0.00     0.002 C 
ATOM     27  C   UNL d   1      50.072  34.415  51.452  0.00  0.00     0.003 A 
ATOM     28  C   UNL d   1      50.851  34.230  51.259  0.00  0.00     0.019 A 
ATOM     29  C   UNL d   1      51.435  34.199  51.838  0.00  0.00     0.082 A 
ENDBRANCH   1  23
TORSDOF 6
ENDMDL
MODEL 5
REMARK VINA RESULT:      -4.9      1.190      3.168
REMARK  6 active torsions:
REMARK  status: ('A' for Active; 'I' for Inactive)
REMARK    1  A    between atoms: N_6  and  C_1 
REMARK    2  A    between atoms: C_4  and  C_2 
REMARK    3  A    between atoms: C_7  and  C_4 
REMARK    4  A    between atoms: C_8  and  C_4 
REMARK    5  A    between atoms: O_12  and  C_7 
REMARK    6  A    between atoms: C_16  and  O_12 
ROOT
ATOM      1  C   UNL d   1      53.475  32.150  53.858  0.00  0.00     0.166 A 
ATOM      2  C   UNL d   1      52.869  32.704  53.783  0.00  0.00     0.122 A 
ATOM      3  N   UNL d   1      54.168  32.340  54.274  0.00  0.00    -0.225 NA
ATOM      4  N   UNL d   1      52.956  33.452  54.125  0.00  0.00    -0.241 NA
ATOM      5  C   UNL d   1      54.247  33.091  54.613  0.00  0.00     0.101 A 
ATOM      6  C   UNL d   1      53.643  33.642  54.538  0.00  0.00     0.099 A 
ATOM      7  C   UNL d   1      54.930  33.276  55.022  0.00  0.00     0.021 A 
ATOM      8  C   UNL d   1      53.726  34.390  54.878  0.00  0.00     0.021 A 
ATOM      9  C   UNL d   1      54.411  34.578  55.289  0.00  0.00     0.002 A 
ATOM     10  C   UNL d   1      55.017  34.024  55.365  0.00  0.00     0.002 A 
ENDROOT
BRANCH   2  11
ATOM     11  C   UNL d   1      52.177  32.514  53.367  0.00  0.00     0.105 C 
BRANCH  11  12
ATOM     12  C   UNL d   1      51.901  33.015  52.772  0.00  0.00     0.303 C 
ATOM     13  O   UNL d   1      52.286  33.037  52.045  0.00  0.00    -0.259 OA
BRANCH  12  14
ATOM     14  O   UNL d   1      51.245  33.489  52.905  0.00  0.00    -0.273 OA
BRANCH  14  15
ATOM     15  C   UNL d   1      50.642  33.964  52.612  0.00  0.00     0.103 A 
ATOM     16  C   UNL d   1      50.230  34.461  53.125  0.00  0.00     0.025 A 
ATOM     17  C   UNL d   1      49.627  34.937  52.838  0.00  0.00     0.002 A 
ATOM     18  C   UNL d   1      49.437  34.917  52.044  0.00  0.00     0.000 A 
ATOM     19  C   UNL d   1      49.844  34.426  51.533  0.00  0.00     0.002 A 
ATOM     20  C   UNL d   1      50.453  33.943  51.819  0.00  0.00     0.025 A 
ENDBRANCH  14  15
ENDBRANCH  12  14
ENDBRANCH  11  12
BRANCH  11  21
ATOM     21  C   UNL d   1      51.757  31.819  53.545  0.00  0.00     0.129 C 
ATOM     22  N   UNL d   1      50.820  31.810  53.712  0.00  0.00    -0.146 N 
ENDBRANCH  11  21
ENDBRANCH   2  11
BRANCH   1  23
ATOM     23  N   UNL d   1      53.395  31.400  53.519  0.00  0.00    -0.288 N 
ATOM     24  C   UNL d   1      53.317  30.735  54.012  0.00  0.00     0.082 A 
ATOM     25  C   UNL d   1      53.237  29.983  53.664  0.00  0.00     0.018 A 
ATOM     26  C   UNL d   1      53.158  29.317  54.148  0.00  0.00     0.002 C 
ATOM     27  C   UNL d   1      53.235  29.899  52.838  0.00  0.00     0.003 A 
ATOM     28  C   UNL d   1      53.314  30.566  52.362  0.00  0.00     0.019 A 
ATOM     29  C   UNL d   1      53.394  31.315  52.693  0.00  0.00     0.082 A 
ENDBRANCH   1  23
TORSDOF 6
ENDMDL
