MODEL 1
REMARK VINA RESULT:      -3.9      0.000      0.000
REMARK  6 active torsions:
REMARK  status: ('A' for Active; 'I' for Inactive)
REMARK       I    between atoms: C_2  and  N_1 
REMARK    1  A    between atoms: C_3  and  N_1 
REMARK    2  A    between atoms: C_6  and  C_2 
REMARK    3  A    between atoms: N_7  and  C_3 
REMARK    4  A    between atoms: C_8  and  N_7 
REMARK    5  A    between atoms: C_12  and  C_8 
REMARK    6  A    between atoms: C_9  and  C_12 
ROOT
ATOM      1  C   UNL d   1      32.697  18.480 -23.277  0.00  0.00     0.179 C 
ATOM      2  S   UNL d   1      33.241  18.535 -23.884  0.00  0.00    -0.040 SA
ENDROOT
BRANCH   1   3
ATOM      3  N   UNL d   1      31.986  18.087 -23.392  0.00  0.00    -0.299 N 
ATOM      4  C   UNL d   1      31.997  17.348 -23.725  0.00  0.00     0.259 C 
ATOM      5  O   UNL d   1      32.702  16.999 -23.943  0.00  0.00    -0.267 OA
ATOM      6  H   UNL d   1      31.286  18.434 -23.176  0.00  0.00     0.171 HD
BRANCH   4   7
ATOM      7  C   UNL d   1      31.281  16.946 -23.843  0.00  0.00     0.056 A 
ATOM      8  C   UNL d   1      31.141  16.247 -23.456  0.00  0.00     0.005 A 
ATOM      9  C   UNL d   1      30.435  15.844 -23.570  0.00  0.00     0.000 A 
ATOM     10  C   UNL d   1      29.872  16.157 -24.079  0.00  0.00     0.000 A 
ATOM     11  C   UNL d   1      30.013  16.856 -24.466  0.00  0.00     0.000 A 
ATOM     12  C   UNL d   1      30.719  17.258 -24.352  0.00  0.00     0.005 A 
ENDBRANCH   4   7
ENDBRANCH   1   3
BRANCH   1  13
ATOM     13  N   UNL d   1      32.855  18.818 -22.548  0.00  0.00    -0.330 N 
ATOM     14  H   UNL d   1      32.992  18.349 -21.901  0.00  0.00     0.168 HD
BRANCH  13  15
ATOM     15  C   UNL d   1      32.872  19.630 -22.482  0.00  0.00     0.074 C 
BRANCH  15  16
ATOM     16  C   UNL d   1      33.089  19.973 -21.763  0.00  0.00     0.018 C 
BRANCH  16  17
ATOM     17  C   UNL d   1      32.889  20.767 -21.601  0.00  0.00     0.002 A 
ATOM     18  C   UNL d   1      33.200  21.382 -22.064  0.00  0.00     0.000 A 
ATOM     19  C   UNL d   1      32.999  22.164 -21.898  0.00  0.00     0.000 A 
ATOM     20  C   UNL d   1      32.486  22.338 -21.270  0.00  0.00     0.000 A 
ATOM     21  C   UNL d   1      32.176  21.730 -20.808  0.00  0.00     0.000 A 
ATOM     22  C   UNL d   1      32.376  20.942 -20.972  0.00  0.00     0.000 A 
ENDBRANCH  16  17
ENDBRANCH  15  16
ENDBRANCH  13  15
ENDBRANCH   1  13
TORSDOF 6
ENDMDL
MODEL 2
REMARK VINA RESULT:      -2.3      1.770      5.323
REMARK  6 active torsions:
REMARK  status: ('A' for Active; 'I' for Inactive)
REMARK       I    between atoms: C_2  and  N_1 
REMARK    1  A    between atoms: C_3  and  N_1 
REMARK    2  A    between atoms: C_6  and  C_2 
REMARK    3  A    between atoms: N_7  and  C_3 
REMARK    4  A    between atoms: C_8  and  N_7 
REMARK    5  A    between atoms: C_12  and  C_8 
REMARK    6  A    between atoms: C_9  and  C_12 
ROOT
ATOM      1  C   UNL d   1      33.125  20.179 -21.822  0.00  0.00     0.179 C 
ATOM      2  S   UNL d   1      33.241  19.629 -21.229  0.00  0.00    -0.040 SA
ENDROOT
BRANCH   1   3
ATOM      3  N   UNL d   1      33.139  20.981 -21.651  0.00  0.00    -0.299 N 
ATOM      4  C   UNL d   1      32.542  21.296 -21.204  0.00  0.00     0.259 C 
ATOM      5  O   UNL d   1      31.934  20.826 -20.926  0.00  0.00    -0.267 OA
ATOM      6  H   UNL d   1      33.741  21.448 -21.927  0.00  0.00     0.171 HD
BRANCH   4   7
ATOM      7  C   UNL d   1      32.551  22.107 -21.028  0.00  0.00     0.056 A 
ATOM      8  C   UNL d   1      32.706  22.355 -20.271  0.00  0.00     0.005 A 
ATOM      9  C   UNL d   1      32.716  23.156 -20.091  0.00  0.00     0.000 A 
ATOM     10  C   UNL d   1      32.569  23.702 -20.686  0.00  0.00     0.000 A 
ATOM     11  C   UNL d   1      32.414  23.454 -21.442  0.00  0.00     0.000 A 
ATOM     12  C   UNL d   1      32.404  22.654 -21.621  0.00  0.00     0.005 A 
ENDBRANCH   4   7
ENDBRANCH   1   3
BRANCH   1  13
ATOM     13  N   UNL d   1      32.993  19.935 -22.593  0.00  0.00    -0.330 N 
ATOM     14  H   UNL d   1      32.816  20.477 -23.170  0.00  0.00     0.168 HD
BRANCH  13  15
ATOM     15  C   UNL d   1      33.042  19.141 -22.772  0.00  0.00     0.074 C 
BRANCH  15  16
ATOM     16  C   UNL d   1      32.936  18.895 -23.553  0.00  0.00     0.018 C 
BRANCH  16  17
ATOM     17  C   UNL d   1      32.755  18.098 -23.720  0.00  0.00     0.002 A 
ATOM     18  C   UNL d   1      33.100  17.488 -23.276  0.00  0.00     0.000 A 
ATOM     19  C   UNL d   1      32.918  16.702 -23.446  0.00  0.00     0.000 A 
ATOM     20  C   UNL d   1      32.392  16.519 -24.059  0.00  0.00     0.000 A 
ATOM     21  C   UNL d   1      32.047  17.123 -24.502  0.00  0.00     0.000 A 
ATOM     22  C   UNL d   1      32.228  17.915 -24.334  0.00  0.00     0.000 A 
ENDBRANCH  16  17
ENDBRANCH  15  16
ENDBRANCH  13  15
ENDBRANCH   1  13
TORSDOF 6
ENDMDL
MODEL 3
REMARK VINA RESULT:      -2.3      1.309      5.168
REMARK  6 active torsions:
REMARK  status: ('A' for Active; 'I' for Inactive)
REMARK       I    between atoms: C_2  and  N_1 
REMARK    1  A    between atoms: C_3  and  N_1 
REMARK    2  A    between atoms: C_6  and  C_2 
REMARK    3  A    between atoms: N_7  and  C_3 
REMARK    4  A    between atoms: C_8  and  N_7 
REMARK    5  A    between atoms: C_12  and  C_8 
REMARK    6  A    between atoms: C_9  and  C_12 
ROOT
ATOM      1  C   UNL d   1      32.943  19.312 -22.695  0.00  0.00     0.179 C 
ATOM      2  S   UNL d   1      33.092  19.664 -23.417  0.00  0.00    -0.040 SA
ENDROOT
BRANCH   1   3
ATOM      3  N   UNL d   1      32.803  19.773 -22.031  0.00  0.00    -0.299 N 
ATOM      4  C   UNL d   1      32.954  20.568 -22.067  0.00  0.00     0.259 C 
ATOM      5  O   UNL d   1      33.241  20.908 -22.752  0.00  0.00    -0.267 OA
ATOM      6  H   UNL d   1      32.518  19.435 -21.351  0.00  0.00     0.171 HD
BRANCH   4   7
ATOM      7  C   UNL d   1      32.814  21.038 -21.398  0.00  0.00     0.056 A 
ATOM      8  C   UNL d   1      32.256  21.627 -21.427  0.00  0.00     0.005 A 
ATOM      9  C   UNL d   1      32.113  22.096 -20.769  0.00  0.00     0.000 A 
ATOM     10  C   UNL d   1      32.541  21.962 -20.081  0.00  0.00     0.000 A 
ATOM     11  C   UNL d   1      33.099  21.374 -20.053  0.00  0.00     0.000 A 
ATOM     12  C   UNL d   1      33.241  20.906 -20.711  0.00  0.00     0.005 A 
ENDBRANCH   4   7
ENDBRANCH   1   3
BRANCH   1  13
ATOM     13  N   UNL d   1      32.932  18.496 -22.626  0.00  0.00    -0.330 N 
ATOM     14  H   UNL d   1      33.213  18.137 -21.956  0.00  0.00     0.168 HD
BRANCH  13  15
ATOM     15  C   UNL d   1      32.634  18.050 -23.241  0.00  0.00     0.074 C 
BRANCH  15  16
ATOM     16  C   UNL d   1      32.439  17.259 -23.109  0.00  0.00     0.018 C 
BRANCH  16  17
ATOM     17  C   UNL d   1      32.186  16.778 -23.743  0.00  0.00     0.002 A 
ATOM     18  C   UNL d   1      31.379  16.713 -23.924  0.00  0.00     0.000 A 
ATOM     19  C   UNL d   1      31.135  16.237 -24.552  0.00  0.00     0.000 A 
ATOM     20  C   UNL d   1      31.695  15.823 -25.002  0.00  0.00     0.000 A 
ATOM     21  C   UNL d   1      32.498  15.886 -24.824  0.00  0.00     0.000 A 
ATOM     22  C   UNL d   1      32.746  16.365 -24.194  0.00  0.00     0.000 A 
ENDBRANCH  16  17
ENDBRANCH  15  16
ENDBRANCH  13  15
ENDBRANCH   1  13
TORSDOF 6
ENDMDL
MODEL 4
REMARK VINA RESULT:      -1.3      3.199      6.259
REMARK  6 active torsions:
REMARK  status: ('A' for Active; 'I' for Inactive)
REMARK       I    between atoms: C_2  and  N_1 
REMARK    1  A    between atoms: C_3  and  N_1 
REMARK    2  A    between atoms: C_6  and  C_2 
REMARK    3  A    between atoms: N_7  and  C_3 
REMARK    4  A    between atoms: C_8  and  N_7 
REMARK    5  A    between atoms: C_12  and  C_8 
REMARK    6  A    between atoms: C_9  and  C_12 
ROOT
ATOM      1  C   UNL d   1      32.718  22.002 -20.321  0.00  0.00     0.179 C 
ATOM      2  S   UNL d   1      32.357  22.574 -20.779  0.00  0.00    -0.040 SA
ENDROOT
BRANCH   1   3
ATOM      3  N   UNL d   1      32.739  22.076 -19.505  0.00  0.00    -0.299 N 
ATOM      4  C   UNL d   1      32.712  22.817 -19.178  0.00  0.00     0.259 C 
ATOM      5  O   UNL d   1      32.667  23.481 -19.652  0.00  0.00    -0.267 OA
ATOM      6  H   UNL d   1      32.784  21.417 -19.034  0.00  0.00     0.171 HD
BRANCH   4   7
ATOM      7  C   UNL d   1      32.733  22.898 -18.353  0.00  0.00     0.056 A 
ATOM      8  C   UNL d   1      32.908  22.257 -17.887  0.00  0.00     0.005 A 
ATOM      9  C   UNL d   1      32.929  22.331 -17.070  0.00  0.00     0.000 A 
ATOM     10  C   UNL d   1      32.771  23.060 -16.729  0.00  0.00     0.000 A 
ATOM     11  C   UNL d   1      32.596  23.701 -17.195  0.00  0.00     0.000 A 
ATOM     12  C   UNL d   1      32.575  23.626 -18.011  0.00  0.00     0.005 A 
ENDBRANCH   4   7
ENDBRANCH   1   3
BRANCH   1  13
ATOM     13  N   UNL d   1      33.064  21.348 -20.673  0.00  0.00    -0.330 N 
ATOM     14  H   UNL d   1      33.746  21.031 -20.369  0.00  0.00     0.168 HD
BRANCH  13  15
ATOM     15  C   UNL d   1      32.713  21.020 -21.332  0.00  0.00     0.074 C 
BRANCH  15  16
ATOM     16  C   UNL d   1      33.184  20.796 -21.972  0.00  0.00     0.018 C 
BRANCH  16  17
ATOM     17  C   UNL d   1      33.054  20.065 -22.353  0.00  0.00     0.002 A 
ATOM     18  C   UNL d   1      32.739  20.043 -23.120  0.00  0.00     0.000 A 
ATOM     19  C   UNL d   1      32.613  19.317 -23.492  0.00  0.00     0.000 A 
ATOM     20  C   UNL d   1      32.800  18.611 -23.101  0.00  0.00     0.000 A 
ATOM     21  C   UNL d   1      33.112  18.630 -22.338  0.00  0.00     0.000 A 
ATOM     22  C   UNL d   1      33.241  19.359 -21.962  0.00  0.00     0.000 A 
ENDBRANCH  16  17
ENDBRANCH  15  16
ENDBRANCH  13  15
ENDBRANCH   1  13
TORSDOF 6
ENDMDL
