MODEL 1
REMARK VINA RESULT:      23.3      0.000      0.000
REMARK  4 active torsions:
REMARK  status: ('A' for Active; 'I' for Inactive)
REMARK    1  A    between atoms: C_7  and  C_1 
REMARK    2  A    between atoms: N_4  and  C_9 
REMARK    3  A    between atoms: O_17  and  C_7 
REMARK    4  A    between atoms: C_18  and  O_17 
ROOT
ATOM      1  C   UNL d   1      60.127  49.618  50.611  0.00  0.00     0.127 A 
ATOM      2  C   UNL d   1      60.314  49.673  49.829  0.00  0.00     0.305 A 
ATOM      3  C   UNL d   1      59.336  49.586  50.851  0.00  0.00     0.013 A 
ATOM      4  O   UNL d   1      59.717  49.699  49.257  0.00  0.00    -0.273 OA
ATOM      5  C   UNL d   1      58.762  49.612  50.284  0.00  0.00     0.025 A 
ATOM      6  C   UNL d   1      58.949  49.667  49.502  0.00  0.00     0.103 A 
ATOM      7  C   UNL d   1      57.377  49.606  49.953  0.00  0.00     0.127 A 
ATOM      8  C   UNL d   1      57.972  49.580  50.524  0.00  0.00     0.025 A 
ATOM      9  O   UNL d   1      61.102  49.705  49.589  0.00  0.00    -0.259 OA
ATOM     10  C   UNL d   1      58.353  49.693  48.931  0.00  0.00     0.026 A 
ATOM     11  C   UNL d   1      57.564  49.661  49.171  0.00  0.00     0.026 A 
ENDROOT
BRANCH   1  12
ATOM     12  C   UNL d   1      60.722  49.592  51.182  0.00  0.00     0.305 C 
ATOM     13  O   UNL d   1      61.518  49.649  50.962  0.00  0.00    -0.259 OA
BRANCH  12  14
ATOM     14  O   UNL d   1      60.516  49.510  51.973  0.00  0.00    -0.271 OA
BRANCH  14  15
ATOM     15  C   UNL d   1      61.069  49.651  52.552  0.00  0.00     0.126 C 
ATOM     16  C   UNL d   1      60.851  49.648  53.330  0.00  0.00     0.029 C 
ENDBRANCH  14  15
ENDBRANCH  12  14
ENDBRANCH   1  12
BRANCH   7  17
ATOM     17  N   UNL d   1      56.590  49.576  50.164  0.00  0.00    -0.114 N 
ATOM     18  O   UNL d   1      56.386  49.692  50.940  0.00  0.00    -0.532 OA
ATOM     19  O   UNL d   1      56.040  49.433  49.594  0.00  0.00    -0.532 OA
ENDBRANCH   7  17
TORSDOF 4
ENDMDL
MODEL 2
REMARK VINA RESULT:      25.8      1.553      3.632
REMARK  4 active torsions:
REMARK  status: ('A' for Active; 'I' for Inactive)
REMARK    1  A    between atoms: C_7  and  C_1 
REMARK    2  A    between atoms: N_4  and  C_9 
REMARK    3  A    between atoms: O_17  and  C_7 
REMARK    4  A    between atoms: C_18  and  O_17 
ROOT
ATOM      1  C   UNL d   1      57.977  49.579  50.485  0.00  0.00     0.127 A 
ATOM      2  C   UNL d   1      58.275  49.643  49.739  0.00  0.00     0.305 A 
ATOM      3  C   UNL d   1      58.485  49.557  51.138  0.00  0.00     0.013 A 
ATOM      4  O   UNL d   1      59.093  49.687  49.618  0.00  0.00    -0.273 OA
ATOM      5  C   UNL d   1      59.280  49.600  51.008  0.00  0.00     0.025 A 
ATOM      6  C   UNL d   1      59.578  49.664  50.262  0.00  0.00     0.103 A 
ATOM      7  C   UNL d   1      60.601  49.621  51.539  0.00  0.00     0.127 A 
ATOM      8  C   UNL d   1      59.785  49.577  51.660  0.00  0.00     0.025 A 
ATOM      9  O   UNL d   1      57.771  49.665  49.087  0.00  0.00    -0.259 OA
ATOM     10  C   UNL d   1      60.394  49.707  50.141  0.00  0.00     0.026 A 
ATOM     11  C   UNL d   1      60.899  49.685  50.793  0.00  0.00     0.026 A 
ENDROOT
BRANCH   1  12
ATOM     12  C   UNL d   1      57.162  49.535  50.607  0.00  0.00     0.305 C 
ATOM     13  O   UNL d   1      56.656  49.320  49.988  0.00  0.00    -0.259 OA
BRANCH  12  14
ATOM     14  O   UNL d   1      56.857  49.707  51.349  0.00  0.00    -0.271 OA
BRANCH  14  15
ATOM     15  C   UNL d   1      56.128  49.420  51.564  0.00  0.00     0.126 C 
ATOM     16  C   UNL d   1      56.071  48.831  52.115  0.00  0.00     0.029 C 
ENDBRANCH  14  15
ENDBRANCH  12  14
ENDBRANCH   1  12
BRANCH   7  17
ATOM     17  N   UNL d   1      61.121  49.601  52.166  0.00  0.00    -0.114 N 
ATOM     18  O   UNL d   1      60.826  49.585  52.921  0.00  0.00    -0.532 OA
ATOM     19  O   UNL d   1      61.912  49.597  52.014  0.00  0.00    -0.532 OA
ENDBRANCH   7  17
TORSDOF 4
ENDMDL
