MODEL 1
REMARK VINA RESULT:      62.1      0.000      0.000
REMARK  5 active torsions:
REMARK  status: ('A' for Active; 'I' for Inactive)
REMARK    1  A    between atoms: C_4  and  C_1 
REMARK    2  A    between atoms: C_8  and  C_4 
REMARK    3  A    between atoms: C_9  and  C_4 
REMARK    4  A    between atoms: N_5  and  C_9 
REMARK    5  A    between atoms: O_18  and  C_11 
ROOT
ATOM      1  C   UNL d   1     -55.356-100.033 -43.994  0.00  0.00     0.025 C 
ENDROOT
BRANCH   1   2
ATOM      2  C   UNL d   1     -55.171-100.836 -44.091  0.00  0.00     0.021 A 
ATOM      3  C   UNL d   1     -55.080-101.248 -44.827  0.00  0.00     0.082 A 
ATOM      4  N   UNL d   1     -54.899-102.023 -44.662  0.00  0.00    -0.246 NA
ATOM      5  C   UNL d   1     -55.162-100.908 -45.573  0.00  0.00     0.021 C 
ATOM      6  C   UNL d   1     -54.871-102.127 -43.844  0.00  0.00     0.081 A 
ATOM      7  C   UNL d   1     -55.039-101.392 -43.490  0.00  0.00     0.019 A 
ATOM      8  C   UNL d   1     -54.718-102.777 -43.371  0.00  0.00     0.019 A 
ATOM      9  C   UNL d   1     -55.052-101.318 -42.669  0.00  0.00     0.002 A 
ATOM     10  C   UNL d   1     -54.898-101.970 -42.192  0.00  0.00     0.000 A 
ATOM     11  C   UNL d   1     -54.727-102.716 -42.551  0.00  0.00     0.002 A 
ENDBRANCH   1   2
BRANCH   1  12
ATOM     12  C   UNL d   1     -56.017 -99.718 -44.357  0.00  0.00     0.004 A 
ATOM     13  C   UNL d   1     -56.739 -99.643 -43.961  0.00  0.00     0.028 A 
ATOM     14  C   UNL d   1     -57.397 -99.327 -44.328  0.00  0.00     0.133 A 
ATOM     15  C   UNL d   1     -57.352 -99.075 -45.106  0.00  0.00     0.218 A 
ATOM     16  C   UNL d   1     -56.637 -99.139 -45.526  0.00  0.00     0.044 A 
ATOM     17  O   UNL d   1     -58.005 -98.756 -45.485  0.00  0.00    -0.284 OA
ATOM     18  C   UNL d   1     -55.979 -99.456 -45.158  0.00  0.00     0.004 A 
BRANCH  14  19
ATOM     19  O   UNL d   1     -58.109 -99.264 -43.908  0.00  0.00    -0.325 OA
ATOM     20  C   UNL d   1     -58.810 -99.445 -44.292  0.00  0.00     0.181 C 
ENDBRANCH  14  19
ENDBRANCH   1  12
BRANCH   1  21
ATOM     21  C   UNL d   1     -54.861 -99.555 -43.523  0.00  0.00     0.148 C 
BRANCH  21  22
ATOM     22  N   UNL d   1     -55.200 -99.083 -42.937  0.00  0.00    -0.112 N 
ATOM     23  O   UNL d   1     -56.002 -98.928 -42.944  0.00  0.00    -0.532 OA
ATOM     24  O   UNL d   1     -54.712 -98.766 -42.340  0.00  0.00    -0.532 OA
ENDBRANCH  21  22
ENDBRANCH   1  21
TORSDOF 5
ENDMDL
