MODEL 1
REMARK VINA RESULT:      -1.1      0.000      0.000
REMARK  6 active torsions:
REMARK  status: ('A' for Active; 'I' for Inactive)
REMARK       I    between atoms: C_2  and  N_1 
REMARK    1  A    between atoms: C_3  and  C_2 
REMARK    2  A    between atoms: C_12  and  C_4 
REMARK       I    between atoms: C_5  and  N_8 
REMARK    3  A    between atoms: C_6  and  C_5 
REMARK       I    between atoms: N_9  and  C_6 
REMARK    4  A    between atoms: N_8  and  C_12 
REMARK    5  A    between atoms: C_19  and  N_9 
REMARK    6  A    between atoms: C_21  and  C_19 
ROOT
ATOM      1  C   UNL d   1      32.820  18.892 -22.882  0.00  0.00     0.337 C 
ATOM      2  N   UNL d   1      32.779  19.635 -22.538  0.00  0.00    -0.199 NA
ATOM      3  O   UNL d   1      33.241  18.291 -22.510  0.00  0.00    -0.260 OA
ENDROOT
BRANCH   2   4
ATOM      4  C   UNL d   1      32.358  20.236 -22.911  0.00  0.00     0.146 C 
BRANCH   4   5
ATOM      5  C   UNL d   1      32.653  21.013 -22.899  0.00  0.00     0.190 A 
ATOM      6  N   UNL d   1      32.589  21.531 -22.263  0.00  0.00    -0.250 N 
ATOM      7  C   UNL d   1      32.246  21.451 -21.512  0.00  0.00     0.272 C 
ATOM      8  C   UNL d   1      32.956  22.236 -22.490  0.00  0.00     0.112 A 
ATOM      9  O   UNL d   1      31.882  20.739 -21.300  0.00  0.00    -0.266 OA
ATOM     10  C   UNL d   1      33.240  22.147 -23.256  0.00  0.00     0.144 A 
ATOM     11  O   UNL d   1      33.047  21.380 -23.504  0.00  0.00    -0.285 OA
BRANCH   7  12
ATOM     12  C   UNL d   1      32.265  22.075 -20.978  0.00  0.00     0.086 A 
ATOM     13  S   UNL d   1      31.849  22.793 -20.958  0.00  0.00    -0.082 SA
ATOM     14  C   UNL d   1      32.099  23.210 -20.278  0.00  0.00     0.036 A 
ATOM     15  C   UNL d   1      32.662  22.745 -19.893  0.00  0.00     0.008 A 
ATOM     16  C   UNL d   1      32.767  22.048 -20.318  0.00  0.00     0.012 A 
ENDBRANCH   7  12
ENDBRANCH   4   5
ENDBRANCH   2   4
BRANCH   1  17
ATOM     17  C   UNL d   1      32.441  18.739 -23.601  0.00  0.00     0.337 C 
ATOM     18  N   UNL d   1      31.825  18.195 -23.644  0.00  0.00    -0.202 NA
ATOM     19  O   UNL d   1      32.682  19.137 -24.280  0.00  0.00    -0.260 OA
BRANCH  18  20
ATOM     20  C   UNL d   1      31.451  18.046 -24.359  0.00  0.00     0.102 C 
BRANCH  20  21
ATOM     21  C   UNL d   1      30.791  17.526 -24.405  0.00  0.00     0.019 A 
ATOM     22  C   UNL d   1      30.045  17.815 -24.235  0.00  0.00     0.002 A 
ATOM     23  C   UNL d   1      29.393  17.302 -24.281  0.00  0.00     0.000 A 
ATOM     24  C   UNL d   1      29.496  16.521 -24.492  0.00  0.00     0.000 A 
ATOM     25  C   UNL d   1      30.267  16.237 -24.664  0.00  0.00     0.000 A 
ATOM     26  C   UNL d   1      30.914  16.754 -24.617  0.00  0.00     0.002 A 
ENDBRANCH  20  21
ENDBRANCH  18  20
ENDBRANCH   1  17
TORSDOF 6
ENDMDL
MODEL 2
REMARK VINA RESULT:       0.3      2.972      6.107
REMARK  6 active torsions:
REMARK  status: ('A' for Active; 'I' for Inactive)
REMARK       I    between atoms: C_2  and  N_1 
REMARK    1  A    between atoms: C_3  and  C_2 
REMARK    2  A    between atoms: C_12  and  C_4 
REMARK       I    between atoms: C_5  and  N_8 
REMARK    3  A    between atoms: C_6  and  C_5 
REMARK       I    between atoms: N_9  and  C_6 
REMARK    4  A    between atoms: N_8  and  C_12 
REMARK    5  A    between atoms: C_19  and  N_9 
REMARK    6  A    between atoms: C_21  and  C_19 
ROOT
ATOM      1  C   UNL d   1      31.767  22.298 -20.091  0.00  0.00     0.337 C 
ATOM      2  N   UNL d   1      31.911  21.983 -20.833  0.00  0.00    -0.199 NA
ATOM      3  O   UNL d   1      31.009  22.268 -19.774  0.00  0.00    -0.260 OA
ENDROOT
BRANCH   2   4
ATOM      4  C   UNL d   1      32.670  22.012 -21.151  0.00  0.00     0.146 C 
BRANCH   4   5
ATOM      5  C   UNL d   1      32.862  21.532 -21.802  0.00  0.00     0.190 A 
ATOM      6  N   UNL d   1      32.955  21.802 -22.573  0.00  0.00    -0.250 N 
ATOM      7  C   UNL d   1      32.892  22.558 -22.911  0.00  0.00     0.272 C 
ATOM      8  C   UNL d   1      33.142  21.144 -23.038  0.00  0.00     0.112 A 
ATOM      9  O   UNL d   1      32.704  23.207 -22.433  0.00  0.00    -0.266 OA
ATOM     10  C   UNL d   1      33.163  20.481 -22.552  0.00  0.00     0.144 A 
ATOM     11  O   UNL d   1      32.987  20.733 -21.782  0.00  0.00    -0.285 OA
BRANCH   7  12
ATOM     12  C   UNL d   1      33.017  22.665 -23.716  0.00  0.00     0.086 A 
ATOM     13  S   UNL d   1      33.154  22.120 -24.327  0.00  0.00    -0.082 SA
ATOM     14  C   UNL d   1      33.241  22.555 -25.037  0.00  0.00     0.036 A 
ATOM     15  C   UNL d   1      33.156  23.355 -24.851  0.00  0.00     0.008 A 
ATOM     16  C   UNL d   1      33.019  23.428 -24.043  0.00  0.00     0.012 A 
ENDBRANCH   7  12
ENDBRANCH   4   5
ENDBRANCH   2   4
BRANCH   1  17
ATOM     17  C   UNL d   1      32.378  22.646 -19.656  0.00  0.00     0.337 C 
ATOM     18  N   UNL d   1      32.290  22.792 -18.850  0.00  0.00    -0.202 NA
ATOM     19  O   UNL d   1      33.080  22.849 -20.033  0.00  0.00    -0.260 OA
BRANCH  18  20
ATOM     20  C   UNL d   1      32.898  23.137 -18.422  0.00  0.00     0.102 C 
BRANCH  20  21
ATOM     21  C   UNL d   1      32.930  23.074 -17.583  0.00  0.00     0.019 A 
ATOM     22  C   UNL d   1      32.681  22.381 -17.227  0.00  0.00     0.002 A 
ATOM     23  C   UNL d   1      32.713  22.319 -16.399  0.00  0.00     0.000 A 
ATOM     24  C   UNL d   1      32.988  22.940 -15.948  0.00  0.00     0.000 A 
ATOM     25  C   UNL d   1      33.241  23.645 -16.326  0.00  0.00     0.000 A 
ATOM     26  C   UNL d   1      33.207  23.702 -17.153  0.00  0.00     0.002 A 
ENDBRANCH  20  21
ENDBRANCH  18  20
ENDBRANCH   1  17
TORSDOF 6
ENDMDL
MODEL 3
REMARK VINA RESULT:       0.7      1.866      2.189
REMARK  6 active torsions:
REMARK  status: ('A' for Active; 'I' for Inactive)
REMARK       I    between atoms: C_2  and  N_1 
REMARK    1  A    between atoms: C_3  and  C_2 
REMARK    2  A    between atoms: C_12  and  C_4 
REMARK       I    between atoms: C_5  and  N_8 
REMARK    3  A    between atoms: C_6  and  C_5 
REMARK       I    between atoms: N_9  and  C_6 
REMARK    4  A    between atoms: N_8  and  C_12 
REMARK    5  A    between atoms: C_19  and  N_9 
REMARK    6  A    between atoms: C_21  and  C_19 
ROOT
ATOM      1  C   UNL d   1      31.942  19.888 -22.061  0.00  0.00     0.337 C 
ATOM      2  N   UNL d   1      32.049  20.626 -21.722  0.00  0.00    -0.199 NA
ATOM      3  O   UNL d   1      31.184  19.628 -22.244  0.00  0.00    -0.260 OA
ENDROOT
BRANCH   2   4
ATOM      4  C   UNL d   1      32.808  20.887 -21.538  0.00  0.00     0.146 C 
BRANCH   4   5
ATOM      5  C   UNL d   1      32.973  21.702 -21.531  0.00  0.00     0.190 A 
ATOM      6  N   UNL d   1      33.043  22.161 -20.852  0.00  0.00    -0.250 N 
ATOM      7  C   UNL d   1      32.980  21.977 -20.046  0.00  0.00     0.272 C 
ATOM      8  C   UNL d   1      33.208  22.933 -21.100  0.00  0.00     0.112 A 
ATOM      9  O   UNL d   1      32.815  21.200 -19.813  0.00  0.00    -0.266 OA
ATOM     10  C   UNL d   1      33.236  22.941 -21.921  0.00  0.00     0.144 A 
ATOM     11  O   UNL d   1      33.088  22.167 -22.182  0.00  0.00    -0.285 OA
BRANCH   7  12
ATOM     12  C   UNL d   1      33.079  22.562 -19.477  0.00  0.00     0.086 A 
ATOM     13  S   UNL d   1      33.130  23.387 -19.543  0.00  0.00    -0.082 SA
ATOM     14  C   UNL d   1      33.231  23.695 -18.771  0.00  0.00     0.036 A 
ATOM     15  C   UNL d   1      33.241  23.057 -18.248  0.00  0.00     0.008 A 
ATOM     16  C   UNL d   1      33.148  22.360 -18.675  0.00  0.00     0.012 A 
ENDBRANCH   7  12
ENDBRANCH   4   5
ENDBRANCH   2   4
BRANCH   1  17
ATOM     17  C   UNL d   1      32.590  19.400 -22.220  0.00  0.00     0.337 C 
ATOM     18  N   UNL d   1      32.592  18.905 -22.878  0.00  0.00    -0.202 NA
ATOM     19  O   UNL d   1      33.240  19.411 -21.716  0.00  0.00    -0.260 OA
BRANCH  18  20
ATOM     20  C   UNL d   1      33.236  18.423 -23.033  0.00  0.00     0.102 C 
BRANCH  20  21
ATOM     21  C   UNL d   1      33.166  17.748 -23.531  0.00  0.00     0.019 A 
ATOM     22  C   UNL d   1      33.064  17.012 -23.191  0.00  0.00     0.002 A 
ATOM     23  C   UNL d   1      32.994  16.346 -23.683  0.00  0.00     0.000 A 
ATOM     24  C   UNL d   1      33.026  16.426 -24.494  0.00  0.00     0.000 A 
ATOM     25  C   UNL d   1      33.131  17.187 -24.830  0.00  0.00     0.000 A 
ATOM     26  C   UNL d   1      33.200  17.848 -24.334  0.00  0.00     0.002 A 
ENDBRANCH  20  21
ENDBRANCH  18  20
ENDBRANCH   1  17
TORSDOF 6
ENDMDL
MODEL 4
REMARK VINA RESULT:       1.0      2.253      5.572
REMARK  6 active torsions:
REMARK  status: ('A' for Active; 'I' for Inactive)
REMARK       I    between atoms: C_2  and  N_1 
REMARK    1  A    between atoms: C_3  and  C_2 
REMARK    2  A    between atoms: C_12  and  C_4 
REMARK       I    between atoms: C_5  and  N_8 
REMARK    3  A    between atoms: C_6  and  C_5 
REMARK       I    between atoms: N_9  and  C_6 
REMARK    4  A    between atoms: N_8  and  C_12 
REMARK    5  A    between atoms: C_19  and  N_9 
REMARK    6  A    between atoms: C_21  and  C_19 
ROOT
ATOM      1  C   UNL d   1      31.970  20.056 -22.035  0.00  0.00     0.337 C 
ATOM      2  N   UNL d   1      32.098  19.488 -22.612  0.00  0.00    -0.199 NA
ATOM      3  O   UNL d   1      31.204  20.223 -21.788  0.00  0.00    -0.260 OA
ENDROOT
BRANCH   2   4
ATOM      4  C   UNL d   1      32.865  19.322 -22.860  0.00  0.00     0.146 C 
BRANCH   4   5
ATOM      5  C   UNL d   1      33.007  19.131 -23.656  0.00  0.00     0.190 A 
ATOM      6  N   UNL d   1      33.064  18.366 -23.953  0.00  0.00    -0.250 N 
ATOM      7  C   UNL d   1      33.003  17.622 -23.592  0.00  0.00     0.272 C 
ATOM      8  C   UNL d   1      33.207  18.433 -24.765  0.00  0.00     0.112 A 
ATOM      9  O   UNL d   1      32.859  17.570 -22.778  0.00  0.00    -0.266 OA
ATOM     10  C   UNL d   1      33.238  19.231 -24.958  0.00  0.00     0.144 A 
ATOM     11  O   UNL d   1      33.112  19.660 -24.259  0.00  0.00    -0.285 OA
BRANCH   7  12
ATOM     12  C   UNL d   1      33.085  16.935 -24.036  0.00  0.00     0.086 A 
ATOM     13  S   UNL d   1      33.188  16.819 -24.851  0.00  0.00    -0.082 SA
ATOM     14  C   UNL d   1      33.238  15.995 -24.984  0.00  0.00     0.036 A 
ATOM     15  C   UNL d   1      33.165  15.620 -24.252  0.00  0.00     0.008 A 
ATOM     16  C   UNL d   1      33.071  16.192 -23.668  0.00  0.00     0.012 A 
ENDBRANCH   7  12
ENDBRANCH   4   5
ENDBRANCH   2   4
BRANCH   1  17
ATOM     17  C   UNL d   1      32.605  20.464 -21.698  0.00  0.00     0.337 C 
ATOM     18  N   UNL d   1      32.609  21.287 -21.669  0.00  0.00    -0.202 NA
ATOM     19  O   UNL d   1      33.240  20.042 -21.387  0.00  0.00    -0.260 OA
BRANCH  18  20
ATOM     20  C   UNL d   1      33.241  21.687 -21.334  0.00  0.00     0.102 C 
BRANCH  20  21
ATOM     21  C   UNL d   1      33.117  22.311 -20.782  0.00  0.00     0.019 A 
ATOM     22  C   UNL d   1      33.233  22.166 -19.986  0.00  0.00     0.002 A 
ATOM     23  C   UNL d   1      33.112  22.782 -19.441  0.00  0.00     0.000 A 
ATOM     24  C   UNL d   1      32.880  23.521 -19.698  0.00  0.00     0.000 A 
ATOM     25  C   UNL d   1      32.764  23.656 -20.517  0.00  0.00     0.000 A 
ATOM     26  C   UNL d   1      32.887  23.038 -21.057  0.00  0.00     0.002 A 
ENDBRANCH  20  21
ENDBRANCH  18  20
ENDBRANCH   1  17
TORSDOF 6
ENDMDL
