MODEL 1
REMARK VINA RESULT:      -9.3      0.000      0.000
REMARK  4 active torsions:
REMARK  status: ('A' for Active; 'I' for Inactive)
REMARK    1  A    between atoms: C_9  and  N_1 
REMARK    2  A    between atoms: C_2  and  N_5 
REMARK    3  A    between atoms: N_5  and  O_12 
REMARK    4  A    between atoms: O_12  and  C_16 
ROOT
ATOM      1  N   UNL d   1      52.742  33.157  53.973  0.00  0.00    -0.126 NA
ENDROOT
BRANCH   1   2
ATOM      2  C   UNL d   1      52.886  33.961  54.088  0.00  0.00     0.108 A 
ATOM      3  C   UNL d   1      52.532  34.518  53.576  0.00  0.00     0.023 A 
ATOM      4  C   UNL d   1      52.672  35.302  53.688  0.00  0.00     0.044 A 
ATOM      5  C   UNL d   1      52.015  34.255  52.924  0.00  0.00     0.002 C 
ATOM      6  C   UNL d   1      53.171  35.554  54.315  0.00  0.00     0.196 A 
ATOM      7  C   UNL d   1      53.504  34.994  54.801  0.00  0.00     0.044 A 
ATOM      8  O   UNL d   1      53.315  36.358  54.430  0.00  0.00    -0.287 OA
ATOM      9  C   UNL d   1      53.360  34.190  54.686  0.00  0.00     0.023 A 
ATOM     10  C   UNL d   1      53.686  33.683  55.157  0.00  0.00     0.002 C 
ENDBRANCH   1   2
BRANCH   1  11
ATOM     11  O   UNL d   1      53.217  32.711  53.488  0.00  0.00    -0.211 OA
BRANCH  11  12
ATOM     12  C   UNL d   1      53.143  31.905  53.457  0.00  0.00     0.125 A 
ATOM     13  C   UNL d   1      52.451  31.558  53.143  0.00  0.00     0.029 A 
ATOM     14  C   UNL d   1      52.376  30.737  53.111  0.00  0.00     0.026 A 
ATOM     15  C   UNL d   1      52.992  30.253  53.392  0.00  0.00     0.127 A 
ATOM     16  C   UNL d   1      53.674  30.595  53.702  0.00  0.00     0.026 A 
ATOM     17  C   UNL d   1      53.751  31.433  53.735  0.00  0.00     0.029 A 
BRANCH  15  18
ATOM     18  N   UNL d   1      52.918  29.443  53.360  0.00  0.00    -0.114 N 
ATOM     19  O   UNL d   1      53.137  28.917  53.955  0.00  0.00    -0.532 OA
ATOM     20  O   UNL d   1      52.611  29.040  52.725  0.00  0.00    -0.532 OA
ENDBRANCH  15  18
ENDBRANCH  11  12
ENDBRANCH   1  11
TORSDOF 4
ENDMDL
MODEL 2
REMARK VINA RESULT:      -8.7      2.178      3.708
REMARK  4 active torsions:
REMARK  status: ('A' for Active; 'I' for Inactive)
REMARK    1  A    between atoms: C_9  and  N_1 
REMARK    2  A    between atoms: C_2  and  N_5 
REMARK    3  A    between atoms: N_5  and  O_12 
REMARK    4  A    between atoms: O_12  and  C_16 
ROOT
ATOM      1  N   UNL d   1      52.556  33.638  54.050  0.00  0.00    -0.126 NA
ENDROOT
BRANCH   1   2
ATOM      2  C   UNL d   1      53.305  33.655  54.394  0.00  0.00     0.108 A 
ATOM      3  C   UNL d   1      53.783  32.970  54.370  0.00  0.00     0.023 A 
ATOM      4  C   UNL d   1      54.513  32.987  54.706  0.00  0.00     0.044 A 
ATOM      5  C   UNL d   1      53.496  32.242  53.985  0.00  0.00     0.002 C 
ATOM      6  C   UNL d   1      54.789  33.688  55.077  0.00  0.00     0.196 A 
ATOM      7  C   UNL d   1      54.307  34.342  55.088  0.00  0.00     0.044 A 
ATOM      8  O   UNL d   1      55.539  33.705  55.422  0.00  0.00    -0.287 OA
ATOM      9  C   UNL d   1      53.558  34.325  54.743  0.00  0.00     0.023 A 
ATOM     10  C   UNL d   1      53.123  34.954  54.768  0.00  0.00     0.002 C 
ENDBRANCH   1   2
BRANCH   1  11
ATOM     11  O   UNL d   1      52.464  33.671  53.243  0.00  0.00    -0.211 OA
BRANCH  11  12
ATOM     12  C   UNL d   1      51.752  33.864  52.911  0.00  0.00     0.125 A 
ATOM     13  C   UNL d   1      51.040  33.703  53.318  0.00  0.00     0.029 A 
ATOM     14  C   UNL d   1      50.314  33.900  52.979  0.00  0.00     0.026 A 
ATOM     15  C   UNL d   1      50.290  34.261  52.229  0.00  0.00     0.127 A 
ATOM     16  C   UNL d   1      50.992  34.420  51.828  0.00  0.00     0.026 A 
ATOM     17  C   UNL d   1      51.733  34.219  52.174  0.00  0.00     0.029 A 
BRANCH  15  18
ATOM     18  N   UNL d   1      49.574  34.456  51.895  0.00  0.00    -0.114 N 
ATOM     19  O   UNL d   1      49.338  34.277  51.127  0.00  0.00    -0.532 OA
ATOM     20  O   UNL d   1      48.987  34.860  52.285  0.00  0.00    -0.532 OA
ENDBRANCH  15  18
ENDBRANCH  11  12
ENDBRANCH   1  11
TORSDOF 4
ENDMDL
MODEL 3
REMARK VINA RESULT:      -8.1      0.849      4.726
REMARK  4 active torsions:
REMARK  status: ('A' for Active; 'I' for Inactive)
REMARK    1  A    between atoms: C_9  and  N_1 
REMARK    2  A    between atoms: C_2  and  N_5 
REMARK    3  A    between atoms: N_5  and  O_12 
REMARK    4  A    between atoms: O_12  and  C_16 
ROOT
ATOM      1  N   UNL d   1      53.026  32.513  53.371  0.00  0.00    -0.126 NA
ENDROOT
BRANCH   1   2
ATOM      2  C   UNL d   1      53.005  31.690  53.320  0.00  0.00     0.108 A 
ATOM      3  C   UNL d   1      53.688  31.249  53.515  0.00  0.00     0.023 A 
ATOM      4  C   UNL d   1      53.667  30.447  53.466  0.00  0.00     0.044 A 
ATOM      5  C   UNL d   1      54.418  31.653  53.771  0.00  0.00     0.002 C 
ATOM      6  C   UNL d   1      52.964  30.059  53.220  0.00  0.00     0.196 A 
ATOM      7  C   UNL d   1      52.312  30.508  53.035  0.00  0.00     0.044 A 
ATOM      8  O   UNL d   1      52.943  29.236  53.169  0.00  0.00    -0.287 OA
ATOM      9  C   UNL d   1      52.333  31.331  53.086  0.00  0.00     0.023 A 
ATOM     10  C   UNL d   1      51.706  31.731  52.906  0.00  0.00     0.002 C 
ENDBRANCH   1   2
BRANCH   1  11
ATOM     11  O   UNL d   1      52.621  32.908  53.953  0.00  0.00    -0.211 OA
BRANCH  11  12
ATOM     12  C   UNL d   1      52.744  33.697  54.087  0.00  0.00     0.125 A 
ATOM     13  C   UNL d   1      53.132  33.951  54.782  0.00  0.00     0.029 A 
ATOM     14  C   UNL d   1      53.257  34.755  54.918  0.00  0.00     0.026 A 
ATOM     15  C   UNL d   1      52.995  35.315  54.360  0.00  0.00     0.127 A 
ATOM     16  C   UNL d   1      52.612  35.065  53.675  0.00  0.00     0.026 A 
ATOM     17  C   UNL d   1      52.484  34.244  53.536  0.00  0.00     0.029 A 
BRANCH  15  18
ATOM     18  N   UNL d   1      53.118  36.109  54.494  0.00  0.00    -0.114 N 
ATOM     19  O   UNL d   1      53.720  36.564  54.164  0.00  0.00    -0.532 OA
ATOM     20  O   UNL d   1      52.655  36.563  54.982  0.00  0.00    -0.532 OA
ENDBRANCH  15  18
ENDBRANCH  11  12
ENDBRANCH   1  11
TORSDOF 4
ENDMDL
MODEL 4
REMARK VINA RESULT:      -7.3      1.924      4.469
REMARK  4 active torsions:
REMARK  status: ('A' for Active; 'I' for Inactive)
REMARK    1  A    between atoms: C_9  and  N_1 
REMARK    2  A    between atoms: C_2  and  N_5 
REMARK    3  A    between atoms: N_5  and  O_12 
REMARK    4  A    between atoms: O_12  and  C_16 
ROOT
ATOM      1  N   UNL d   1      52.564  32.272  52.809  0.00  0.00    -0.126 NA
ENDROOT
BRANCH   1   2
ATOM      2  C   UNL d   1      52.993  31.626  53.089  0.00  0.00     0.108 A 
ATOM      3  C   UNL d   1      53.738  31.751  53.445  0.00  0.00     0.023 A 
ATOM      4  C   UNL d   1      54.156  31.120  53.717  0.00  0.00     0.044 A 
ATOM      5  C   UNL d   1      54.064  32.557  53.521  0.00  0.00     0.002 C 
ATOM      6  C   UNL d   1      53.842  30.344  53.643  0.00  0.00     0.196 A 
ATOM      7  C   UNL d   1      53.116  30.247  53.294  0.00  0.00     0.044 A 
ATOM      8  O   UNL d   1      54.271  29.697  53.923  0.00  0.00    -0.287 OA
ATOM      9  C   UNL d   1      52.687  30.894  53.014  0.00  0.00     0.023 A 
ATOM     10  C   UNL d   1      52.004  30.775  52.688  0.00  0.00     0.002 C 
ENDBRANCH   1   2
BRANCH   1  11
ATOM     11  O   UNL d   1      52.261  32.827  53.318  0.00  0.00    -0.211 OA
BRANCH  11  12
ATOM     12  C   UNL d   1      51.639  33.298  53.103  0.00  0.00     0.125 A 
ATOM     13  C   UNL d   1      51.713  33.823  52.457  0.00  0.00     0.029 A 
ATOM     14  C   UNL d   1      51.079  34.303  52.237  0.00  0.00     0.026 A 
ATOM     15  C   UNL d   1      50.362  34.264  52.659  0.00  0.00     0.127 A 
ATOM     16  C   UNL d   1      50.289  33.746  53.296  0.00  0.00     0.026 A 
ATOM     17  C   UNL d   1      50.937  33.256  53.521  0.00  0.00     0.029 A 
BRANCH  15  18
ATOM     18  N   UNL d   1      49.737  34.737  52.442  0.00  0.00    -0.114 N 
ATOM     19  O   UNL d   1      49.380  34.751  51.700  0.00  0.00    -0.532 OA
ATOM     20  O   UNL d   1      49.376  35.268  52.940  0.00  0.00    -0.532 OA
ENDBRANCH  15  18
ENDBRANCH  11  12
ENDBRANCH   1  11
TORSDOF 4
ENDMDL
MODEL 5
REMARK VINA RESULT:      -6.5      2.518      3.759
REMARK  4 active torsions:
REMARK  status: ('A' for Active; 'I' for Inactive)
REMARK    1  A    between atoms: C_9  and  N_1 
REMARK    2  A    between atoms: C_2  and  N_5 
REMARK    3  A    between atoms: N_5  and  O_12 
REMARK    4  A    between atoms: O_12  and  C_16 
ROOT
ATOM      1  N   UNL d   1      51.972  33.712  53.135  0.00  0.00    -0.126 NA
ENDROOT
BRANCH   1   2
ATOM      2  C   UNL d   1      51.313  33.920  52.684  0.00  0.00     0.108 A 
ATOM      3  C   UNL d   1      50.548  33.777  52.987  0.00  0.00     0.023 A 
ATOM      4  C   UNL d   1      49.906  33.979  52.547  0.00  0.00     0.044 A 
ATOM      5  C   UNL d   1      50.443  33.412  53.772  0.00  0.00     0.002 C 
ATOM      6  C   UNL d   1      50.008  34.330  51.791  0.00  0.00     0.196 A 
ATOM      7  C   UNL d   1      50.762  34.459  51.517  0.00  0.00     0.044 A 
ATOM      8  O   UNL d   1      49.349  34.537  51.340  0.00  0.00    -0.287 OA
ATOM      9  C   UNL d   1      51.421  34.252  51.968  0.00  0.00     0.023 A 
ATOM     10  C   UNL d   1      52.120  34.384  51.688  0.00  0.00     0.002 C 
ENDBRANCH   1   2
BRANCH   1  11
ATOM     11  O   UNL d   1      52.132  34.083  53.840  0.00  0.00    -0.211 OA
BRANCH  11  12
ATOM     12  C   UNL d   1      52.849  33.996  54.205  0.00  0.00     0.125 A 
ATOM     13  C   UNL d   1      53.232  34.658  54.542  0.00  0.00     0.029 A 
ATOM     14  C   UNL d   1      53.963  34.569  54.915  0.00  0.00     0.026 A 
ATOM     15  C   UNL d   1      54.320  33.818  54.955  0.00  0.00     0.127 A 
ATOM     16  C   UNL d   1      53.942  33.166  54.622  0.00  0.00     0.026 A 
ATOM     17  C   UNL d   1      53.196  33.256  54.242  0.00  0.00     0.029 A 
BRANCH  15  18
ATOM     18  N   UNL d   1      55.041  33.731  55.322  0.00  0.00    -0.114 N 
ATOM     19  O   UNL d   1      55.761  34.014  55.040  0.00  0.00    -0.532 OA
ATOM     20  O   UNL d   1      55.146  33.345  56.029  0.00  0.00    -0.532 OA
ENDBRANCH  15  18
ENDBRANCH  11  12
ENDBRANCH   1  11
TORSDOF 4
ENDMDL
