MODEL 1
REMARK VINA RESULT:      -5.7      0.000      0.000
REMARK  3 active torsions:
REMARK  status: ('A' for Active; 'I' for Inactive)
REMARK    1  A    between atoms: N_3  and  S_1 
REMARK    2  A    between atoms: C_8  and  S_1 
REMARK    3  A    between atoms: C_2  and  N_3 
ROOT
ATOM      1  S   UNL d   1      57.207  -0.361  31.467  0.00  0.00     0.287 S 
ATOM      2  O   UNL d   1      57.477   0.404  31.623  0.00  0.00    -0.198 OA
ATOM      3  O   UNL d   1      56.929  -1.125  31.318  0.00  0.00    -0.198 OA
ENDROOT
BRANCH   1   4
ATOM      4  N   UNL d   1      57.766  -0.441  30.865  0.00  0.00    -0.131 NA
BRANCH   4   5
ATOM      5  C   UNL d   1      57.911  -0.059  30.146  0.00  0.00     0.219 A 
ATOM      6  C   UNL d   1      58.618  -0.083  29.722  0.00  0.00     0.064 A 
ATOM      7  C   UNL d   1      58.518   0.377  29.039  0.00  0.00     0.112 A 
ATOM      8  C   UNL d   1      59.306  -0.494  29.937  0.00  0.00     0.005 C 
ATOM      9  C   UNL d   1      59.090   0.504  28.455  0.00  0.00     0.023 C 
ATOM     10  N   UNL d   1      57.750   0.682  29.048  0.00  0.00    -0.125 NA
ATOM     11  O   UNL d   1      57.372   0.412  29.735  0.00  0.00    -0.191 OA
ENDBRANCH   4   5
ENDBRANCH   1   4
BRANCH   1  12
ATOM     12  C   UNL d   1      56.647  -0.280  32.070  0.00  0.00     0.105 A 
ATOM     13  C   UNL d   1      56.431   0.471  32.336  0.00  0.00     0.015 A 
ATOM     14  C   UNL d   1      55.879   0.550  32.930  0.00  0.00     0.022 A 
ATOM     15  C   UNL d   1      55.537  -0.107  33.267  0.00  0.00     0.103 A 
ATOM     16  C   UNL d   1      55.750  -0.857  33.004  0.00  0.00     0.022 A 
ATOM     17  N   UNL d   1      54.978  -0.026  33.869  0.00  0.00    -0.148 N 
ATOM     18  C   UNL d   1      56.304  -0.937  32.407  0.00  0.00     0.015 A 
ENDBRANCH   1  12
TORSDOF 3
ENDMDL
MODEL 2
REMARK VINA RESULT:      -5.5      1.088      4.119
REMARK  3 active torsions:
REMARK  status: ('A' for Active; 'I' for Inactive)
REMARK    1  A    between atoms: N_3  and  S_1 
REMARK    2  A    between atoms: C_8  and  S_1 
REMARK    3  A    between atoms: C_2  and  N_3 
ROOT
ATOM      1  S   UNL d   1      57.920   0.312  30.700  0.00  0.00     0.287 S 
ATOM      2  O   UNL d   1      58.461   0.424  31.314  0.00  0.00    -0.198 OA
ATOM      3  O   UNL d   1      57.386   0.199  30.079  0.00  0.00    -0.198 OA
ENDROOT
BRANCH   1   4
ATOM      4  N   UNL d   1      57.296   0.326  31.241  0.00  0.00    -0.131 NA
BRANCH   4   5
ATOM      5  C   UNL d   1      56.903  -0.242  31.696  0.00  0.00     0.219 A 
ATOM      6  C   UNL d   1      56.369  -0.086  32.306  0.00  0.00     0.064 A 
ATOM      7  C   UNL d   1      56.112  -0.814  32.607  0.00  0.00     0.112 A 
ATOM      8  C   UNL d   1      56.132   0.663  32.570  0.00  0.00     0.005 C 
ATOM      9  C   UNL d   1      55.572  -0.916  33.226  0.00  0.00     0.023 C 
ATOM     10  N   UNL d   1      56.489  -1.414  32.182  0.00  0.00    -0.125 NA
ATOM     11  O   UNL d   1      56.980  -1.060  31.616  0.00  0.00    -0.191 OA
ENDBRANCH   4   5
ENDBRANCH   1   4
BRANCH   1  12
ATOM     12  C   UNL d   1      58.545   0.297  30.159  0.00  0.00     0.105 A 
ATOM     13  C   UNL d   1      58.464  -0.108  29.445  0.00  0.00     0.015 A 
ATOM     14  C   UNL d   1      59.080  -0.122  28.912  0.00  0.00     0.022 A 
ATOM     15  C   UNL d   1      59.778   0.262  29.076  0.00  0.00     0.103 A 
ATOM     16  C   UNL d   1      59.862   0.668  29.787  0.00  0.00     0.022 A 
ATOM     17  N   UNL d   1      60.402   0.248  28.536  0.00  0.00    -0.148 N 
ATOM     18  C   UNL d   1      59.243   0.682  30.324  0.00  0.00     0.015 A 
ENDBRANCH   1  12
TORSDOF 3
ENDMDL
MODEL 3
REMARK VINA RESULT:      -4.7      1.300      4.216
REMARK  3 active torsions:
REMARK  status: ('A' for Active; 'I' for Inactive)
REMARK    1  A    between atoms: N_3  and  S_1 
REMARK    2  A    between atoms: C_8  and  S_1 
REMARK    3  A    between atoms: C_2  and  N_3 
ROOT
ATOM      1  S   UNL d   1      56.584  -0.129  31.991  0.00  0.00     0.287 S 
ATOM      2  O   UNL d   1      56.677  -0.938  32.130  0.00  0.00    -0.198 OA
ATOM      3  O   UNL d   1      56.497   0.680  31.845  0.00  0.00    -0.198 OA
ENDROOT
BRANCH   1   4
ATOM      4  N   UNL d   1      56.031  -0.083  32.604  0.00  0.00    -0.131 NA
BRANCH   4   5
ATOM      5  C   UNL d   1      56.046   0.183  33.386  0.00  0.00     0.219 A 
ATOM      6  C   UNL d   1      55.394   0.246  33.887  0.00  0.00     0.064 A 
ATOM      7  C   UNL d   1      55.662   0.535  34.616  0.00  0.00     0.112 A 
ATOM      8  C   UNL d   1      54.610   0.053  33.697  0.00  0.00     0.005 C 
ATOM      9  C   UNL d   1      55.191   0.682  35.280  0.00  0.00     0.023 C 
ATOM     10  N   UNL d   1      56.479   0.650  34.560  0.00  0.00    -0.125 NA
ATOM     11  O   UNL d   1      56.718   0.432  33.797  0.00  0.00    -0.191 OA
ENDBRANCH   4   5
ENDBRANCH   1   4
BRANCH   1  12
ATOM     12  C   UNL d   1      57.137  -0.176  31.378  0.00  0.00     0.105 A 
ATOM     13  C   UNL d   1      57.440   0.514  31.042  0.00  0.00     0.015 A 
ATOM     14  C   UNL d   1      57.985   0.468  30.438  0.00  0.00     0.022 A 
ATOM     15  C   UNL d   1      58.235  -0.255  30.161  0.00  0.00     0.103 A 
ATOM     16  C   UNL d   1      57.935  -0.945  30.494  0.00  0.00     0.022 A 
ATOM     17  N   UNL d   1      58.787  -0.301  29.549  0.00  0.00    -0.148 N 
ATOM     18  C   UNL d   1      57.387  -0.899  31.101  0.00  0.00     0.015 A 
ENDBRANCH   1  12
TORSDOF 3
ENDMDL
