MODEL 1
REMARK VINA RESULT:      75.7      0.000      0.000
REMARK  2 active torsions:
REMARK  status: ('A' for Active; 'I' for Inactive)
REMARK    1  A    between atoms: N_10  and  C_3 
REMARK    2  A    between atoms: C_11  and  C_5 
ROOT
ATOM      1  N   UNL d   1      45.473 -17.968  41.723  0.00  0.00    -0.196 N 
ATOM      2  C   UNL d   1      45.757 -18.470  42.320  0.00  0.00     0.167 A 
ATOM      3  C   UNL d   1      45.560 -18.194  40.937  0.00  0.00     0.152 A 
ATOM      4  N   UNL d   1      45.037 -17.056  42.704  0.00  0.00    -0.163 NA
ATOM      5  C   UNL d   1      45.682 -18.267  43.099  0.00  0.00     0.055 A 
ATOM      6  N   UNL d   1      46.122 -19.185  42.118  0.00  0.00    -0.227 NA
ATOM      7  C   UNL d   1      45.918 -18.898  40.736  0.00  0.00     0.052 A 
ATOM      8  C   UNL d   1      45.319 -17.555  43.297  0.00  0.00     0.104 A 
ATOM      9  C   UNL d   1      46.201 -19.397  41.329  0.00  0.00     0.086 A 
ATOM     10  C   UNL d   1      45.995 -19.106  39.938  0.00  0.00     0.004 A 
ATOM     11  C   UNL d   1      45.238 -17.341  44.071  0.00  0.00     0.023 C 
ATOM     12  C   UNL d   1      46.564 -20.109  41.131  0.00  0.00     0.019 A 
ATOM     13  C   UNL d   1      46.364 -19.830  39.740  0.00  0.00     0.000 A 
ATOM     14  C   UNL d   1      46.647 -20.329  40.334  0.00  0.00     0.002 A 
ENDROOT
BRANCH   3  15
ATOM     15  N   UNL d   1      45.272 -17.687  40.328  0.00  0.00    -0.285 N 
ATOM     16  C   UNL d   1      45.815 -17.270  39.826  0.00  0.00     0.108 A 
ATOM     17  C   UNL d   1      45.525 -16.767  39.222  0.00  0.00     0.142 A 
ATOM     18  O   UNL d   1      44.686 -16.668  39.104  0.00  0.00    -0.300 OA
ATOM     19  C   UNL d   1      44.154 -17.088  39.611  0.00  0.00     0.142 A 
ATOM     20  C   UNL d   1      44.444 -17.591  40.215  0.00  0.00     0.108 A 
ENDBRANCH   3  15
BRANCH   5  21
ATOM     21  C   UNL d   1      45.965 -18.766  43.692  0.00  0.00     0.004 A 
ATOM     22  C   UNL d   1      46.358 -18.446  44.329  0.00  0.00     0.000 A 
ATOM     23  C   UNL d   1      46.641 -18.945  44.923  0.00  0.00     0.000 A 
ATOM     24  C   UNL d   1      46.525 -19.755  44.870  0.00  0.00     0.000 A 
ATOM     25  C   UNL d   1      46.128 -20.067  44.224  0.00  0.00     0.000 A 
ATOM     26  C   UNL d   1      45.845 -19.568  43.631  0.00  0.00     0.000 A 
ENDBRANCH   5  21
TORSDOF 2
ENDMDL
