MODEL 1
REMARK VINA RESULT:      -3.8      0.000      0.000
REMARK  1 active torsions:
REMARK  status: ('A' for Active; 'I' for Inactive)
REMARK    1  A    between atoms: C_7  and  N_1 
ROOT
ATOM      1  N   UNL d   1     -41.712-122.238 -53.203  0.00  0.00    -0.242 N 
ATOM      2  C   UNL d   1     -41.618-121.560 -52.791  0.00  0.00     0.267 A 
ATOM      3  C   UNL d   1     -41.652-123.012 -52.860  0.00  0.00     0.267 A 
ATOM      4  C   UNL d   1     -41.451-121.624 -51.978  0.00  0.00     0.057 A 
ATOM      5  C   UNL d   1     -41.487-123.026 -52.058  0.00  0.00     0.057 A 
ATOM      6  C   UNL d   1     -41.390-122.327 -51.634  0.00  0.00     0.009 A 
ATOM      7  O   UNL d   1     -41.749-123.710 -53.283  0.00  0.00    -0.267 OA
ATOM      8  O   UNL d   1     -41.682-120.821 -53.151  0.00  0.00    -0.267 OA
ATOM      9  C   UNL d   1     -41.222-122.385 -50.818  0.00  0.00     0.000 A 
ATOM     10  C   UNL d   1     -41.423-123.766 -51.697  0.00  0.00     0.005 A 
ATOM     11  C   UNL d   1     -41.353-120.914 -51.549  0.00  0.00     0.005 A 
ATOM     12  C   UNL d   1     -41.260-123.818 -50.907  0.00  0.00     0.000 A 
ATOM     13  C   UNL d   1     -41.188-120.935 -50.750  0.00  0.00     0.000 A 
ATOM     14  C   UNL d   1     -41.164-123.118 -50.484  0.00  0.00     0.000 A 
ATOM     15  C   UNL d   1     -41.125-121.708 -50.393  0.00  0.00     0.000 A 
ENDROOT
BRANCH   1  16
ATOM     16  C   UNL d   1     -41.879-122.173 -54.015  0.00  0.00     0.070 A 
ATOM     17  C   UNL d   1     -41.299-122.344 -54.591  0.00  0.00     0.021 A 
ATOM     18  C   UNL d   1     -41.473-122.278 -55.373  0.00  0.00     0.043 A 
ATOM     19  C   UNL d   1     -42.256-122.031 -55.649  0.00  0.00     0.196 A 
ATOM     20  C   UNL d   1     -42.840-121.859 -55.087  0.00  0.00     0.043 A 
ATOM     21  O   UNL d   1     -42.489-121.946 -56.476  0.00  0.00    -0.287 OA
ATOM     22  C   UNL d   1     -42.642-121.933 -54.268  0.00  0.00     0.021 A 
ENDBRANCH   1  16
TORSDOF 1
ENDMDL
MODEL 2
REMARK VINA RESULT:      -3.3      0.096      1.680
REMARK  1 active torsions:
REMARK  status: ('A' for Active; 'I' for Inactive)
REMARK    1  A    between atoms: C_7  and  N_1 
ROOT
ATOM      1  N   UNL d   1     -41.708-122.223 -53.124  0.00  0.00    -0.242 N 
ATOM      2  C   UNL d   1     -41.630-122.946 -52.795  0.00  0.00     0.267 A 
ATOM      3  C   UNL d   1     -41.626-121.497 -52.693  0.00  0.00     0.267 A 
ATOM      4  C   UNL d   1     -41.458-122.982 -51.981  0.00  0.00     0.057 A 
ATOM      5  C   UNL d   1     -41.457-121.581 -51.896  0.00  0.00     0.057 A 
ATOM      6  C   UNL d   1     -41.376-122.327 -51.558  0.00  0.00     0.009 A 
ATOM      7  O   UNL d   1     -41.706-120.752 -53.031  0.00  0.00    -0.267 OA
ATOM      8  O   UNL d   1     -41.716-123.637 -53.238  0.00  0.00    -0.267 OA
ATOM      9  C   UNL d   1     -41.204-122.369 -50.742  0.00  0.00     0.000 A 
ATOM     10  C   UNL d   1     -41.371-120.890 -51.452  0.00  0.00     0.005 A 
ATOM     11  C   UNL d   1     -41.377-123.741 -51.638  0.00  0.00     0.005 A 
ATOM     12  C   UNL d   1     -41.204-120.935 -50.662  0.00  0.00     0.000 A 
ATOM     13  C   UNL d   1     -41.208-123.817 -50.844  0.00  0.00     0.000 A 
ATOM     14  C   UNL d   1     -41.124-121.682 -50.325  0.00  0.00     0.000 A 
ATOM     15  C   UNL d   1     -41.123-123.093 -50.400  0.00  0.00     0.000 A 
ENDROOT
BRANCH   1  16
ATOM     16  C   UNL d   1     -41.880-122.188 -53.936  0.00  0.00     0.070 A 
ATOM     17  C   UNL d   1     -41.297-122.353 -54.510  0.00  0.00     0.021 A 
ATOM     18  C   UNL d   1     -41.475-122.316 -55.294  0.00  0.00     0.043 A 
ATOM     19  C   UNL d   1     -42.268-122.105 -55.572  0.00  0.00     0.196 A 
ATOM     20  C   UNL d   1     -42.856-121.939 -55.013  0.00  0.00     0.043 A 
ATOM     21  O   UNL d   1     -42.507-122.052 -56.400  0.00  0.00    -0.287 OA
ATOM     22  C   UNL d   1     -42.653-121.983 -54.193  0.00  0.00     0.021 A 
ENDBRANCH   1  16
TORSDOF 1
ENDMDL
MODEL 3
REMARK VINA RESULT:      -3.0      1.260      3.639
REMARK  1 active torsions:
REMARK  status: ('A' for Active; 'I' for Inactive)
REMARK    1  A    between atoms: C_7  and  N_1 
ROOT
ATOM      1  N   UNL d   1     -41.761-122.464 -52.490  0.00  0.00    -0.242 N 
ATOM      2  C   UNL d   1     -42.063-121.841 -52.887  0.00  0.00     0.267 A 
ATOM      3  C   UNL d   1     -41.434-123.151 -52.866  0.00  0.00     0.267 A 
ATOM      4  C   UNL d   1     -42.053-121.874 -53.719  0.00  0.00     0.057 A 
ATOM      5  C   UNL d   1     -41.445-123.139 -53.685  0.00  0.00     0.057 A 
ATOM      6  C   UNL d   1     -41.757-122.496 -54.094  0.00  0.00     0.009 A 
ATOM      7  O   UNL d   1     -41.123-123.793 -52.458  0.00  0.00    -0.267 OA
ATOM      8  O   UNL d   1     -42.375-121.186 -52.496  0.00  0.00    -0.267 OA
ATOM      9  C   UNL d   1     -41.749-122.524 -54.929  0.00  0.00     0.000 A 
ATOM     10  C   UNL d   1     -41.133-123.795 -54.078  0.00  0.00     0.005 A 
ATOM     11  C   UNL d   1     -42.370-121.221 -54.134  0.00  0.00     0.005 A 
ATOM     12  C   UNL d   1     -41.127-123.817 -54.886  0.00  0.00     0.000 A 
ATOM     13  C   UNL d   1     -42.378-121.215 -54.949  0.00  0.00     0.000 A 
ATOM     14  C   UNL d   1     -41.439-123.174 -55.294  0.00  0.00     0.000 A 
ATOM     15  C   UNL d   1     -42.051-121.901 -55.339  0.00  0.00     0.000 A 
ENDROOT
BRANCH   1  16
ATOM     16  C   UNL d   1     -41.771-122.431 -51.660  0.00  0.00     0.070 A 
ATOM     17  C   UNL d   1     -41.142-122.087 -51.232  0.00  0.00     0.021 A 
ATOM     18  C   UNL d   1     -41.164-122.061 -50.428  0.00  0.00     0.043 A 
ATOM     19  C   UNL d   1     -41.830-122.384 -49.978  0.00  0.00     0.196 A 
ATOM     20  C   UNL d   1     -42.460-122.728 -50.391  0.00  0.00     0.043 A 
ATOM     21  O   UNL d   1     -41.898-122.380 -49.118  0.00  0.00    -0.287 OA
ATOM     22  C   UNL d   1     -42.423-122.748 -51.236  0.00  0.00     0.021 A 
ENDBRANCH   1  16
TORSDOF 1
ENDMDL
