MODEL 1
REMARK VINA RESULT:      29.9      0.000      0.000
REMARK  6 active torsions:
REMARK  status: ('A' for Active; 'I' for Inactive)
REMARK    1  A    between atoms: C_9  and  C_2 
REMARK    2  A    between atoms: N_12  and  C_6 
REMARK    3  A    between atoms: N_11  and  C_20 
REMARK    4  A    between atoms: C_19  and  N_12 
REMARK    5  A    between atoms: O_21  and  C_16 
REMARK    6  A    between atoms: C_20  and  C_19 
ROOT
ATOM      1  C   UNL d   1      46.308 -18.982  43.324  0.00  0.00     0.060 A 
ATOM      2  C   UNL d   1      46.223 -19.282  42.577  0.00  0.00     0.011 A 
ATOM      3  C   UNL d   1      46.334 -20.122  42.615  0.00  0.00     0.037 A 
ATOM      4  C   UNL d   1      46.475 -19.624  43.852  0.00  0.00     0.116 A 
ATOM      5  S   UNL d   1      46.490 -20.330  43.401  0.00  0.00    -0.067 SA
ATOM      6  C   UNL d   1      46.261 -18.223  43.625  0.00  0.00     0.166 A 
ATOM      7  N   UNL d   1      46.591 -19.491  44.663  0.00  0.00    -0.217 NA
ATOM      8  N   UNL d   1      46.375 -18.097  44.416  0.00  0.00    -0.205 NA
ATOM      9  C   UNL d   1      46.545 -18.742  44.953  0.00  0.00     0.201 A 
ENDROOT
BRANCH   6  10
ATOM     10  N   UNL d   1      46.099 -17.576  43.132  0.00  0.00    -0.224 NA
BRANCH  10  11
ATOM     11  C   UNL d   1      46.161 -16.811  43.430  0.00  0.00     0.120 C 
BRANCH  11  12
ATOM     12  C   UNL d   1      45.478 -16.400  43.686  0.00  0.00     0.101 C 
BRANCH  12  13
ATOM     13  N   UNL d   1      45.551 -15.627  43.986  0.00  0.00    -0.298 N 
ATOM     14  C   UNL d   1      46.071 -15.130  43.653  0.00  0.00     0.107 A 
ATOM     15  C   UNL d   1      46.134 -14.359  43.963  0.00  0.00     0.142 A 
ATOM     16  O   UNL d   1      45.676 -14.139  44.580  0.00  0.00    -0.300 OA
ATOM     17  C   UNL d   1      45.159 -14.635  44.910  0.00  0.00     0.142 A 
ATOM     18  C   UNL d   1      45.077 -15.395  44.626  0.00  0.00     0.107 A 
ENDBRANCH  12  13
ENDBRANCH  11  12
ENDBRANCH  10  11
ENDBRANCH   6  10
BRANCH   2  19
ATOM     19  C   UNL d   1      46.060 -18.827  41.938  0.00  0.00     0.001 A 
ATOM     20  C   UNL d   1      46.647 -18.389  41.566  0.00  0.00     0.002 A 
ATOM     21  C   UNL d   1      46.483 -17.922  40.910  0.00  0.00     0.024 A 
ATOM     22  C   UNL d   1      45.718 -17.879  40.605  0.00  0.00     0.094 A 
ATOM     23  C   UNL d   1      45.122 -18.335  40.996  0.00  0.00     0.024 A 
ATOM     24  C   UNL d   1      45.287 -18.799  41.648  0.00  0.00     0.002 A 
BRANCH  22  25
ATOM     25  O   UNL d   1      45.516 -17.504  40.055  0.00  0.00    -0.328 OA
ATOM     26  C   UNL d   1      44.708 -17.475  39.809  0.00  0.00     0.181 C 
ENDBRANCH  22  25
ENDBRANCH   2  19
TORSDOF 6
ENDMDL
