MODEL 1
REMARK VINA RESULT:       1.2      0.000      0.000
REMARK  0 active torsions:
REMARK  status: ('A' for Active; 'I' for Inactive)
ROOT
ATOM      1  N   UNL d   1      46.541 -18.694  42.763  0.00  0.00    -0.300 N 
ATOM      2  C   UNL d   1      46.608 -19.928  42.057  0.00  0.00     0.295 A 
ATOM      3  N   UNL d   1      46.595 -20.330  42.786  0.00  0.00    -0.205 NA
ATOM      4  C   UNL d   1      46.581 -19.104  42.044  0.00  0.00     0.123 A 
ATOM      5  C   UNL d   1      46.528 -19.085  43.472  0.00  0.00     0.082 A 
ATOM      6  C   UNL d   1      46.555 -19.901  43.490  0.00  0.00     0.101 A 
ATOM      7  O   UNL d   1      46.647 -20.326  41.354  0.00  0.00    -0.264 OA
ATOM      8  C   UNL d   1      46.521 -17.903  42.586  0.00  0.00     0.080 A 
ATOM      9  C   UNL d   1      46.585 -18.548  41.428  0.00  0.00     0.024 A 
ATOM     10  C   UNL d   1      46.488 -18.649  44.180  0.00  0.00     0.019 A 
ATOM     11  C   UNL d   1      46.542 -20.304  44.219  0.00  0.00     0.021 A 
ATOM     12  C   UNL d   1      46.547 -17.787  41.781  0.00  0.00     0.021 A 
ATOM     13  C   UNL d   1      46.475 -19.051  44.909  0.00  0.00     0.002 A 
ATOM     14  C   UNL d   1      46.502 -19.865  44.914  0.00  0.00     0.002 A 
ENDROOT
TORSDOF 0
ENDMDL
