MODEL 1
REMARK VINA RESULT:      -6.3      0.000      0.000
REMARK  3 active torsions:
REMARK  status: ('A' for Active; 'I' for Inactive)
REMARK    1  A    between atoms: N_4  and  C_2 
REMARK    2  A    between atoms: C_9  and  C_3 
REMARK       I    between atoms: C_7  and  N_4 
REMARK    3  A    between atoms: C_8  and  C_7 
ROOT
ATOM      1  N   UNL d   1      58.491  -0.257  30.242  0.00  0.00    -0.051 NA
ATOM      2  C   UNL d   1      57.737   0.056  30.322  0.00  0.00     0.760 A 
ATOM      3  C   UNL d   1      58.850   0.098  29.590  0.00  0.00     0.147 A 
ATOM      4  N   UNL d   1      57.625   0.607  29.718  0.00  0.00    -0.019 NA
ATOM      5  S   UNL d   1      58.309   0.636  29.264  0.00  0.00     0.052 SA
ENDROOT
BRANCH   2   6
ATOM      6  N   UNL d   1      57.130  -0.090  30.871  0.00  0.00    -0.018 NA
ATOM      7  C   UNL d   1      57.223   0.141  31.657  0.00  0.00     0.295 C 
ATOM      8  O   UNL d   1      57.918   0.517  31.897  0.00  0.00    -0.265 OA
BRANCH   7   9
ATOM      9  C   UNL d   1      56.622  -0.003  32.200  0.00  0.00     0.059 A 
ATOM     10  C   UNL d   1      56.411  -0.779  32.380  0.00  0.00     0.007 A 
ATOM     11  C   UNL d   1      55.806  -0.917  32.927  0.00  0.00     0.030 A 
ATOM     12  C   UNL d   1      55.416  -0.288  33.291  0.00  0.00     0.140 A 
ATOM     13  C   UNL d   1      55.627   0.488  33.111  0.00  0.00     0.030 A 
ATOM     14  F   UNL d   1      54.817  -0.442  33.833  0.00  0.00    -0.204 F 
ATOM     15  C   UNL d   1      56.229   0.633  32.567  0.00  0.00     0.007 A 
ENDBRANCH   7   9
ENDBRANCH   2   6
BRANCH   3  16
ATOM     16  C   UNL d   1      59.607  -0.053  29.310  0.00  0.00     0.026 A 
ATOM     17  C   UNL d   1      59.750  -0.709  28.828  0.00  0.00     0.002 A 
ATOM     18  C   UNL d   1      60.511  -0.861  28.548  0.00  0.00     0.000 A 
ATOM     19  C   UNL d   1      61.130  -0.354  28.752  0.00  0.00     0.000 A 
ATOM     20  C   UNL d   1      60.994   0.298  29.230  0.00  0.00     0.000 A 
ATOM     21  C   UNL d   1      60.233   0.450  29.511  0.00  0.00     0.002 A 
ENDBRANCH   3  16
TORSDOF 3
ENDMDL
MODEL 2
REMARK VINA RESULT:      -5.1      2.196      5.170
REMARK  3 active torsions:
REMARK  status: ('A' for Active; 'I' for Inactive)
REMARK    1  A    between atoms: N_4  and  C_2 
REMARK    2  A    between atoms: C_9  and  C_3 
REMARK       I    between atoms: C_7  and  N_4 
REMARK    3  A    between atoms: C_8  and  C_7 
ROOT
ATOM      1  N   UNL d   1      56.416  -0.093  32.512  0.00  0.00    -0.051 NA
ATOM      2  C   UNL d   1      56.637  -0.667  31.969  0.00  0.00     0.760 A 
ATOM      3  C   UNL d   1      55.927  -0.446  33.075  0.00  0.00     0.147 A 
ATOM      4  N   UNL d   1      56.287  -1.379  32.194  0.00  0.00    -0.019 NA
ATOM      5  S   UNL d   1      55.848  -1.247  32.876  0.00  0.00     0.052 SA
ENDROOT
BRANCH   2   6
ATOM      6  N   UNL d   1      57.118  -0.634  31.291  0.00  0.00    -0.018 NA
ATOM      7  C   UNL d   1      57.572   0.037  31.142  0.00  0.00     0.295 C 
ATOM      8  O   UNL d   1      57.548   0.676  31.663  0.00  0.00    -0.265 OA
BRANCH   7   9
ATOM      9  C   UNL d   1      58.047   0.069  30.471  0.00  0.00     0.059 A 
ATOM     10  C   UNL d   1      58.752  -0.358  30.448  0.00  0.00     0.007 A 
ATOM     11  C   UNL d   1      59.225  -0.322  29.770  0.00  0.00     0.030 A 
ATOM     12  C   UNL d   1      58.998   0.136  29.123  0.00  0.00     0.140 A 
ATOM     13  C   UNL d   1      58.294   0.563  29.146  0.00  0.00     0.030 A 
ATOM     14  F   UNL d   1      59.480   0.161  28.457  0.00  0.00    -0.204 F 
ATOM     15  C   UNL d   1      57.818   0.531  29.817  0.00  0.00     0.007 A 
ENDBRANCH   7   9
ENDBRANCH   2   6
BRANCH   3  16
ATOM     16  C   UNL d   1      55.581  -0.073  33.719  0.00  0.00     0.026 A 
ATOM     17  C   UNL d   1      54.781   0.133  33.701  0.00  0.00     0.002 A 
ATOM     18  C   UNL d   1      54.433   0.508  34.348  0.00  0.00     0.000 A 
ATOM     19  C   UNL d   1      54.888   0.678  35.015  0.00  0.00     0.000 A 
ATOM     20  C   UNL d   1      55.683   0.476  35.039  0.00  0.00     0.000 A 
ATOM     21  C   UNL d   1      56.031   0.101  34.392  0.00  0.00     0.002 A 
ENDBRANCH   3  16
TORSDOF 3
ENDMDL
