MODEL 1
REMARK VINA RESULT:      -2.8      0.000      0.000
REMARK  2 active torsions:
REMARK  status: ('A' for Active; 'I' for Inactive)
REMARK    1  A    between atoms: C_7  and  C_1 
REMARK    2  A    between atoms: O_16  and  C_12 
ROOT
ATOM      1  C   UNL d   1      32.727  18.014 -23.396  0.00  0.00     0.105 A 
ATOM      2  C   UNL d   1      32.971  19.664 -23.300  0.00  0.00     0.064 A 
ATOM      3  O   UNL d   1      32.755  18.385 -22.652  0.00  0.00    -0.307 OA
ATOM      4  C   UNL d   1      32.942  19.290 -24.040  0.00  0.00     0.200 A 
ATOM      5  C   UNL d   1      32.876  19.205 -22.606  0.00  0.00     0.103 A 
ATOM      6  C   UNL d   1      32.821  18.466 -24.095  0.00  0.00     0.067 A 
ATOM      7  C   UNL d   1      33.090  20.475 -23.248  0.00  0.00     0.029 A 
ATOM      8  O   UNL d   1      33.034  19.735 -24.728  0.00  0.00    -0.286 OA
ATOM      9  C   UNL d   1      32.905  19.579 -21.865  0.00  0.00     0.027 A 
ATOM     10  C   UNL d   1      33.118  20.842 -22.513  0.00  0.00     0.094 A 
ATOM     11  C   UNL d   1      33.025  20.396 -21.824  0.00  0.00     0.026 A 
ENDROOT
BRANCH   1  12
ATOM     12  C   UNL d   1      32.608  17.205 -23.452  0.00  0.00     0.050 A 
ATOM     13  C   UNL d   1      31.860  16.913 -23.624  0.00  0.00     0.142 A 
ATOM     14  F   UNL d   1      31.230  17.447 -23.741  0.00  0.00    -0.204 F 
ATOM     15  C   UNL d   1      31.734  16.102 -23.682  0.00  0.00     0.030 A 
ATOM     16  C   UNL d   1      32.359  15.580 -23.565  0.00  0.00     0.002 A 
ATOM     17  C   UNL d   1      33.112  15.869 -23.391  0.00  0.00     0.000 A 
ATOM     18  C   UNL d   1      33.239  16.680 -23.334  0.00  0.00     0.004 A 
ENDBRANCH   1  12
BRANCH  10  19
ATOM     19  O   UNL d   1      33.238  21.655 -22.464  0.00  0.00    -0.328 OA
ATOM     20  C   UNL d   1      33.027  22.063 -21.779  0.00  0.00     0.181 C 
ENDBRANCH  10  19
TORSDOF 2
ENDMDL
MODEL 2
REMARK VINA RESULT:      -2.4      2.298      5.273
REMARK  2 active torsions:
REMARK  status: ('A' for Active; 'I' for Inactive)
REMARK    1  A    between atoms: C_7  and  C_1 
REMARK    2  A    between atoms: O_16  and  C_12 
ROOT
ATOM      1  C   UNL d   1      32.798  22.312 -20.647  0.00  0.00     0.105 A 
ATOM      2  C   UNL d   1      33.041  21.388 -22.017  0.00  0.00     0.064 A 
ATOM      3  O   UNL d   1      32.758  21.483 -20.599  0.00  0.00    -0.307 OA
ATOM      4  C   UNL d   1      33.080  22.215 -22.061  0.00  0.00     0.200 A 
ATOM      5  C   UNL d   1      32.878  21.025 -21.280  0.00  0.00     0.103 A 
ATOM      6  C   UNL d   1      32.960  22.683 -21.381  0.00  0.00     0.067 A 
ATOM      7  C   UNL d   1      33.160  20.929 -22.688  0.00  0.00     0.029 A 
ATOM      8  O   UNL d   1      33.240  22.580 -22.783  0.00  0.00    -0.286 OA
ATOM      9  C   UNL d   1      32.839  20.196 -21.236  0.00  0.00     0.027 A 
ATOM     10  C   UNL d   1      33.120  20.109 -22.641  0.00  0.00     0.094 A 
ATOM     11  C   UNL d   1      32.960  19.744 -21.917  0.00  0.00     0.026 A 
ENDROOT
BRANCH   1  12
ATOM     12  C   UNL d   1      32.680  22.773 -19.979  0.00  0.00     0.050 A 
ATOM     13  C   UNL d   1      32.003  23.233 -19.915  0.00  0.00     0.142 A 
ATOM     14  F   UNL d   1      31.444  23.225 -20.534  0.00  0.00    -0.204 F 
ATOM     15  C   UNL d   1      31.879  23.698 -19.247  0.00  0.00     0.030 A 
ATOM     16  C   UNL d   1      32.434  23.702 -18.640  0.00  0.00     0.002 A 
ATOM     17  C   UNL d   1      33.115  23.240 -18.701  0.00  0.00     0.000 A 
ATOM     18  C   UNL d   1      33.241  22.775 -19.369  0.00  0.00     0.004 A 
ENDBRANCH   1  12
BRANCH  10  19
ATOM     19  O   UNL d   1      33.240  19.652 -23.315  0.00  0.00    -0.328 OA
ATOM     20  C   UNL d   1      32.938  18.885 -23.353  0.00  0.00     0.181 C 
ENDBRANCH  10  19
TORSDOF 2
ENDMDL
MODEL 3
REMARK VINA RESULT:      -1.7      1.702      4.455
REMARK  2 active torsions:
REMARK  status: ('A' for Active; 'I' for Inactive)
REMARK    1  A    between atoms: C_7  and  C_1 
REMARK    2  A    between atoms: O_16  and  C_12 
ROOT
ATOM      1  C   UNL d   1      32.866  20.953 -21.980  0.00  0.00     0.105 A 
ATOM      2  C   UNL d   1      33.072  19.402 -22.566  0.00  0.00     0.064 A 
ATOM      3  O   UNL d   1      32.833  20.812 -22.800  0.00  0.00    -0.307 OA
ATOM      4  C   UNL d   1      33.105  19.547 -21.749  0.00  0.00     0.200 A 
ATOM      5  C   UNL d   1      32.935  20.042 -23.089  0.00  0.00     0.103 A 
ATOM      6  C   UNL d   1      33.003  20.319 -21.450  0.00  0.00     0.067 A 
ATOM      7  C   UNL d   1      33.173  18.641 -22.858  0.00  0.00     0.029 A 
ATOM      8  O   UNL d   1      33.240  18.922 -21.228  0.00  0.00    -0.286 OA
ATOM      9  C   UNL d   1      32.902  19.897 -23.906  0.00  0.00     0.027 A 
ATOM     10  C   UNL d   1      33.140  18.501 -23.668  0.00  0.00     0.094 A 
ATOM     11  C   UNL d   1      33.005  19.127 -24.190  0.00  0.00     0.026 A 
ENDROOT
BRANCH   1  12
ATOM     12  C   UNL d   1      32.766  21.711 -21.686  0.00  0.00     0.050 A 
ATOM     13  C   UNL d   1      32.194  21.855 -21.115  0.00  0.00     0.142 A 
ATOM     14  F   UNL d   1      31.721  21.225 -20.843  0.00  0.00    -0.204 F 
ATOM     15  C   UNL d   1      32.089  22.615 -20.815  0.00  0.00     0.030 A 
ATOM     16  C   UNL d   1      32.558  23.233 -21.087  0.00  0.00     0.002 A 
ATOM     17  C   UNL d   1      33.134  23.092 -21.661  0.00  0.00     0.000 A 
ATOM     18  C   UNL d   1      33.241  22.333 -21.962  0.00  0.00     0.004 A 
ENDBRANCH   1  12
BRANCH  10  19
ATOM     19  O   UNL d   1      33.241  17.737 -23.957  0.00  0.00    -0.328 OA
ATOM     20  C   UNL d   1      33.191  17.593 -24.768  0.00  0.00     0.181 C 
ENDBRANCH  10  19
TORSDOF 2
ENDMDL
MODEL 4
REMARK VINA RESULT:      -1.6      1.408      4.106
REMARK  2 active torsions:
REMARK  status: ('A' for Active; 'I' for Inactive)
REMARK    1  A    between atoms: C_7  and  C_1 
REMARK    2  A    between atoms: O_16  and  C_12 
ROOT
ATOM      1  C   UNL d   1      32.645  19.033 -23.123  0.00  0.00     0.105 A 
ATOM      2  C   UNL d   1      32.291  17.476 -23.614  0.00  0.00     0.064 A 
ATOM      3  O   UNL d   1      32.082  18.906 -23.723  0.00  0.00    -0.307 OA
ATOM      4  C   UNL d   1      32.851  17.606 -23.017  0.00  0.00     0.200 A 
ATOM      5  C   UNL d   1      31.907  18.132 -23.966  0.00  0.00     0.103 A 
ATOM      6  C   UNL d   1      33.032  18.381 -22.767  0.00  0.00     0.067 A 
ATOM      7  C   UNL d   1      32.114  16.712 -23.859  0.00  0.00     0.029 A 
ATOM      8  O   UNL d   1      33.233  16.965 -22.666  0.00  0.00    -0.286 OA
ATOM      9  C   UNL d   1      31.347  18.001 -24.565  0.00  0.00     0.027 A 
ATOM     10  C   UNL d   1      31.558  16.586 -24.452  0.00  0.00     0.094 A 
ATOM     11  C   UNL d   1      31.175  17.228 -24.804  0.00  0.00     0.026 A 
ENDROOT
BRANCH   1  12
ATOM     12  C   UNL d   1      32.824  19.793 -22.877  0.00  0.00     0.050 A 
ATOM     13  C   UNL d   1      33.059  20.356 -23.427  0.00  0.00     0.142 A 
ATOM     14  F   UNL d   1      33.113  20.143 -24.231  0.00  0.00    -0.204 F 
ATOM     15  C   UNL d   1      33.240  21.122 -23.186  0.00  0.00     0.030 A 
ATOM     16  C   UNL d   1      33.186  21.326 -22.391  0.00  0.00     0.002 A 
ATOM     17  C   UNL d   1      32.949  20.763 -21.835  0.00  0.00     0.000 A 
ATOM     18  C   UNL d   1      32.768  19.997 -22.075  0.00  0.00     0.004 A 
ENDBRANCH   1  12
BRANCH  10  19
ATOM     19  O   UNL d   1      31.382  15.819 -24.695  0.00  0.00    -0.328 OA
ATOM     20  C   UNL d   1      30.597  15.579 -24.770  0.00  0.00     0.181 C 
ENDBRANCH  10  19
TORSDOF 2
ENDMDL
MODEL 5
REMARK VINA RESULT:      -1.3      2.602      3.879
REMARK  2 active torsions:
REMARK  status: ('A' for Active; 'I' for Inactive)
REMARK    1  A    between atoms: C_7  and  C_1 
REMARK    2  A    between atoms: O_16  and  C_12 
ROOT
ATOM      1  C   UNL d   1      29.549  16.579 -24.103  0.00  0.00     0.105 A 
ATOM      2  C   UNL d   1      31.019  17.352 -24.278  0.00  0.00     0.064 A 
ATOM      3  O   UNL d   1      30.227  16.266 -23.736  0.00  0.00    -0.307 OA
ATOM      4  C   UNL d   1      30.341  17.661 -24.642  0.00  0.00     0.200 A 
ATOM      5  C   UNL d   1      30.956  16.650 -23.824  0.00  0.00     0.103 A 
ATOM      6  C   UNL d   1      29.604  17.280 -24.559  0.00  0.00     0.067 A 
ATOM      7  C   UNL d   1      31.745  17.728 -24.361  0.00  0.00     0.029 A 
ATOM      8  O   UNL d   1      30.395  18.351 -25.091  0.00  0.00    -0.286 OA
ATOM      9  C   UNL d   1      31.636  16.341 -23.459  0.00  0.00     0.027 A 
ATOM     10  C   UNL d   1      32.415  17.419 -23.998  0.00  0.00     0.094 A 
ATOM     11  C   UNL d   1      32.361  16.728 -23.549  0.00  0.00     0.026 A 
ENDROOT
BRANCH   1  12
ATOM     12  C   UNL d   1      28.824  16.206 -24.022  0.00  0.00     0.050 A 
ATOM     13  C   UNL d   1      28.442  16.209 -23.296  0.00  0.00     0.142 A 
ATOM     14  F   UNL d   1      28.799  16.594 -22.648  0.00  0.00    -0.204 F 
ATOM     15  C   UNL d   1      27.713  15.836 -23.208  0.00  0.00     0.030 A 
ATOM     16  C   UNL d   1      27.365  15.458 -23.850  0.00  0.00     0.002 A 
ATOM     17  C   UNL d   1      27.746  15.453 -24.582  0.00  0.00     0.000 A 
ATOM     18  C   UNL d   1      28.474  15.825 -24.671  0.00  0.00     0.004 A 
ENDBRANCH   1  12
BRANCH  10  19
ATOM     19  O   UNL d   1      33.141  17.799 -24.083  0.00  0.00    -0.328 OA
ATOM     20  C   UNL d   1      33.195  18.615 -23.974  0.00  0.00     0.181 C 
ENDBRANCH  10  19
TORSDOF 2
ENDMDL
MODEL 6
REMARK VINA RESULT:      -1.2      1.540      2.486
REMARK  2 active torsions:
REMARK  status: ('A' for Active; 'I' for Inactive)
REMARK    1  A    between atoms: C_7  and  C_1 
REMARK    2  A    between atoms: O_16  and  C_12 
ROOT
ATOM      1  C   UNL d   1      32.999  20.171 -22.700  0.00  0.00     0.105 A 
ATOM      2  C   UNL d   1      32.928  21.694 -22.018  0.00  0.00     0.064 A 
ATOM      3  O   UNL d   1      32.824  20.254 -21.891  0.00  0.00    -0.307 OA
ATOM      4  C   UNL d   1      33.102  21.607 -22.824  0.00  0.00     0.200 A 
ATOM      5  C   UNL d   1      32.789  21.011 -21.553  0.00  0.00     0.103 A 
ATOM      6  C   UNL d   1      33.140  20.850 -23.171  0.00  0.00     0.067 A 
ATOM      7  C   UNL d   1      32.892  22.441 -21.678  0.00  0.00     0.029 A 
ATOM      8  O   UNL d   1      33.240  22.275 -23.288  0.00  0.00    -0.286 OA
ATOM      9  C   UNL d   1      32.615  21.098 -20.746  0.00  0.00     0.027 A 
ATOM     10  C   UNL d   1      32.719  22.523 -20.878  0.00  0.00     0.094 A 
ATOM     11  C   UNL d   1      32.581  21.854 -20.413  0.00  0.00     0.026 A 
ENDROOT
BRANCH   1  12
ATOM     12  C   UNL d   1      33.036  19.427 -23.042  0.00  0.00     0.050 A 
ATOM     13  C   UNL d   1      33.156  18.766 -22.570  0.00  0.00     0.142 A 
ATOM     14  F   UNL d   1      33.240  18.863 -21.746  0.00  0.00    -0.204 F 
ATOM     15  C   UNL d   1      33.194  18.016 -22.907  0.00  0.00     0.030 A 
ATOM     16  C   UNL d   1      33.111  17.927 -23.721  0.00  0.00     0.002 A 
ATOM     17  C   UNL d   1      32.990  18.589 -24.198  0.00  0.00     0.000 A 
ATOM     18  C   UNL d   1      32.952  19.340 -23.862  0.00  0.00     0.004 A 
ENDBRANCH   1  12
BRANCH  10  19
ATOM     19  O   UNL d   1      32.684  23.274 -20.540  0.00  0.00    -0.328 OA
ATOM     20  C   UNL d   1      32.853  23.374 -19.739  0.00  0.00     0.181 C 
ENDBRANCH  10  19
TORSDOF 2
ENDMDL
MODEL 7
REMARK VINA RESULT:      -0.8      4.534      6.355
REMARK  2 active torsions:
REMARK  status: ('A' for Active; 'I' for Inactive)
REMARK    1  A    between atoms: C_7  and  C_1 
REMARK    2  A    between atoms: O_16  and  C_12 
ROOT
ATOM      1  C   UNL d   1      32.665  22.774 -18.969  0.00  0.00     0.105 A 
ATOM      2  C   UNL d   1      32.784  22.315 -20.570  0.00  0.00     0.064 A 
ATOM      3  O   UNL d   1      32.716  23.355 -19.563  0.00  0.00    -0.307 OA
ATOM      4  C   UNL d   1      32.733  21.740 -19.975  0.00  0.00     0.200 A 
ATOM      5  C   UNL d   1      32.775  23.126 -20.358  0.00  0.00     0.103 A 
ATOM      6  C   UNL d   1      32.674  21.962 -19.174  0.00  0.00     0.067 A 
ATOM      7  C   UNL d   1      32.843  22.094 -21.359  0.00  0.00     0.029 A 
ATOM      8  O   UNL d   1      32.742  20.940 -20.177  0.00  0.00    -0.286 OA
ATOM      9  C   UNL d   1      32.826  23.702 -20.954  0.00  0.00     0.027 A 
ATOM     10  C   UNL d   1      32.893  22.668 -21.947  0.00  0.00     0.094 A 
ATOM     11  C   UNL d   1      32.884  23.469 -21.745  0.00  0.00     0.026 A 
ENDROOT
BRANCH   1  12
ATOM     12  C   UNL d   1      32.607  22.991 -18.181  0.00  0.00     0.050 A 
ATOM     13  C   UNL d   1      31.917  23.341 -17.904  0.00  0.00     0.142 A 
ATOM     14  F   UNL d   1      31.284  23.469 -18.431  0.00  0.00    -0.204 F 
ATOM     15  C   UNL d   1      31.852  23.561 -17.113  0.00  0.00     0.030 A 
ATOM     16  C   UNL d   1      32.480  23.432 -16.598  0.00  0.00     0.002 A 
ATOM     17  C   UNL d   1      33.174  23.081 -16.872  0.00  0.00     0.000 A 
ATOM     18  C   UNL d   1      33.241  22.860 -17.662  0.00  0.00     0.004 A 
ENDBRANCH   1  12
BRANCH  10  19
ATOM     19  O   UNL d   1      32.951  22.443 -22.737  0.00  0.00    -0.328 OA
ATOM     20  C   UNL d   1      32.710  22.960 -23.332  0.00  0.00     0.181 C 
ENDBRANCH  10  19
TORSDOF 2
ENDMDL
