MODEL 1
REMARK VINA RESULT:      -4.6      0.000      0.000
REMARK  10 active torsions:
REMARK  status: ('A' for Active; 'I' for Inactive)
REMARK    1  A    between atoms: N_3  and  C_1 
REMARK    2  A    between atoms: C_8  and  N_2 
REMARK       I    between atoms: C_7  and  N_3 
REMARK    3  A    between atoms: C_21  and  C_7 
REMARK    4  A    between atoms: C_11  and  C_8 
REMARK    5  A    between atoms: O_20  and  C_11 
REMARK    6  A    between atoms: C_12  and  C_23 
REMARK       I    between atoms: N_13  and  C_12 
REMARK    7  A    between atoms: C_22  and  N_13 
REMARK    8  A    between atoms: S_17  and  C_21 
REMARK    9  A    between atoms: C_23  and  S_17 
REMARK   10  A    between atoms: O_24  and  C_18 
ROOT
ATOM      1  C   UNL d   1     -41.112  14.299  20.672  0.00  0.00     0.183 A 
ATOM      2  N   UNL d   1     -40.620  14.965  20.700  0.00  0.00    -0.280 N 
ATOM      3  S   UNL d   1     -41.147  14.041  19.882  0.00  0.00    -0.048 SA
ATOM      4  C   UNL d   1     -40.674  14.552  19.425  0.00  0.00     0.050 A 
ATOM      5  C   UNL d   1     -40.349  15.122  19.930  0.00  0.00     0.072 A 
ATOM      6  C   UNL d   1     -40.505  14.562  18.613  0.00  0.00     0.032 A 
ATOM      7  C   UNL d   1     -39.855  15.703  19.622  0.00  0.00     0.020 A 
ATOM      8  C   UNL d   1     -40.008  15.150  18.321  0.00  0.00     0.095 A 
ATOM      9  C   UNL d   1     -39.683  15.721  18.826  0.00  0.00     0.026 A 
ENDROOT
BRANCH   1  10
ATOM     10  N   UNL d   1     -41.500  13.950  21.315  0.00  0.00    -0.183 NA
ATOM     11  C   UNL d   1     -42.098  13.485  20.976  0.00  0.00     0.287 C 
ATOM     12  O   UNL d   1     -42.186  13.458  20.151  0.00  0.00    -0.265 OA
BRANCH  11  13
ATOM     13  C   UNL d   1     -42.607  13.048  21.451  0.00  0.00     0.098 C 
BRANCH  13  14
ATOM     14  S   UNL d   1     -43.429  13.108  21.356  0.00  0.00    -0.076 SA
BRANCH  14  15
ATOM     15  C   UNL d   1     -43.938  12.698  21.864  0.00  0.00     0.098 C 
BRANCH  15  16
ATOM     16  C   UNL d   1     -44.735  12.903  21.910  0.00  0.00     0.286 C 
ATOM     17  N   UNL d   1     -45.077  13.069  22.642  0.00  0.00    -0.208 NA
ATOM     18  O   UNL d   1     -45.189  12.941  21.216  0.00  0.00    -0.265 OA
BRANCH  17  19
ATOM     19  C   UNL d   1     -45.881  13.276  22.684  0.00  0.00     0.085 A 
ATOM     20  C   UNL d   1     -46.447  12.687  22.740  0.00  0.00     0.019 A 
ATOM     21  C   UNL d   1     -47.242  12.894  22.781  0.00  0.00     0.002 A 
ATOM     22  C   UNL d   1     -47.466  13.696  22.765  0.00  0.00     0.000 A 
ATOM     23  C   UNL d   1     -46.881  14.279  22.707  0.00  0.00     0.002 A 
ATOM     24  C   UNL d   1     -46.087  14.073  22.666  0.00  0.00     0.019 A 
ENDBRANCH  17  19
ENDBRANCH  15  16
ENDBRANCH  14  15
ENDBRANCH  13  14
ENDBRANCH  11  13
ENDBRANCH   1  10
BRANCH   2  25
ATOM     25  C   UNL d   1     -40.436  15.392  21.376  0.00  0.00     0.151 C 
BRANCH  25  26
ATOM     26  C   UNL d   1     -39.730  15.263  21.775  0.00  0.00     0.314 C 
ATOM     27  O   UNL d   1     -39.458  14.493  21.905  0.00  0.00    -0.257 OA
BRANCH  26  28
ATOM     28  O   UNL d   1     -39.289  15.922  22.049  0.00  0.00    -0.295 OA
ATOM     29  C   UNL d   1     -38.973  15.908  22.817  0.00  0.00     0.185 C 
ENDBRANCH  26  28
ENDBRANCH  25  26
ENDBRANCH   2  25
BRANCH   8  30
ATOM     30  O   UNL d   1     -39.830  15.172  17.509  0.00  0.00    -0.328 OA
ATOM     31  C   UNL d   1     -40.250  15.667  17.010  0.00  0.00     0.181 C 
ENDBRANCH   8  30
TORSDOF 10
ENDMDL
MODEL 2
REMARK VINA RESULT:      -4.3      0.864      2.475
REMARK  10 active torsions:
REMARK  status: ('A' for Active; 'I' for Inactive)
REMARK    1  A    between atoms: N_3  and  C_1 
REMARK    2  A    between atoms: C_8  and  N_2 
REMARK       I    between atoms: C_7  and  N_3 
REMARK    3  A    between atoms: C_21  and  C_7 
REMARK    4  A    between atoms: C_11  and  C_8 
REMARK    5  A    between atoms: O_20  and  C_11 
REMARK    6  A    between atoms: C_12  and  C_23 
REMARK       I    between atoms: N_13  and  C_12 
REMARK    7  A    between atoms: C_22  and  N_13 
REMARK    8  A    between atoms: S_17  and  C_21 
REMARK    9  A    between atoms: C_23  and  S_17 
REMARK   10  A    between atoms: O_24  and  C_18 
ROOT
ATOM      1  C   UNL d   1     -41.008  14.155  20.409  0.00  0.00     0.183 A 
ATOM      2  N   UNL d   1     -40.670  14.724  19.911  0.00  0.00    -0.280 N 
ATOM      3  S   UNL d   1     -40.573  14.146  21.118  0.00  0.00    -0.048 SA
ATOM      4  C   UNL d   1     -39.967  14.714  21.053  0.00  0.00     0.050 A 
ATOM      5  C   UNL d   1     -40.027  15.070  20.308  0.00  0.00     0.072 A 
ATOM      6  C   UNL d   1     -39.373  14.944  21.584  0.00  0.00     0.032 A 
ATOM      7  C   UNL d   1     -39.492  15.657  20.095  0.00  0.00     0.020 A 
ATOM      8  C   UNL d   1     -38.845  15.533  21.355  0.00  0.00     0.095 A 
ATOM      9  C   UNL d   1     -38.905  15.889  20.610  0.00  0.00     0.026 A 
ENDROOT
BRANCH   1  10
ATOM     10  N   UNL d   1     -41.661  13.678  20.233  0.00  0.00    -0.183 NA
ATOM     11  C   UNL d   1     -42.003  13.505  20.970  0.00  0.00     0.287 C 
ATOM     12  O   UNL d   1     -41.665  13.807  21.665  0.00  0.00    -0.265 OA
BRANCH  11  13
ATOM     13  C   UNL d   1     -42.676  13.035  21.018  0.00  0.00     0.098 C 
BRANCH  13  14
ATOM     14  S   UNL d   1     -43.339  13.291  21.445  0.00  0.00    -0.076 SA
BRANCH  14  15
ATOM     15  C   UNL d   1     -44.003  12.801  21.517  0.00  0.00     0.098 C 
BRANCH  15  16
ATOM     16  C   UNL d   1     -44.670  13.060  21.925  0.00  0.00     0.286 C 
ATOM     17  N   UNL d   1     -45.289  12.537  22.081  0.00  0.00    -0.208 NA
ATOM     18  O   UNL d   1     -44.715  13.850  22.178  0.00  0.00    -0.265 OA
BRANCH  17  19
ATOM     19  C   UNL d   1     -45.960  12.803  22.493  0.00  0.00     0.085 A 
ATOM     20  C   UNL d   1     -46.417  13.403  22.175  0.00  0.00     0.019 A 
ATOM     21  C   UNL d   1     -47.081  13.664  22.585  0.00  0.00     0.002 A 
ATOM     22  C   UNL d   1     -47.282  13.319  23.316  0.00  0.00     0.000 A 
ATOM     23  C   UNL d   1     -46.810  12.713  23.623  0.00  0.00     0.002 A 
ATOM     24  C   UNL d   1     -46.147  12.452  23.214  0.00  0.00     0.019 A 
ENDBRANCH  17  19
ENDBRANCH  15  16
ENDBRANCH  14  15
ENDBRANCH  13  14
ENDBRANCH  11  13
ENDBRANCH   1  10
BRANCH   2  25
ATOM     25  C   UNL d   1     -40.931  14.910  19.156  0.00  0.00     0.151 C 
BRANCH  25  26
ATOM     26  C   UNL d   1     -40.567  14.586  18.494  0.00  0.00     0.314 C 
ATOM     27  O   UNL d   1     -40.416  13.775  18.455  0.00  0.00    -0.257 OA
BRANCH  26  28
ATOM     28  O   UNL d   1     -40.352  15.090  17.858  0.00  0.00    -0.295 OA
ATOM     29  C   UNL d   1     -40.296  14.775  17.092  0.00  0.00     0.185 C 
ENDBRANCH  26  28
ENDBRANCH  25  26
ENDBRANCH   2  25
BRANCH   8  30
ATOM     30  O   UNL d   1     -38.245  15.773  21.877  0.00  0.00    -0.328 OA
ATOM     31  C   UNL d   1     -38.419  15.920  22.664  0.00  0.00     0.181 C 
ENDBRANCH   8  30
TORSDOF 10
ENDMDL
MODEL 3
REMARK VINA RESULT:      -3.9      1.977      7.186
REMARK  10 active torsions:
REMARK  status: ('A' for Active; 'I' for Inactive)
REMARK    1  A    between atoms: N_3  and  C_1 
REMARK    2  A    between atoms: C_8  and  N_2 
REMARK       I    between atoms: C_7  and  N_3 
REMARK    3  A    between atoms: C_21  and  C_7 
REMARK    4  A    between atoms: C_11  and  C_8 
REMARK    5  A    between atoms: O_20  and  C_11 
REMARK    6  A    between atoms: C_12  and  C_23 
REMARK       I    between atoms: N_13  and  C_12 
REMARK    7  A    between atoms: C_22  and  N_13 
REMARK    8  A    between atoms: S_17  and  C_21 
REMARK    9  A    between atoms: C_23  and  S_17 
REMARK   10  A    between atoms: O_24  and  C_18 
ROOT
ATOM      1  C   UNL d   1     -46.522  12.912  22.723  0.00  0.00     0.183 A 
ATOM      2  N   UNL d   1     -47.201  12.771  23.177  0.00  0.00    -0.280 N 
ATOM      3  S   UNL d   1     -46.604  13.659  22.367  0.00  0.00    -0.048 SA
ATOM      4  C   UNL d   1     -47.336  13.976  22.604  0.00  0.00     0.050 A 
ATOM      5  C   UNL d   1     -47.704  13.428  23.104  0.00  0.00     0.072 A 
ATOM      6  C   UNL d   1     -47.706  14.697  22.423  0.00  0.00     0.032 A 
ATOM      7  C   UNL d   1     -48.443  13.601  23.422  0.00  0.00     0.020 A 
ATOM      8  C   UNL d   1     -48.445  14.854  22.749  0.00  0.00     0.095 A 
ATOM      9  C   UNL d   1     -48.813  14.306  23.249  0.00  0.00     0.026 A 
ENDROOT
BRANCH   1  10
ATOM     10  N   UNL d   1     -45.876  12.400  22.638  0.00  0.00    -0.183 NA
ATOM     11  C   UNL d   1     -45.264  12.878  22.343  0.00  0.00     0.287 C 
ATOM     12  O   UNL d   1     -45.398  13.685  22.203  0.00  0.00    -0.265 OA
BRANCH  11  13
ATOM     13  C   UNL d   1     -44.524  12.558  22.186  0.00  0.00     0.098 C 
BRANCH  13  14
ATOM     14  S   UNL d   1     -44.013  12.921  21.642  0.00  0.00    -0.076 SA
BRANCH  14  15
ATOM     15  C   UNL d   1     -43.220  12.689  21.597  0.00  0.00     0.098 C 
BRANCH  15  16
ATOM     16  C   UNL d   1     -42.681  13.129  21.154  0.00  0.00     0.286 C 
ATOM     17  N   UNL d   1     -42.126  13.607  21.534  0.00  0.00    -0.208 NA
ATOM     18  O   UNL d   1     -42.702  13.087  20.325  0.00  0.00    -0.265 OA
BRANCH  17  19
ATOM     19  C   UNL d   1     -41.586  14.049  21.084  0.00  0.00     0.085 A 
ATOM     20  C   UNL d   1     -41.647  14.865  21.065  0.00  0.00     0.019 A 
ATOM     21  C   UNL d   1     -41.111  15.299  20.618  0.00  0.00     0.002 A 
ATOM     22  C   UNL d   1     -40.512  14.910  20.190  0.00  0.00     0.000 A 
ATOM     23  C   UNL d   1     -40.464  14.084  20.219  0.00  0.00     0.002 A 
ATOM     24  C   UNL d   1     -40.999  13.649  20.665  0.00  0.00     0.019 A 
ENDBRANCH  17  19
ENDBRANCH  15  16
ENDBRANCH  14  15
ENDBRANCH  13  14
ENDBRANCH  11  13
ENDBRANCH   1  10
BRANCH   2  25
ATOM     25  C   UNL d   1     -47.345  12.096  23.619  0.00  0.00     0.151 C 
BRANCH  25  26
ATOM     26  C   UNL d   1     -47.859  11.516  23.346  0.00  0.00     0.314 C 
ATOM     27  O   UNL d   1     -47.629  11.006  22.738  0.00  0.00    -0.257 OA
BRANCH  26  28
ATOM     28  O   UNL d   1     -48.620  11.448  23.693  0.00  0.00    -0.295 OA
ATOM     29  C   UNL d   1     -49.003  10.711  23.691  0.00  0.00     0.185 C 
ENDBRANCH  26  28
ENDBRANCH  25  26
ENDBRANCH   2  25
BRANCH   8  30
ATOM     30  O   UNL d   1     -48.826  15.572  22.576  0.00  0.00    -0.328 OA
ATOM     31  C   UNL d   1     -49.606  15.573  22.323  0.00  0.00     0.181 C 
ENDBRANCH   8  30
TORSDOF 10
ENDMDL
MODEL 4
REMARK VINA RESULT:      -2.8      1.260      1.461
REMARK  10 active torsions:
REMARK  status: ('A' for Active; 'I' for Inactive)
REMARK    1  A    between atoms: N_3  and  C_1 
REMARK    2  A    between atoms: C_8  and  N_2 
REMARK       I    between atoms: C_7  and  N_3 
REMARK    3  A    between atoms: C_21  and  C_7 
REMARK    4  A    between atoms: C_11  and  C_8 
REMARK    5  A    between atoms: O_20  and  C_11 
REMARK    6  A    between atoms: C_12  and  C_23 
REMARK       I    between atoms: N_13  and  C_12 
REMARK    7  A    between atoms: C_22  and  N_13 
REMARK    8  A    between atoms: S_17  and  C_21 
REMARK    9  A    between atoms: C_23  and  S_17 
REMARK   10  A    between atoms: O_24  and  C_18 
ROOT
ATOM      1  C   UNL d   1     -40.434  14.288  20.722  0.00  0.00     0.183 A 
ATOM      2  N   UNL d   1     -39.669  14.199  21.029  0.00  0.00    -0.280 N 
ATOM      3  S   UNL d   1     -40.377  14.292  19.892  0.00  0.00    -0.048 SA
ATOM      4  C   UNL d   1     -39.574  14.204  19.691  0.00  0.00     0.050 A 
ATOM      5  C   UNL d   1     -39.138  14.147  20.392  0.00  0.00     0.072 A 
ATOM      6  C   UNL d   1     -39.195  14.170  18.953  0.00  0.00     0.032 A 
ATOM      7  C   UNL d   1     -38.321  14.056  20.355  0.00  0.00     0.020 A 
ATOM      8  C   UNL d   1     -38.377  14.078  18.935  0.00  0.00     0.095 A 
ATOM      9  C   UNL d   1     -37.940  14.021  19.636  0.00  0.00     0.026 A 
ENDROOT
BRANCH   1  10
ATOM     10  N   UNL d   1     -41.132  14.361  21.162  0.00  0.00    -0.183 NA
ATOM     11  C   UNL d   1     -41.705  13.951  20.723  0.00  0.00     0.287 C 
ATOM     12  O   UNL d   1     -41.496  13.586  20.007  0.00  0.00    -0.265 OA
BRANCH  11  13
ATOM     13  C   UNL d   1     -42.480  13.902  20.991  0.00  0.00     0.098 C 
BRANCH  13  14
ATOM     14  S   UNL d   1     -42.763  13.204  21.339  0.00  0.00    -0.076 SA
BRANCH  14  15
ATOM     15  C   UNL d   1     -43.518  12.922  21.149  0.00  0.00     0.098 C 
BRANCH  15  16
ATOM     16  C   UNL d   1     -44.089  12.831  21.738  0.00  0.00     0.286 C 
ATOM     17  N   UNL d   1     -44.832  13.177  21.649  0.00  0.00    -0.208 NA
ATOM     18  O   UNL d   1     -43.908  12.391  22.419  0.00  0.00    -0.265 OA
BRANCH  17  19
ATOM     19  C   UNL d   1     -45.404  13.083  22.245  0.00  0.00     0.085 A 
ATOM     20  C   UNL d   1     -45.751  13.745  22.580  0.00  0.00     0.019 A 
ATOM     21  C   UNL d   1     -46.317  13.649  23.169  0.00  0.00     0.002 A 
ATOM     22  C   UNL d   1     -46.531  12.885  23.421  0.00  0.00     0.000 A 
ATOM     23  C   UNL d   1     -46.171  12.226  23.073  0.00  0.00     0.002 A 
ATOM     24  C   UNL d   1     -45.606  12.321  22.484  0.00  0.00     0.019 A 
ENDBRANCH  17  19
ENDBRANCH  15  16
ENDBRANCH  14  15
ENDBRANCH  13  14
ENDBRANCH  11  13
ENDBRANCH   1  10
BRANCH   2  25
ATOM     25  C   UNL d   1     -39.477  14.168  21.825  0.00  0.00     0.151 C 
BRANCH  25  26
ATOM     26  C   UNL d   1     -39.238  14.845  22.226  0.00  0.00     0.314 C 
ATOM     27  O   UNL d   1     -39.565  15.580  22.038  0.00  0.00    -0.257 OA
BRANCH  26  28
ATOM     28  O   UNL d   1     -38.658  14.778  22.829  0.00  0.00    -0.295 OA
ATOM     29  C   UNL d   1     -38.690  15.291  23.481  0.00  0.00     0.185 C 
ENDBRANCH  26  28
ENDBRANCH  25  26
ENDBRANCH   2  25
BRANCH   8  30
ATOM     30  O   UNL d   1     -37.984  14.043  18.203  0.00  0.00    -0.328 OA
ATOM     31  C   UNL d   1     -38.411  14.087  17.505  0.00  0.00     0.181 C 
ENDBRANCH   8  30
TORSDOF 10
ENDMDL
