MODEL 1
REMARK VINA RESULT:       0.4      0.000      0.000
REMARK  4 active torsions:
REMARK  status: ('A' for Active; 'I' for Inactive)
REMARK    1  A    between atoms: C_16  and  N_3 
REMARK    2  A    between atoms: S_12  and  C_6 
REMARK    3  A    between atoms: C_10  and  C_14 
REMARK       I    between atoms: N_11  and  C_10 
REMARK    4  A    between atoms: C_14  and  S_12 
ROOT
ATOM      1  C   UNL d   1      58.477  -9.486  29.849  0.00  0.00     0.155 A 
ATOM      2  C   UNL d   1      58.693  -9.586  30.645  0.00  0.00     0.107 A 
ATOM      3  N   UNL d   1      59.847  -9.413  29.482  0.00  0.00    -0.252 N 
ATOM      4  C   UNL d   1      59.050  -9.401  29.279  0.00  0.00     0.285 A 
ATOM      5  N   UNL d   1      59.491  -9.598  30.848  0.00  0.00    -0.220 NA
ATOM      6  C   UNL d   1      60.067  -9.512  30.267  0.00  0.00     0.182 A 
ATOM      7  N   UNL d   1      57.654  -9.497  29.816  0.00  0.00    -0.239 NA
ATOM      8  C   UNL d   1      58.008  -9.656  31.085  0.00  0.00     0.037 A 
ATOM      9  C   UNL d   1      57.364  -9.601  30.579  0.00  0.00     0.083 A 
ATOM     10  O   UNL d   1      58.826  -9.302  28.486  0.00  0.00    -0.265 OA
ATOM     11  C   UNL d   1      57.890  -9.763  31.891  0.00  0.00     0.003 A 
ATOM     12  C   UNL d   1      56.603  -9.654  30.877  0.00  0.00     0.019 A 
ATOM     13  C   UNL d   1      57.128  -9.816  32.189  0.00  0.00     0.000 A 
ATOM     14  C   UNL d   1      56.486  -9.760  31.674  0.00  0.00     0.002 A 
ENDROOT
BRANCH   6  15
ATOM     15  S   UNL d   1      61.133  -9.818  32.760  0.00  0.00    -0.044 SA
BRANCH  15  16
ATOM     16  C   UNL d   1      60.584  -9.797  33.511  0.00  0.00     0.099 C 
BRANCH  16  17
ATOM     17  C   UNL d   1      60.389  -8.982  33.915  0.00  0.00     0.272 C 
ATOM     18  N   UNL d   1      59.905  -8.957  34.700  0.00  0.00    -0.267 N 
ATOM     19  C   UNL d   1      59.714  -8.164  35.096  0.00  0.00     0.110 A 
ATOM     20  C   UNL d   1      59.621  -9.747  35.073  0.00  0.00     0.110 A 
ATOM     21  C   UNL d   1      59.226  -8.133  35.887  0.00  0.00     0.142 A 
ATOM     22  O   UNL d   1      58.938  -8.916  36.269  0.00  0.00    -0.300 OA
ATOM     23  C   UNL d   1      59.133  -9.732  35.864  0.00  0.00     0.142 A 
ATOM     24  O   UNL d   1      60.676  -8.191  33.537  0.00  0.00    -0.266 OA
ENDBRANCH  16  17
ENDBRANCH  15  16
ENDBRANCH   6  15
BRANCH   3  25
ATOM     25  C   UNL d   1      60.498  -9.316  28.825  0.00  0.00     0.085 C 
ATOM     26  C   UNL d   1      61.107  -8.624  28.879  0.00  0.00     0.021 C 
ENDBRANCH   3  25
TORSDOF 4
ENDMDL
MODEL 2
REMARK VINA RESULT:       2.8      8.109      8.677
REMARK  4 active torsions:
REMARK  status: ('A' for Active; 'I' for Inactive)
REMARK    1  A    between atoms: C_16  and  N_3 
REMARK    2  A    between atoms: S_12  and  C_6 
REMARK    3  A    between atoms: C_10  and  C_14 
REMARK       I    between atoms: N_11  and  C_10 
REMARK    4  A    between atoms: C_14  and  S_12 
ROOT
ATOM      1  C   UNL d   1      59.797  -2.474  28.773  0.00  0.00     0.155 A 
ATOM      2  C   UNL d   1      59.058  -2.289  29.105  0.00  0.00     0.107 A 
ATOM      3  N   UNL d   1      60.282  -1.187  29.130  0.00  0.00    -0.252 N 
ATOM      4  C   UNL d   1      60.398  -1.927  28.788  0.00  0.00     0.285 A 
ATOM      5  N   UNL d   1      58.942  -1.549  29.447  0.00  0.00    -0.220 NA
ATOM      6  C   UNL d   1      59.554  -0.999  29.459  0.00  0.00     0.182 A 
ATOM      7  N   UNL d   1      59.747  -3.240  28.478  0.00  0.00    -0.239 NA
ATOM      8  C   UNL d   1      58.570  -2.938  29.010  0.00  0.00     0.037 A 
ATOM      9  C   UNL d   1      58.990  -3.527  28.623  0.00  0.00     0.083 A 
ATOM     10  O   UNL d   1      61.133  -2.119  28.455  0.00  0.00    -0.265 OA
ATOM     11  C   UNL d   1      57.788  -3.065  29.228  0.00  0.00     0.003 A 
ATOM     12  C   UNL d   1      58.630  -4.244  28.456  0.00  0.00     0.019 A 
ATOM     13  C   UNL d   1      57.428  -3.782  29.060  0.00  0.00     0.000 A 
ATOM     14  C   UNL d   1      57.858  -4.371  28.672  0.00  0.00     0.002 A 
ENDROOT
BRANCH   6  15
ATOM     15  S   UNL d   1      57.277  -0.058  30.632  0.00  0.00    -0.044 SA
BRANCH  15  16
ATOM     16  C   UNL d   1      57.306   0.306  31.488  0.00  0.00     0.099 C 
BRANCH  16  17
ATOM     17  C   UNL d   1      56.523   0.372  31.986  0.00  0.00     0.272 C 
ATOM     18  N   UNL d   1      56.562   0.475  32.902  0.00  0.00    -0.267 N 
ATOM     19  C   UNL d   1      55.799   0.540  33.389  0.00  0.00     0.110 A 
ATOM     20  C   UNL d   1      57.383   0.510  33.311  0.00  0.00     0.110 A 
ATOM     21  C   UNL d   1      55.833   0.643  34.312  0.00  0.00     0.142 A 
ATOM     22  O   UNL d   1      56.649   0.680  34.732  0.00  0.00    -0.300 OA
ATOM     23  C   UNL d   1      57.432   0.613  34.233  0.00  0.00     0.142 A 
ATOM     24  O   UNL d   1      55.699   0.337  31.571  0.00  0.00    -0.266 OA
ENDBRANCH  16  17
ENDBRANCH  15  16
ENDBRANCH   6  15
BRANCH   3  25
ATOM     25  C   UNL d   1      60.974  -0.566  29.144  0.00  0.00     0.085 C 
ATOM     26  C   UNL d   1      60.781   0.337  29.141  0.00  0.00     0.021 C 
ENDBRANCH   3  25
TORSDOF 4
ENDMDL
