MODEL 1
REMARK VINA RESULT:      43.2      0.000      0.000
REMARK  7 active torsions:
REMARK  status: ('A' for Active; 'I' for Inactive)
REMARK    1  A    between atoms: C_10  and  N_1 
REMARK    2  A    between atoms: S_12  and  C_2 
REMARK    3  A    between atoms: S_3  and  N_11 
REMARK    4  A    between atoms: C_7  and  S_3 
REMARK    5  A    between atoms: N_11  and  C_15 
REMARK    6  A    between atoms: C_19  and  S_12 
REMARK    7  A    between atoms: C_15  and  C_19 
ROOT
ATOM      1  C   UNL d   1      14.775  14.332  -0.397  0.00  0.00     0.060 C 
ENDROOT
BRANCH   1   2
ATOM      2  C   UNL d   1      14.557  14.882  -0.951  0.00  0.00     0.119 C 
BRANCH   2   3
ATOM      3  N   UNL d   1      14.951  15.612  -1.004  0.00  0.00    -0.156 NA
BRANCH   3   4
ATOM      4  S   UNL d   1      14.964  16.023  -1.719  0.00  0.00     0.285 S 
ATOM      5  O   UNL d   1      14.715  15.321  -2.137  0.00  0.00    -0.198 OA
ATOM      6  O   UNL d   1      15.207  16.721  -1.335  0.00  0.00    -0.198 OA
BRANCH   4   7
ATOM      7  C   UNL d   1      14.971  16.429  -2.459  0.00  0.00     0.105 A 
ATOM      8  C   UNL d   1      15.040  15.986  -3.140  0.00  0.00     0.013 A 
ATOM      9  C   UNL d   1      15.049  16.364  -3.861  0.00  0.00     0.001 A 
ATOM     10  C   UNL d   1      14.987  17.193  -3.900  0.00  0.00     0.000 A 
ATOM     11  C   UNL d   1      14.920  17.618  -3.212  0.00  0.00     0.001 A 
ATOM     12  C   UNL d   1      14.997  17.579  -4.646  0.00  0.00     0.000 C 
ATOM     13  C   UNL d   1      14.910  17.257  -2.499  0.00  0.00     0.013 A 
ENDBRANCH   4   7
ENDBRANCH   3   4
ENDBRANCH   2   3
ENDBRANCH   1   2
BRANCH   1  14
ATOM     14  S   UNL d   1      14.555  13.566  -0.465  0.00  0.00    -0.045 SA
BRANCH  14  15
ATOM     15  C   UNL d   1      15.110  12.962  -0.427  0.00  0.00     0.219 A 
ATOM     16  N   UNL d   1      14.998  12.290  -0.860  0.00  0.00    -0.186 N 
ATOM     17  N   UNL d   1      15.634  11.780  -0.719  0.00  0.00    -0.038 NA
ATOM     18  N   UNL d   1      16.125  12.161  -0.195  0.00  0.00    -0.022 NA
ATOM     19  N   UNL d   1      15.818  12.871  -0.014  0.00  0.00    -0.101 NA
BRANCH  16  20
ATOM     20  C   UNL d   1      14.357  12.143  -1.357  0.00  0.00     0.087 A 
ATOM     21  C   UNL d   1      13.627  11.927  -1.051  0.00  0.00     0.019 A 
ATOM     22  C   UNL d   1      12.981  11.780  -1.557  0.00  0.00     0.002 A 
ATOM     23  C   UNL d   1      13.069  11.849  -2.374  0.00  0.00     0.000 A 
ATOM     24  C   UNL d   1      13.808  12.068  -2.677  0.00  0.00     0.002 A 
ATOM     25  C   UNL d   1      14.452  12.215  -2.172  0.00  0.00     0.019 A 
ENDBRANCH  16  20
ENDBRANCH  14  15
ENDBRANCH   1  14
TORSDOF 7
ENDMDL
