MODEL 1
REMARK VINA RESULT:      -3.9      0.000      0.000
REMARK  1 active torsions:
REMARK  status: ('A' for Active; 'I' for Inactive)
REMARK    1  A    between atoms: N_3  and  C_1 
ROOT
ATOM      1  C   UNL d   1     -41.695-123.242 -49.463  0.00  0.00     0.158 A 
ATOM      2  C   UNL d   1     -42.429-123.008 -49.162  0.00  0.00     0.103 A 
ATOM      3  C   UNL d   1     -43.007-122.693 -49.661  0.00  0.00     0.104 C 
ATOM      4  N   UNL d   1     -43.578-122.379 -50.163  0.00  0.00    -0.191 NA
ATOM      5  N   UNL d   1     -41.123-123.556 -48.958  0.00  0.00    -0.226 NA
ATOM      6  C   UNL d   1     -42.589-123.090 -48.356  0.00  0.00     0.015 A 
ATOM      7  C   UNL d   1     -41.283-123.637 -48.155  0.00  0.00     0.101 A 
ATOM      8  C   UNL d   1     -42.018-123.403 -47.854  0.00  0.00     0.021 A 
ENDROOT
BRANCH   1   9
ATOM      9  N   UNL d   1     -41.538-123.160 -50.265  0.00  0.00    -0.286 N 
ATOM     10  C   UNL d   1     -41.638-123.807 -50.772  0.00  0.00     0.102 A 
ATOM     11  C   UNL d   1     -41.482-123.725 -51.572  0.00  0.00     0.118 A 
ATOM     12  N   UNL d   1     -41.226-123.006 -51.874  0.00  0.00    -0.239 NA
ATOM     13  C   UNL d   1     -41.126-122.363 -51.369  0.00  0.00     0.118 A 
ATOM     14  C   UNL d   1     -41.282-122.439 -50.563  0.00  0.00     0.102 A 
ENDBRANCH   1   9
TORSDOF 1
ENDMDL
MODEL 2
REMARK VINA RESULT:      -3.9      1.152      3.143
REMARK  1 active torsions:
REMARK  status: ('A' for Active; 'I' for Inactive)
REMARK    1  A    between atoms: N_3  and  C_1 
ROOT
ATOM      1  C   UNL d   1     -41.538-123.034 -51.675  0.00  0.00     0.158 A 
ATOM      2  C   UNL d   1     -41.289-122.354 -52.079  0.00  0.00     0.103 A 
ATOM      3  C   UNL d   1     -41.205-121.636 -51.679  0.00  0.00     0.104 C 
ATOM      4  N   UNL d   1     -41.124-120.924 -51.276  0.00  0.00    -0.191 NA
ATOM      5  N   UNL d   1     -41.619-123.747 -52.082  0.00  0.00    -0.226 NA
ATOM      6  C   UNL d   1     -41.124-122.392 -52.886  0.00  0.00     0.015 A 
ATOM      7  C   UNL d   1     -41.454-123.784 -52.887  0.00  0.00     0.101 A 
ATOM      8  C   UNL d   1     -41.206-123.104 -53.290  0.00  0.00     0.021 A 
ENDROOT
BRANCH   1   9
ATOM      9  N   UNL d   1     -41.702-122.994 -50.872  0.00  0.00    -0.286 N 
ATOM     10  C   UNL d   1     -41.125-123.220 -50.323  0.00  0.00     0.102 A 
ATOM     11  C   UNL d   1     -41.290-123.180 -49.521  0.00  0.00     0.118 A 
ATOM     12  N   UNL d   1     -42.021-122.918 -49.259  0.00  0.00    -0.239 NA
ATOM     13  C   UNL d   1     -42.595-122.693 -49.806  0.00  0.00     0.118 A 
ATOM     14  C   UNL d   1     -42.436-122.731 -50.614  0.00  0.00     0.102 A 
ENDBRANCH   1   9
TORSDOF 1
ENDMDL
MODEL 3
REMARK VINA RESULT:      -3.0      1.797      2.827
REMARK  1 active torsions:
REMARK  status: ('A' for Active; 'I' for Inactive)
REMARK    1  A    between atoms: N_3  and  C_1 
ROOT
ATOM      1  C   UNL d   1     -41.610-122.824 -52.061  0.00  0.00     0.158 A 
ATOM      2  C   UNL d   1     -41.422-122.256 -51.489  0.00  0.00     0.103 A 
ATOM      3  C   UNL d   1     -41.272-121.473 -51.707  0.00  0.00     0.104 C 
ATOM      4  N   UNL d   1     -41.124-120.697 -51.931  0.00  0.00    -0.191 NA
ATOM      5  N   UNL d   1     -41.758-123.604 -51.835  0.00  0.00    -0.226 NA
ATOM      6  C   UNL d   1     -41.383-122.471 -50.693  0.00  0.00     0.015 A 
ATOM      7  C   UNL d   1     -41.719-123.816 -51.041  0.00  0.00     0.101 A 
ATOM      8  C   UNL d   1     -41.531-123.248 -50.468  0.00  0.00     0.021 A 
ENDROOT
BRANCH   1   9
ATOM      9  N   UNL d   1     -41.648-122.610 -52.852  0.00  0.00    -0.286 N 
ATOM     10  C   UNL d   1     -41.123-122.947 -53.396  0.00  0.00     0.102 A 
ATOM     11  C   UNL d   1     -41.161-122.732 -54.186  0.00  0.00     0.118 A 
ATOM     12  N   UNL d   1     -41.716-122.185 -54.441  0.00  0.00    -0.239 NA
ATOM     13  C   UNL d   1     -42.239-121.850 -53.900  0.00  0.00     0.118 A 
ATOM     14  C   UNL d   1     -42.206-122.061 -53.104  0.00  0.00     0.102 A 
ENDBRANCH   1   9
TORSDOF 1
ENDMDL
MODEL 4
REMARK VINA RESULT:      -2.7      3.016      4.340
REMARK  1 active torsions:
REMARK  status: ('A' for Active; 'I' for Inactive)
REMARK    1  A    between atoms: N_3  and  C_1 
ROOT
ATOM      1  C   UNL d   1     -41.807-121.892 -53.347  0.00  0.00     0.158 A 
ATOM      2  C   UNL d   1     -41.405-122.568 -53.090  0.00  0.00     0.103 A 
ATOM      3  C   UNL d   1     -41.264-123.196 -53.608  0.00  0.00     0.104 C 
ATOM      4  N   UNL d   1     -41.126-123.817 -54.129  0.00  0.00    -0.191 NA
ATOM      5  N   UNL d   1     -41.944-121.269 -52.823  0.00  0.00    -0.226 NA
ATOM      6  C   UNL d   1     -41.142-122.619 -52.309  0.00  0.00     0.015 A 
ATOM      7  C   UNL d   1     -41.682-121.321 -52.045  0.00  0.00     0.101 A 
ATOM      8  C   UNL d   1     -41.280-121.998 -51.788  0.00  0.00     0.021 A 
ENDROOT
BRANCH   1   9
ATOM      9  N   UNL d   1     -42.067-121.843 -54.124  0.00  0.00    -0.286 N 
ATOM     10  C   UNL d   1     -41.540-121.621 -54.722  0.00  0.00     0.102 A 
ATOM     11  C   UNL d   1     -41.800-121.573 -55.497  0.00  0.00     0.118 A 
ATOM     12  N   UNL d   1     -42.580-121.743 -55.685  0.00  0.00    -0.239 NA
ATOM     13  C   UNL d   1     -43.105-121.964 -55.090  0.00  0.00     0.118 A 
ATOM     14  C   UNL d   1     -42.850-122.015 -54.308  0.00  0.00     0.102 A 
ENDBRANCH   1   9
TORSDOF 1
ENDMDL
MODEL 5
REMARK VINA RESULT:      -2.4      2.869      4.743
REMARK  1 active torsions:
REMARK  status: ('A' for Active; 'I' for Inactive)
REMARK    1  A    between atoms: N_3  and  C_1 
ROOT
ATOM      1  C   UNL d   1     -41.634-122.415 -54.284  0.00  0.00     0.158 A 
ATOM      2  C   UNL d   1     -42.316-121.974 -54.442  0.00  0.00     0.103 A 
ATOM      3  C   UNL d   1     -42.833-121.766 -53.832  0.00  0.00     0.104 C 
ATOM      4  N   UNL d   1     -43.343-121.563 -53.220  0.00  0.00    -0.191 NA
ATOM      5  N   UNL d   1     -41.123-122.618 -54.900  0.00  0.00    -0.226 NA
ATOM      6  C   UNL d   1     -42.485-121.738 -55.215  0.00  0.00     0.015 A 
ATOM      7  C   UNL d   1     -41.292-122.383 -55.669  0.00  0.00     0.101 A 
ATOM      8  C   UNL d   1     -41.974-121.942 -55.828  0.00  0.00     0.021 A 
ENDROOT
BRANCH   1   9
ATOM      9  N   UNL d   1     -41.468-122.648 -53.515  0.00  0.00    -0.286 N 
ATOM     10  C   UNL d   1     -41.482-123.452 -53.317  0.00  0.00     0.102 A 
ATOM     11  C   UNL d   1     -41.316-123.685 -52.549  0.00  0.00     0.118 A 
ATOM     12  N   UNL d   1     -41.137-123.127 -51.975  0.00  0.00    -0.239 NA
ATOM     13  C   UNL d   1     -41.122-122.327 -52.173  0.00  0.00     0.118 A 
ATOM     14  C   UNL d   1     -41.288-122.086 -52.944  0.00  0.00     0.102 A 
ENDBRANCH   1   9
TORSDOF 1
ENDMDL
MODEL 6
REMARK VINA RESULT:      -1.9      0.954      1.765
REMARK  1 active torsions:
REMARK  status: ('A' for Active; 'I' for Inactive)
REMARK    1  A    between atoms: N_3  and  C_1 
ROOT
ATOM      1  C   UNL d   1     -42.745-123.157 -49.729  0.00  0.00     0.158 A 
ATOM      2  C   UNL d   1     -42.558-123.160 -48.922  0.00  0.00     0.103 A 
ATOM      3  C   UNL d   1     -41.846-122.836 -48.655  0.00  0.00     0.104 C 
ATOM      4  N   UNL d   1     -41.136-122.512 -48.396  0.00  0.00    -0.191 NA
ATOM      5  N   UNL d   1     -43.458-123.483 -49.988  0.00  0.00    -0.226 NA
ATOM      6  C   UNL d   1     -43.084-123.489 -48.378  0.00  0.00     0.015 A 
ATOM      7  C   UNL d   1     -43.981-123.810 -49.444  0.00  0.00     0.101 A 
ATOM      8  C   UNL d   1     -43.794-123.813 -48.638  0.00  0.00     0.021 A 
ENDROOT
BRANCH   1   9
ATOM      9  N   UNL d   1     -42.220-122.830 -50.268  0.00  0.00    -0.286 N 
ATOM     10  C   UNL d   1     -42.269-122.025 -50.454  0.00  0.00     0.102 A 
ATOM     11  C   UNL d   1     -41.745-121.698 -50.993  0.00  0.00     0.118 A 
ATOM     12  N   UNL d   1     -41.172-122.164 -51.349  0.00  0.00    -0.239 NA
ATOM     13  C   UNL d   1     -41.123-122.965 -51.164  0.00  0.00     0.118 A 
ATOM     14  C   UNL d   1     -41.647-123.300 -50.623  0.00  0.00     0.102 A 
ENDBRANCH   1   9
TORSDOF 1
ENDMDL
MODEL 7
REMARK VINA RESULT:      -1.9      1.065      2.672
REMARK  1 active torsions:
REMARK  status: ('A' for Active; 'I' for Inactive)
REMARK    1  A    between atoms: N_3  and  C_1 
ROOT
ATOM      1  C   UNL d   1     -41.744-122.715 -49.654  0.00  0.00     0.158 A 
ATOM      2  C   UNL d   1     -42.382-122.928 -50.136  0.00  0.00     0.103 A 
ATOM      3  C   UNL d   1     -43.008-123.374 -49.832  0.00  0.00     0.104 C 
ATOM      4  N   UNL d   1     -43.627-123.817 -49.524  0.00  0.00    -0.191 NA
ATOM      5  N   UNL d   1     -41.122-122.270 -49.965  0.00  0.00    -0.226 NA
ATOM      6  C   UNL d   1     -42.396-122.694 -50.927  0.00  0.00     0.015 A 
ATOM      7  C   UNL d   1     -41.138-122.037 -50.754  0.00  0.00     0.101 A 
ATOM      8  C   UNL d   1     -41.777-122.250 -51.236  0.00  0.00     0.021 A 
ENDROOT
BRANCH   1   9
ATOM      9  N   UNL d   1     -41.731-122.949 -48.867  0.00  0.00    -0.286 N 
ATOM     10  C   UNL d   1     -41.255-123.585 -48.634  0.00  0.00     0.102 A 
ATOM     11  C   UNL d   1     -41.243-123.817 -47.849  0.00  0.00     0.118 A 
ATOM     12  N   UNL d   1     -41.699-123.425 -47.291  0.00  0.00    -0.239 NA
ATOM     13  C   UNL d   1     -42.172-122.792 -47.523  0.00  0.00     0.118 A 
ATOM     14  C   UNL d   1     -42.190-122.552 -48.312  0.00  0.00     0.102 A 
ENDBRANCH   1   9
TORSDOF 1
ENDMDL
