MODEL 1
REMARK VINA RESULT:      -7.6      0.000      0.000
REMARK  6 active torsions:
REMARK  status: ('A' for Active; 'I' for Inactive)
REMARK    1  A    between atoms: C_10  and  C_3 
REMARK    2  A    between atoms: N_12  and  C_4 
REMARK    3  A    between atoms: N_11  and  C_20 
REMARK    4  A    between atoms: C_25  and  N_12 
REMARK    5  A    between atoms: C_20  and  C_21 
REMARK    6  A    between atoms: C_21  and  C_25 
ROOT
ATOM      1  C   UNL d   1      52.461  33.640  53.354  0.00  0.00     0.168 A 
ATOM      2  N   UNL d   1      51.789  33.545  52.843  0.00  0.00    -0.184 N 
ATOM      3  C   UNL d   1      52.991  33.033  53.443  0.00  0.00     0.057 A 
ATOM      4  C   UNL d   1      51.271  34.157  52.766  0.00  0.00     0.218 A 
ATOM      5  N   UNL d   1      52.223  32.226  52.538  0.00  0.00    -0.160 NA
ATOM      6  N   UNL d   1      52.571  34.340  53.753  0.00  0.00    -0.227 NA
ATOM      7  C   UNL d   1      51.374  34.870  53.165  0.00  0.00     0.071 A 
ATOM      8  C   UNL d   1      52.875  32.318  53.033  0.00  0.00     0.124 A 
ATOM      9  C   UNL d   1      52.036  34.963  53.668  0.00  0.00     0.087 A 
ATOM     10  C   UNL d   1      52.152  35.703  54.089  0.00  0.00     0.021 C 
ENDROOT
BRANCH   4  11
ATOM     11  N   UNL d   1      50.590  34.065  52.250  0.00  0.00    -0.380 NA
BRANCH  11  12
ATOM     12  C   UNL d   1      49.927  34.089  51.705  0.00  0.00     0.164 C 
BRANCH  12  13
ATOM     13  C   UNL d   1      49.214  34.511  51.905  0.00  0.00     0.054 C 
BRANCH  13  14
ATOM     14  C   UNL d   1      48.702  34.824  51.292  0.00  0.00     0.083 C 
BRANCH  14  15
ATOM     15  N   UNL d   1      47.996  35.272  51.516  0.00  0.00    -0.299 N 
ATOM     16  C   UNL d   1      48.047  35.867  52.145  0.00  0.00     0.107 A 
ATOM     17  C   UNL d   1      47.344  36.308  52.364  0.00  0.00     0.142 A 
ATOM     18  O   UNL d   1      46.599  36.164  51.968  0.00  0.00    -0.300 OA
ATOM     19  C   UNL d   1      46.550  35.572  51.344  0.00  0.00     0.142 A 
ATOM     20  C   UNL d   1      47.253  35.122  51.115  0.00  0.00     0.107 A 
ENDBRANCH  14  15
ENDBRANCH  13  14
ENDBRANCH  12  13
ENDBRANCH  11  12
ENDBRANCH   4  11
BRANCH   3  21
ATOM     21  C   UNL d   1      53.644  33.125  53.939  0.00  0.00     0.005 A 
ATOM     22  C   UNL d   1      53.580  32.946  54.731  0.00  0.00     0.001 A 
ATOM     23  C   UNL d   1      54.221  33.037  55.218  0.00  0.00     0.011 A 
ATOM     24  C   UNL d   1      54.938  33.307  54.922  0.00  0.00     0.058 A 
ATOM     25  C   UNL d   1      55.002  33.486  54.129  0.00  0.00     0.011 A 
ATOM     26 CL   UNL d   1      55.621  33.404  55.441  0.00  0.00    -0.082 Cl
ATOM     27  C   UNL d   1      54.350  33.394  53.634  0.00  0.00     0.001 A 
ENDBRANCH   3  21
TORSDOF 6
ENDMDL
MODEL 2
REMARK VINA RESULT:      -7.6      0.887      1.772
REMARK  6 active torsions:
REMARK  status: ('A' for Active; 'I' for Inactive)
REMARK    1  A    between atoms: C_10  and  C_3 
REMARK    2  A    between atoms: N_12  and  C_4 
REMARK    3  A    between atoms: N_11  and  C_20 
REMARK    4  A    between atoms: C_25  and  N_12 
REMARK    5  A    between atoms: C_20  and  C_21 
REMARK    6  A    between atoms: C_21  and  C_25 
ROOT
ATOM      1  C   UNL d   1      52.402  34.094  53.676  0.00  0.00     0.168 A 
ATOM      2  N   UNL d   1      51.679  34.393  53.345  0.00  0.00    -0.184 N 
ATOM      3  C   UNL d   1      52.868  34.575  54.134  0.00  0.00     0.057 A 
ATOM      4  C   UNL d   1      51.227  33.903  52.893  0.00  0.00     0.218 A 
ATOM      5  N   UNL d   1      51.935  35.651  53.956  0.00  0.00    -0.160 NA
ATOM      6  N   UNL d   1      52.625  33.324  53.533  0.00  0.00    -0.227 NA
ATOM      7  C   UNL d   1      51.445  33.123  52.743  0.00  0.00     0.071 A 
ATOM      8  C   UNL d   1      52.636  35.361  54.277  0.00  0.00     0.124 A 
ATOM      9  C   UNL d   1      52.157  32.828  53.069  0.00  0.00     0.087 A 
ATOM     10  C   UNL d   1      52.392  32.015  52.918  0.00  0.00     0.021 C 
ENDROOT
BRANCH   4  11
ATOM     11  N   UNL d   1      50.496  34.202  52.556  0.00  0.00    -0.380 NA
BRANCH  11  12
ATOM     12  C   UNL d   1      49.794  34.437  52.120  0.00  0.00     0.164 C 
BRANCH  12  13
ATOM     13  C   UNL d   1      49.189  34.909  52.491  0.00  0.00     0.054 C 
BRANCH  13  14
ATOM     14  C   UNL d   1      48.561  35.263  52.026  0.00  0.00     0.083 C 
BRANCH  14  15
ATOM     15  N   UNL d   1      47.962  35.747  52.421  0.00  0.00    -0.299 N 
ATOM     16  C   UNL d   1      47.223  35.936  52.009  0.00  0.00     0.107 A 
ATOM     17  C   UNL d   1      46.632  36.417  52.404  0.00  0.00     0.142 A 
ATOM     18  O   UNL d   1      46.768  36.708  53.198  0.00  0.00    -0.300 OA
ATOM     19  C   UNL d   1      47.503  36.520  53.605  0.00  0.00     0.142 A 
ATOM     20  C   UNL d   1      48.106  36.036  53.216  0.00  0.00     0.107 A 
ENDBRANCH  14  15
ENDBRANCH  13  14
ENDBRANCH  12  13
ENDBRANCH  11  12
ENDBRANCH   4  11
BRANCH   3  21
ATOM     21  C   UNL d   1      53.570  34.284  54.455  0.00  0.00     0.005 A 
ATOM     22  C   UNL d   1      54.265  34.352  54.038  0.00  0.00     0.001 A 
ATOM     23  C   UNL d   1      54.955  34.067  54.355  0.00  0.00     0.011 A 
ATOM     24  C   UNL d   1      54.961  33.709  55.093  0.00  0.00     0.058 A 
ATOM     25  C   UNL d   1      54.264  33.640  55.511  0.00  0.00     0.011 A 
ATOM     26 CL   UNL d   1      55.695  33.405  55.430  0.00  0.00    -0.082 Cl
ATOM     27  C   UNL d   1      53.563  33.930  55.189  0.00  0.00     0.001 A 
ENDBRANCH   3  21
TORSDOF 6
ENDMDL
MODEL 3
REMARK VINA RESULT:      -7.0      2.987      6.528
REMARK  6 active torsions:
REMARK  status: ('A' for Active; 'I' for Inactive)
REMARK    1  A    between atoms: C_10  and  C_3 
REMARK    2  A    between atoms: N_12  and  C_4 
REMARK    3  A    between atoms: N_11  and  C_20 
REMARK    4  A    between atoms: C_25  and  N_12 
REMARK    5  A    between atoms: C_20  and  C_21 
REMARK    6  A    between atoms: C_21  and  C_25 
ROOT
ATOM      1  C   UNL d   1      48.455  35.389  52.573  0.00  0.00     0.168 A 
ATOM      2  N   UNL d   1      49.218  35.244  52.917  0.00  0.00    -0.184 N 
ATOM      3  C   UNL d   1      47.913  35.845  52.967  0.00  0.00     0.057 A 
ATOM      4  C   UNL d   1      49.746  34.788  52.512  0.00  0.00     0.218 A 
ATOM      5  N   UNL d   1      48.847  36.031  54.041  0.00  0.00    -0.160 NA
ATOM      6  N   UNL d   1      48.269  35.068  51.848  0.00  0.00    -0.227 NA
ATOM      7  C   UNL d   1      49.567  34.460  51.779  0.00  0.00     0.071 A 
ATOM      8  C   UNL d   1      48.107  36.171  53.708  0.00  0.00     0.124 A 
ATOM      9  C   UNL d   1      48.815  34.602  51.440  0.00  0.00     0.087 A 
ATOM     10  C   UNL d   1      48.620  34.263  50.675  0.00  0.00     0.021 C 
ENDROOT
BRANCH   4  11
ATOM     11  N   UNL d   1      50.519  34.640  52.856  0.00  0.00    -0.380 NA
BRANCH  11  12
ATOM     12  C   UNL d   1      51.334  34.567  53.116  0.00  0.00     0.164 C 
BRANCH  12  13
ATOM     13  C   UNL d   1      51.680  33.801  53.252  0.00  0.00     0.054 C 
BRANCH  13  14
ATOM     14  C   UNL d   1      52.529  33.686  53.195  0.00  0.00     0.083 C 
BRANCH  14  15
ATOM     15  N   UNL d   1      52.867  32.913  53.390  0.00  0.00    -0.299 N 
ATOM     16  C   UNL d   1      52.664  32.221  52.908  0.00  0.00     0.107 A 
ATOM     17  C   UNL d   1      53.000  31.458  53.105  0.00  0.00     0.142 A 
ATOM     18  O   UNL d   1      53.532  31.375  53.771  0.00  0.00    -0.300 OA
ATOM     19  C   UNL d   1      53.733  32.063  54.249  0.00  0.00     0.142 A 
ATOM     20  C   UNL d   1      53.398  32.839  54.059  0.00  0.00     0.107 A 
ENDBRANCH  14  15
ENDBRANCH  13  14
ENDBRANCH  12  13
ENDBRANCH  11  12
ENDBRANCH   4  11
BRANCH   3  21
ATOM     21  C   UNL d   1      47.172  35.986  52.634  0.00  0.00     0.005 A 
ATOM     22  C   UNL d   1      46.529  35.550  52.878  0.00  0.00     0.001 A 
ATOM     23  C   UNL d   1      45.800  35.688  52.550  0.00  0.00     0.011 A 
ATOM     24  C   UNL d   1      45.702  36.264  51.973  0.00  0.00     0.058 A 
ATOM     25  C   UNL d   1      46.347  36.700  51.729  0.00  0.00     0.011 A 
ATOM     26 CL   UNL d   1      44.927  36.411  51.624  0.00  0.00    -0.082 Cl
ATOM     27  C   UNL d   1      47.087  36.560  52.062  0.00  0.00     0.001 A 
ENDBRANCH   3  21
TORSDOF 6
ENDMDL
MODEL 4
REMARK VINA RESULT:      -5.5      2.028      2.996
REMARK  6 active torsions:
REMARK  status: ('A' for Active; 'I' for Inactive)
REMARK    1  A    between atoms: C_10  and  C_3 
REMARK    2  A    between atoms: N_12  and  C_4 
REMARK    3  A    between atoms: N_11  and  C_20 
REMARK    4  A    between atoms: C_25  and  N_12 
REMARK    5  A    between atoms: C_20  and  C_21 
REMARK    6  A    between atoms: C_21  and  C_25 
ROOT
ATOM      1  C   UNL d   1      53.065  31.676  53.684  0.00  0.00     0.168 A 
ATOM      2  N   UNL d   1      52.762  32.375  53.308  0.00  0.00    -0.184 N 
ATOM      3  C   UNL d   1      52.885  30.945  53.385  0.00  0.00     0.057 A 
ATOM      4  C   UNL d   1      52.950  33.095  53.618  0.00  0.00     0.218 A 
ATOM      5  N   UNL d   1      52.110  31.558  52.344  0.00  0.00    -0.160 NA
ATOM      6  N   UNL d   1      53.535  31.743  54.345  0.00  0.00    -0.227 NA
ATOM      7  C   UNL d   1      53.425  33.173  54.286  0.00  0.00     0.071 A 
ATOM      8  C   UNL d   1      52.403  30.880  52.709  0.00  0.00     0.124 A 
ATOM      9  C   UNL d   1      53.723  32.484  54.656  0.00  0.00     0.087 A 
ATOM     10  C   UNL d   1      54.219  32.556  55.354  0.00  0.00     0.021 C 
ENDROOT
BRANCH   4  11
ATOM     11  N   UNL d   1      52.646  33.804  53.240  0.00  0.00    -0.380 NA
BRANCH  11  12
ATOM     12  C   UNL d   1      52.250  34.506  52.942  0.00  0.00     0.164 C 
BRANCH  12  13
ATOM     13  C   UNL d   1      51.488  34.450  52.566  0.00  0.00     0.054 C 
BRANCH  13  14
ATOM     14  C   UNL d   1      50.784  34.747  52.955  0.00  0.00     0.083 C 
BRANCH  14  15
ATOM     15  N   UNL d   1      50.036  34.770  52.520  0.00  0.00    -0.299 N 
ATOM     16  C   UNL d   1      49.343  35.150  52.877  0.00  0.00     0.107 A 
ATOM     17  C   UNL d   1      48.603  35.170  52.442  0.00  0.00     0.142 A 
ATOM     18  O   UNL d   1      48.548  34.819  51.662  0.00  0.00    -0.300 OA
ATOM     19  C   UNL d   1      49.237  34.442  51.310  0.00  0.00     0.142 A 
ATOM     20  C   UNL d   1      49.988  34.417  51.740  0.00  0.00     0.107 A 
ENDBRANCH  14  15
ENDBRANCH  13  14
ENDBRANCH  12  13
ENDBRANCH  11  12
ENDBRANCH   4  11
BRANCH   3  21
ATOM     21  C   UNL d   1      53.178  30.266  53.750  0.00  0.00     0.005 A 
ATOM     22  C   UNL d   1      53.892  29.954  53.512  0.00  0.00     0.001 A 
ATOM     23  C   UNL d   1      54.181  29.287  53.871  0.00  0.00     0.011 A 
ATOM     24  C   UNL d   1      53.761  28.921  54.474  0.00  0.00     0.058 A 
ATOM     25  C   UNL d   1      53.046  29.233  54.712  0.00  0.00     0.011 A 
ATOM     26 CL   UNL d   1      54.068  28.210  54.856  0.00  0.00    -0.082 Cl
ATOM     27  C   UNL d   1      52.753  29.911  54.348  0.00  0.00     0.001 A 
ENDBRANCH   3  21
TORSDOF 6
ENDMDL
MODEL 5
REMARK VINA RESULT:      -5.3      1.571      2.007
REMARK  6 active torsions:
REMARK  status: ('A' for Active; 'I' for Inactive)
REMARK    1  A    between atoms: C_10  and  C_3 
REMARK    2  A    between atoms: N_12  and  C_4 
REMARK    3  A    between atoms: N_11  and  C_20 
REMARK    4  A    between atoms: C_25  and  N_12 
REMARK    5  A    between atoms: C_20  and  C_21 
REMARK    6  A    between atoms: C_21  and  C_25 
ROOT
ATOM      1  C   UNL d   1      51.651  33.369  53.223  0.00  0.00     0.168 A 
ATOM      2  N   UNL d   1      50.873  33.696  53.127  0.00  0.00    -0.184 N 
ATOM      3  C   UNL d   1      51.748  32.568  53.295  0.00  0.00     0.057 A 
ATOM      4  C   UNL d   1      50.793  34.495  53.056  0.00  0.00     0.218 A 
ATOM      5  N   UNL d   1      50.329  32.383  53.182  0.00  0.00    -0.160 NA
ATOM      6  N   UNL d   1      52.298  33.863  53.242  0.00  0.00    -0.227 NA
ATOM      7  C   UNL d   1      51.442  35.002  53.074  0.00  0.00     0.071 A 
ATOM      8  C   UNL d   1      51.084  32.066  53.275  0.00  0.00     0.124 A 
ATOM      9  C   UNL d   1      52.209  34.680  53.169  0.00  0.00     0.087 A 
ATOM     10  C   UNL d   1      52.891  35.201  53.189  0.00  0.00     0.021 C 
ENDROOT
BRANCH   4  11
ATOM     11  N   UNL d   1      50.008  34.829  52.958  0.00  0.00    -0.380 NA
BRANCH  11  12
ATOM     12  C   UNL d   1      49.243  35.155  52.742  0.00  0.00     0.164 C 
BRANCH  12  13
ATOM     13  C   UNL d   1      48.739  35.508  53.330  0.00  0.00     0.054 C 
BRANCH  13  14
ATOM     14  C   UNL d   1      48.080  36.008  53.101  0.00  0.00     0.083 C 
BRANCH  14  15
ATOM     15  N   UNL d   1      47.448  36.165  53.671  0.00  0.00    -0.299 N 
ATOM     16  C   UNL d   1      46.634  35.929  53.485  0.00  0.00     0.107 A 
ATOM     17  C   UNL d   1      46.011  36.087  54.053  0.00  0.00     0.142 A 
ATOM     18  O   UNL d   1      46.187  36.474  54.797  0.00  0.00    -0.300 OA
ATOM     19  C   UNL d   1      46.996  36.708  54.979  0.00  0.00     0.142 A 
ATOM     20  C   UNL d   1      47.632  36.553  54.413  0.00  0.00     0.107 A 
ENDBRANCH  14  15
ENDBRANCH  13  14
ENDBRANCH  12  13
ENDBRANCH  11  12
ENDBRANCH   4  11
BRANCH   3  21
ATOM     21  C   UNL d   1      52.504  32.250  53.389  0.00  0.00     0.005 A 
ATOM     22  C   UNL d   1      52.869  32.282  54.115  0.00  0.00     0.001 A 
ATOM     23  C   UNL d   1      53.612  31.970  54.207  0.00  0.00     0.011 A 
ATOM     24  C   UNL d   1      54.001  31.621  53.574  0.00  0.00     0.058 A 
ATOM     25  C   UNL d   1      53.635  31.590  52.847  0.00  0.00     0.011 A 
ATOM     26 CL   UNL d   1      54.792  31.289  53.672  0.00  0.00    -0.082 Cl
ATOM     27  C   UNL d   1      52.880  31.907  52.753  0.00  0.00     0.001 A 
ENDBRANCH   3  21
TORSDOF 6
ENDMDL
MODEL 6
REMARK VINA RESULT:      -4.8     11.691     12.385
REMARK  6 active torsions:
REMARK  status: ('A' for Active; 'I' for Inactive)
REMARK    1  A    between atoms: C_10  and  C_3 
REMARK    2  A    between atoms: N_12  and  C_4 
REMARK    3  A    between atoms: N_11  and  C_20 
REMARK    4  A    between atoms: C_25  and  N_12 
REMARK    5  A    between atoms: C_20  and  C_21 
REMARK    6  A    between atoms: C_21  and  C_25 
ROOT
ATOM      1  C   UNL d   1      44.724  24.512  56.924  0.00  0.00     0.168 A 
ATOM      2  N   UNL d   1      44.647  25.232  57.368  0.00  0.00    -0.184 N 
ATOM      3  C   UNL d   1      44.833  24.540  56.122  0.00  0.00     0.057 A 
ATOM      4  C   UNL d   1      44.538  25.188  58.165  0.00  0.00     0.218 A 
ATOM      5  N   UNL d   1      44.795  25.974  56.164  0.00  0.00    -0.160 NA
ATOM      6  N   UNL d   1      44.687  23.794  57.307  0.00  0.00    -0.227 NA
ATOM      7  C   UNL d   1      44.500  24.467  58.561  0.00  0.00     0.071 A 
ATOM      8  C   UNL d   1      44.870  25.276  55.734  0.00  0.00     0.124 A 
ATOM      9  C   UNL d   1      44.576  23.757  58.124  0.00  0.00     0.087 A 
ATOM     10  C   UNL d   1      44.537  23.000  58.529  0.00  0.00     0.021 C 
ENDROOT
BRANCH   4  11
ATOM     11  N   UNL d   1      44.460  25.914  58.617  0.00  0.00    -0.380 NA
BRANCH  11  12
ATOM     12  C   UNL d   1      44.386  26.569  59.167  0.00  0.00     0.164 C 
BRANCH  12  13
ATOM     13  C   UNL d   1      44.587  27.362  58.929  0.00  0.00     0.054 C 
BRANCH  13  14
ATOM     14  C   UNL d   1      44.455  28.026  59.457  0.00  0.00     0.083 C 
BRANCH  14  15
ATOM     15  N   UNL d   1      44.709  28.817  59.215  0.00  0.00    -0.299 N 
ATOM     16  C   UNL d   1      44.839  29.429  59.816  0.00  0.00     0.107 A 
ATOM     17  C   UNL d   1      45.091  30.212  59.572  0.00  0.00     0.142 A 
ATOM     18  O   UNL d   1      45.213  30.391  58.744  0.00  0.00    -0.300 OA
ATOM     19  C   UNL d   1      45.083  29.782  58.148  0.00  0.00     0.142 A 
ATOM     20  C   UNL d   1      44.829  28.989  58.384  0.00  0.00     0.107 A 
ENDBRANCH  14  15
ENDBRANCH  13  14
ENDBRANCH  12  13
ENDBRANCH  11  12
ENDBRANCH   4  11
BRANCH   3  21
ATOM     21  C   UNL d   1      44.907  23.840  55.691  0.00  0.00     0.005 A 
ATOM     22  C   UNL d   1      44.315  23.614  55.181  0.00  0.00     0.001 A 
ATOM     23  C   UNL d   1      44.388  22.926  54.757  0.00  0.00     0.011 A 
ATOM     24  C   UNL d   1      45.055  22.454  54.837  0.00  0.00     0.058 A 
ATOM     25  C   UNL d   1      45.648  22.681  55.348  0.00  0.00     0.011 A 
ATOM     26 CL   UNL d   1      45.133  21.722  54.386  0.00  0.00    -0.082 Cl
ATOM     27  C   UNL d   1      45.574  23.380  55.779  0.00  0.00     0.001 A 
ENDBRANCH   3  21
TORSDOF 6
ENDMDL
