MODEL 1
REMARK VINA RESULT:      -5.4      0.000      0.000
REMARK  1 active torsions:
REMARK  status: ('A' for Active; 'I' for Inactive)
REMARK    1  A    between atoms: C_6  and  C_1 
REMARK       I    between atoms: N_9  and  C_6 
ROOT
ATOM      1  C   UNL d   1     -41.629-122.726 -50.497  0.00  0.00     0.107 A 
ATOM      2  C   UNL d   1     -41.642-122.361 -51.779  0.00  0.00     0.044 A 
ATOM      3  S   UNL d   1     -41.482-123.394 -50.956  0.00  0.00    -0.061 SA
ATOM      4  C   UNL d   1     -41.490-123.168 -51.748  0.00  0.00     0.112 A 
ATOM      5  C   UNL d   1     -41.728-122.086 -51.013  0.00  0.00     0.116 A 
ATOM      6  N   UNL d   1     -41.378-123.594 -52.455  0.00  0.00    -0.239 NA
ATOM      7  C   UNL d   1     -41.683-121.975 -52.509  0.00  0.00     0.005 A 
ATOM      8  C   UNL d   1     -41.419-123.207 -53.177  0.00  0.00     0.082 A 
ATOM      9  C   UNL d   1     -41.572-122.395 -53.197  0.00  0.00     0.018 A 
ATOM     10  N   UNL d   1     -41.882-121.324 -50.788  0.00  0.00    -0.147 N 
ATOM     11  C   UNL d   1     -41.283-123.793 -53.743  0.00  0.00     0.019 A 
ATOM     12  C   UNL d   1     -41.654-121.826 -53.796  0.00  0.00     0.002 A 
ATOM     13  C   UNL d   1     -41.245-123.804 -54.569  0.00  0.00     0.002 A 
ATOM     14  C   UNL d   1     -41.613-121.846 -54.630  0.00  0.00     0.000 A 
ATOM     15  C   UNL d   1     -41.477-122.432 -55.195  0.00  0.00     0.000 A 
ATOM     16  C   UNL d   1     -41.325-123.244 -55.168  0.00  0.00     0.000 A 
ENDROOT
BRANCH   1  17
ATOM     17  C   UNL d   1     -41.669-122.703 -49.697  0.00  0.00     0.272 C 
ATOM     18  N   UNL d   1     -42.250-123.093 -49.319  0.00  0.00    -0.272 N 
ATOM     19  C   UNL d   1     -42.831-123.529 -49.650  0.00  0.00     0.083 A 
ATOM     20  C   UNL d   1     -42.354-123.115 -48.517  0.00  0.00     0.083 A 
ATOM     21  C   UNL d   1     -43.288-123.818 -49.068  0.00  0.00     0.021 A 
ATOM     22  C   UNL d   1     -43.001-123.568 -48.373  0.00  0.00     0.021 A 
ATOM     23  O   UNL d   1     -41.123-122.286 -49.284  0.00  0.00    -0.266 OA
ENDBRANCH   1  17
TORSDOF 1
ENDMDL
MODEL 2
REMARK VINA RESULT:      -4.7      1.182      4.523
REMARK  1 active torsions:
REMARK  status: ('A' for Active; 'I' for Inactive)
REMARK    1  A    between atoms: C_6  and  C_1 
REMARK       I    between atoms: N_9  and  C_6 
ROOT
ATOM      1  C   UNL d   1     -41.667-122.298 -51.883  0.00  0.00     0.107 A 
ATOM      2  C   UNL d   1     -42.171-122.450 -50.659  0.00  0.00     0.044 A 
ATOM      3  S   UNL d   1     -41.124-122.722 -51.433  0.00  0.00    -0.061 SA
ATOM      4  C   UNL d   1     -41.435-122.816 -50.677  0.00  0.00     0.112 A 
ATOM      5  C   UNL d   1     -42.317-122.131 -51.399  0.00  0.00     0.116 A 
ATOM      6  N   UNL d   1     -41.145-123.190 -49.991  0.00  0.00    -0.239 NA
ATOM      7  C   UNL d   1     -42.620-122.453 -49.964  0.00  0.00     0.005 A 
ATOM      8  C   UNL d   1     -41.593-123.191 -49.304  0.00  0.00     0.082 A 
ATOM      9  C   UNL d   1     -42.331-122.820 -49.298  0.00  0.00     0.018 A 
ATOM     10  N   UNL d   1     -42.976-121.722 -51.626  0.00  0.00    -0.147 N 
ATOM     11  C   UNL d   1     -41.139-123.604 -48.751  0.00  0.00     0.019 A 
ATOM     12  C   UNL d   1     -42.928-122.707 -48.731  0.00  0.00     0.002 A 
ATOM     13  C   UNL d   1     -41.240-123.816 -47.959  0.00  0.00     0.002 A 
ATOM     14  C   UNL d   1     -43.023-122.925 -47.931  0.00  0.00     0.000 A 
ATOM     15  C   UNL d   1     -42.568-123.337 -47.379  0.00  0.00     0.000 A 
ATOM     16  C   UNL d   1     -41.829-123.706 -47.393  0.00  0.00     0.000 A 
ENDROOT
BRANCH   1  17
ATOM     17  C   UNL d   1     -41.580-122.087 -52.652  0.00  0.00     0.272 C 
ATOM     18  N   UNL d   1     -41.505-122.650 -53.210  0.00  0.00    -0.272 N 
ATOM     19  C   UNL d   1     -41.504-123.440 -53.098  0.00  0.00     0.083 A 
ATOM     20  C   UNL d   1     -41.413-122.514 -54.003  0.00  0.00     0.083 A 
ATOM     21  C   UNL d   1     -41.414-123.791 -53.806  0.00  0.00     0.021 A 
ATOM     22  C   UNL d   1     -41.359-123.229 -54.362  0.00  0.00     0.021 A 
ATOM     23  O   UNL d   1     -41.570-121.311 -52.853  0.00  0.00    -0.266 OA
ENDBRANCH   1  17
TORSDOF 1
ENDMDL
