MODEL 1
REMARK VINA RESULT:      -6.4      0.000      0.000
REMARK  6 active torsions:
REMARK  status: ('A' for Active; 'I' for Inactive)
REMARK    1  A    between atoms: C_7  and  C_1 
REMARK    2  A    between atoms: C_6  and  C_2 
REMARK       I    between atoms: N_9  and  C_6 
REMARK    3  A    between atoms: O_16  and  C_7 
REMARK       I    between atoms: C_8  and  N_10 
REMARK    4  A    between atoms: C_14  and  C_8 
REMARK    5  A    between atoms: N_10  and  N_9 
REMARK    6  A    between atoms: C_20  and  O_16 
ROOT
ATOM      1  C   UNL d   1     -38.829  13.967  17.051  0.00  0.00     0.083 A 
ATOM      2  C   UNL d   1     -39.766  13.929  17.992  0.00  0.00     0.141 A 
ATOM      3  C   UNL d   1     -39.492  14.358  17.344  0.00  0.00     0.029 A 
ATOM      4  N   UNL d   1     -39.282  13.283  18.098  0.00  0.00    -0.240 NA
ATOM      5  C   UNL d   1     -38.694  13.296  17.517  0.00  0.00     0.087 A 
ATOM      6  C   UNL d   1     -39.818  15.054  17.040  0.00  0.00     0.002 C 
ATOM      7  C   UNL d   1     -38.095  12.751  17.424  0.00  0.00     0.021 C 
ENDROOT
BRANCH   2   8
ATOM      8  C   UNL d   1     -40.427  14.127  18.455  0.00  0.00     0.314 C 
ATOM      9  N   UNL d   1     -40.325  14.398  19.223  0.00  0.00    -0.101 NA
ATOM     10  O   UNL d   1     -41.186  14.051  18.142  0.00  0.00    -0.262 OA
BRANCH   9  11
ATOM     11  N   UNL d   1     -40.979  14.596  19.685  0.00  0.00    -0.102 NA
ATOM     12  C   UNL d   1     -40.882  14.836  20.467  0.00  0.00     0.297 C 
ATOM     13  O   UNL d   1     -41.545  15.032  20.921  0.00  0.00    -0.264 OA
BRANCH  12  14
ATOM     14  C   UNL d   1     -40.127  14.878  20.787  0.00  0.00     0.059 A 
ATOM     15  C   UNL d   1     -39.710  15.591  20.738  0.00  0.00     0.005 A 
ATOM     16  C   UNL d   1     -38.945  15.639  21.060  0.00  0.00     0.000 A 
ATOM     17  C   UNL d   1     -38.616  14.974  21.422  0.00  0.00     0.000 A 
ATOM     18  C   UNL d   1     -39.034  14.270  21.467  0.00  0.00     0.000 A 
ATOM     19  C   UNL d   1     -39.795  14.222  21.147  0.00  0.00     0.005 A 
ENDBRANCH  12  14
ENDBRANCH   9  11
ENDBRANCH   2   8
BRANCH   1  20
ATOM     20  C   UNL d   1     -38.373  14.202  16.401  0.00  0.00     0.302 C 
ATOM     21  O   UNL d   1     -37.940  14.903  16.434  0.00  0.00    -0.259 OA
BRANCH  20  22
ATOM     22  O   UNL d   1     -38.352  13.734  15.717  0.00  0.00    -0.271 OA
BRANCH  22  23
ATOM     23  C   UNL d   1     -37.968  14.006  15.054  0.00  0.00     0.126 C 
ATOM     24  C   UNL d   1     -37.984  13.567  14.354  0.00  0.00     0.029 C 
ENDBRANCH  22  23
ENDBRANCH  20  22
ENDBRANCH   1  20
TORSDOF 6
ENDMDL
MODEL 2
REMARK VINA RESULT:      -6.3      7.896     10.053
REMARK  6 active torsions:
REMARK  status: ('A' for Active; 'I' for Inactive)
REMARK    1  A    between atoms: C_7  and  C_1 
REMARK    2  A    between atoms: C_6  and  C_2 
REMARK       I    between atoms: N_9  and  C_6 
REMARK    3  A    between atoms: O_16  and  C_7 
REMARK       I    between atoms: C_8  and  N_10 
REMARK    4  A    between atoms: C_14  and  C_8 
REMARK    5  A    between atoms: N_10  and  N_9 
REMARK    6  A    between atoms: C_20  and  O_16 
ROOT
ATOM      1  C   UNL d   1     -46.465  13.063  22.919  0.00  0.00     0.083 A 
ATOM      2  C   UNL d   1     -47.554  13.825  22.929  0.00  0.00     0.141 A 
ATOM      3  C   UNL d   1     -46.738  13.833  22.810  0.00  0.00     0.029 A 
ATOM      4  N   UNL d   1     -47.782  13.064  23.109  0.00  0.00    -0.240 NA
ATOM      5  C   UNL d   1     -47.112  12.580  23.106  0.00  0.00     0.087 A 
ATOM      6  C   UNL d   1     -46.274  14.488  22.616  0.00  0.00     0.002 C 
ATOM      7  C   UNL d   1     -47.093  11.779  23.258  0.00  0.00     0.021 C 
ENDROOT
BRANCH   2   8
ATOM      8  C   UNL d   1     -48.054  14.486  22.874  0.00  0.00     0.314 C 
ATOM      9  N   UNL d   1     -48.853  14.385  22.720  0.00  0.00    -0.101 NA
ATOM     10  O   UNL d   1     -47.746  15.244  22.973  0.00  0.00    -0.262 OA
BRANCH   9  11
ATOM     11  N   UNL d   1     -49.353  15.040  22.664  0.00  0.00    -0.102 NA
ATOM     12  C   UNL d   1     -50.155  14.943  22.501  0.00  0.00     0.297 C 
ATOM     13  O   UNL d   1     -50.645  15.606  22.448  0.00  0.00    -0.264 OA
BRANCH  12  14
ATOM     14  C   UNL d   1     -50.457  14.187  22.394  0.00  0.00     0.059 A 
ATOM     15  C   UNL d   1     -50.756  13.778  23.048  0.00  0.00     0.005 A 
ATOM     16  C   UNL d   1     -51.063  13.012  22.945  0.00  0.00     0.000 A 
ATOM     17  C   UNL d   1     -51.063  12.674  22.192  0.00  0.00     0.000 A 
ATOM     18  C   UNL d   1     -50.765  13.085  21.548  0.00  0.00     0.000 A 
ATOM     19  C   UNL d   1     -50.460  13.846  21.649  0.00  0.00     0.005 A 
ENDBRANCH  12  14
ENDBRANCH   9  11
ENDBRANCH   2   8
BRANCH   1  20
ATOM     20  C   UNL d   1     -45.679  12.812  22.854  0.00  0.00     0.302 C 
ATOM     21  O   UNL d   1     -45.327  12.397  23.475  0.00  0.00    -0.259 OA
BRANCH  20  22
ATOM     22  O   UNL d   1     -45.245  12.976  22.167  0.00  0.00    -0.271 OA
BRANCH  22  23
ATOM     23  C   UNL d   1     -44.520  12.625  22.054  0.00  0.00     0.126 C 
ATOM     24  C   UNL d   1     -44.036  12.861  21.429  0.00  0.00     0.029 C 
ENDBRANCH  22  23
ENDBRANCH  20  22
ENDBRANCH   1  20
TORSDOF 6
ENDMDL
MODEL 3
REMARK VINA RESULT:      -6.2      8.059     10.139
REMARK  6 active torsions:
REMARK  status: ('A' for Active; 'I' for Inactive)
REMARK    1  A    between atoms: C_7  and  C_1 
REMARK    2  A    between atoms: C_6  and  C_2 
REMARK       I    between atoms: N_9  and  C_6 
REMARK    3  A    between atoms: O_16  and  C_7 
REMARK       I    between atoms: C_8  and  N_10 
REMARK    4  A    between atoms: C_14  and  C_8 
REMARK    5  A    between atoms: N_10  and  N_9 
REMARK    6  A    between atoms: C_20  and  O_16 
ROOT
ATOM      1  C   UNL d   1     -46.225  12.505  23.050  0.00  0.00     0.083 A 
ATOM      2  C   UNL d   1     -47.503  12.244  23.302  0.00  0.00     0.141 A 
ATOM      3  C   UNL d   1     -46.779  11.898  23.118  0.00  0.00     0.029 A 
ATOM      4  N   UNL d   1     -47.401  13.051  23.347  0.00  0.00    -0.240 NA
ATOM      5  C   UNL d   1     -46.608  13.225  23.192  0.00  0.00     0.087 A 
ATOM      6  C   UNL d   1     -46.628  11.091  23.018  0.00  0.00     0.002 C 
ATOM      7  C   UNL d   1     -46.269  13.967  23.182  0.00  0.00     0.021 C 
ENDROOT
BRANCH   2   8
ATOM      8  C   UNL d   1     -48.216  11.833  23.420  0.00  0.00     0.314 C 
ATOM      9  N   UNL d   1     -48.933  12.199  23.261  0.00  0.00    -0.101 NA
ATOM     10  O   UNL d   1     -48.202  11.057  23.697  0.00  0.00    -0.262 OA
BRANCH   9  11
ATOM     11  N   UNL d   1     -49.643  11.794  23.377  0.00  0.00    -0.102 NA
ATOM     12  C   UNL d   1     -50.360  12.132  23.154  0.00  0.00     0.297 C 
ATOM     13  O   UNL d   1     -51.064  11.717  23.276  0.00  0.00    -0.264 OA
BRANCH  12  14
ATOM     14  C   UNL d   1     -50.366  12.879  22.814  0.00  0.00     0.059 A 
ATOM     15  C   UNL d   1     -50.435  13.543  23.305  0.00  0.00     0.005 A 
ATOM     16  C   UNL d   1     -50.441  14.302  22.965  0.00  0.00     0.000 A 
ATOM     17  C   UNL d   1     -50.379  14.379  22.146  0.00  0.00     0.000 A 
ATOM     18  C   UNL d   1     -50.311  13.718  21.665  0.00  0.00     0.000 A 
ATOM     19  C   UNL d   1     -50.305  12.963  22.002  0.00  0.00     0.005 A 
ENDBRANCH  12  14
ENDBRANCH   9  11
ENDBRANCH   2   8
BRANCH   1  20
ATOM     20  C   UNL d   1     -45.422  12.413  22.870  0.00  0.00     0.302 C 
ATOM     21  O   UNL d   1     -44.939  11.962  23.364  0.00  0.00    -0.259 OA
BRANCH  20  22
ATOM     22  O   UNL d   1     -45.103  12.773  22.196  0.00  0.00    -0.271 OA
BRANCH  22  23
ATOM     23  C   UNL d   1     -44.366  12.553  21.931  0.00  0.00     0.126 C 
ATOM     24  C   UNL d   1     -43.971  13.013  21.371  0.00  0.00     0.029 C 
ENDBRANCH  22  23
ENDBRANCH  20  22
ENDBRANCH   1  20
TORSDOF 6
ENDMDL
MODEL 4
REMARK VINA RESULT:      -6.2      1.513      4.485
REMARK  6 active torsions:
REMARK  status: ('A' for Active; 'I' for Inactive)
REMARK    1  A    between atoms: C_7  and  C_1 
REMARK    2  A    between atoms: C_6  and  C_2 
REMARK       I    between atoms: N_9  and  C_6 
REMARK    3  A    between atoms: O_16  and  C_7 
REMARK       I    between atoms: C_8  and  N_10 
REMARK    4  A    between atoms: C_14  and  C_8 
REMARK    5  A    between atoms: N_10  and  N_9 
REMARK    6  A    between atoms: C_20  and  O_16 
ROOT
ATOM      1  C   UNL d   1     -39.242  15.108  21.214  0.00  0.00     0.083 A 
ATOM      2  C   UNL d   1     -39.864  15.498  20.107  0.00  0.00     0.141 A 
ATOM      3  C   UNL d   1     -39.927  15.009  20.767  0.00  0.00     0.029 A 
ATOM      4  N   UNL d   1     -39.153  15.894  20.145  0.00  0.00    -0.240 NA
ATOM      5  C   UNL d   1     -38.756  15.659  20.831  0.00  0.00     0.087 A 
ATOM      6  C   UNL d   1     -40.558  14.508  20.952  0.00  0.00     0.002 C 
ATOM      7  C   UNL d   1     -38.026  15.920  21.081  0.00  0.00     0.021 C 
ENDROOT
BRANCH   2   8
ATOM      8  C   UNL d   1     -40.434  15.572  19.507  0.00  0.00     0.314 C 
ATOM      9  N   UNL d   1     -40.271  15.301  18.750  0.00  0.00    -0.101 NA
ATOM     10  O   UNL d   1     -41.164  15.917  19.673  0.00  0.00    -0.262 OA
BRANCH   9  11
ATOM     11  N   UNL d   1     -40.835  15.372  18.151  0.00  0.00    -0.102 NA
ATOM     12  C   UNL d   1     -40.681  15.086  17.394  0.00  0.00     0.297 C 
ATOM     13  O   UNL d   1     -41.254  15.163  16.803  0.00  0.00    -0.264 OA
BRANCH  12  14
ATOM     14  C   UNL d   1     -39.960  14.728  17.236  0.00  0.00     0.059 A 
ATOM     15  C   UNL d   1     -39.350  15.182  16.907  0.00  0.00     0.005 A 
ATOM     16  C   UNL d   1     -38.617  14.824  16.745  0.00  0.00     0.000 A 
ATOM     17  C   UNL d   1     -38.511  14.024  16.916  0.00  0.00     0.000 A 
ATOM     18  C   UNL d   1     -39.119  13.579  17.242  0.00  0.00     0.000 A 
ATOM     19  C   UNL d   1     -39.848  13.934  17.403  0.00  0.00     0.005 A 
ENDBRANCH  12  14
ENDBRANCH   9  11
ENDBRANCH   2   8
BRANCH   1  20
ATOM     20  C   UNL d   1     -39.066  14.724  21.927  0.00  0.00     0.302 C 
ATOM     21  O   UNL d   1     -39.320  15.049  22.642  0.00  0.00    -0.259 OA
BRANCH  20  22
ATOM     22  O   UNL d   1     -38.637  14.016  21.922  0.00  0.00    -0.271 OA
BRANCH  22  23
ATOM     23  C   UNL d   1     -38.534  13.602  22.615  0.00  0.00     0.126 C 
ATOM     24  C   UNL d   1     -37.991  12.981  22.652  0.00  0.00     0.029 C 
ENDBRANCH  22  23
ENDBRANCH  20  22
ENDBRANCH   1  20
TORSDOF 6
ENDMDL
MODEL 5
REMARK VINA RESULT:      -5.4      1.387      2.030
REMARK  6 active torsions:
REMARK  status: ('A' for Active; 'I' for Inactive)
REMARK    1  A    between atoms: C_7  and  C_1 
REMARK    2  A    between atoms: C_6  and  C_2 
REMARK       I    between atoms: N_9  and  C_6 
REMARK    3  A    between atoms: O_16  and  C_7 
REMARK       I    between atoms: C_8  and  N_10 
REMARK    4  A    between atoms: C_14  and  C_8 
REMARK    5  A    between atoms: N_10  and  N_9 
REMARK    6  A    between atoms: C_20  and  O_16 
ROOT
ATOM      1  C   UNL d   1     -38.994  14.524  17.337  0.00  0.00     0.083 A 
ATOM      2  C   UNL d   1     -38.920  15.249  18.448  0.00  0.00     0.141 A 
ATOM      3  C   UNL d   1     -38.579  14.617  18.043  0.00  0.00     0.029 A 
ATOM      4  N   UNL d   1     -39.534  15.542  18.001  0.00  0.00    -0.240 NA
ATOM      5  C   UNL d   1     -39.590  15.099  17.306  0.00  0.00     0.087 A 
ATOM      6  C   UNL d   1     -37.940  14.157  18.293  0.00  0.00     0.002 C 
ATOM      7  C   UNL d   1     -40.130  15.207  16.705  0.00  0.00     0.021 C 
ENDROOT
BRANCH   2   8
ATOM      8  C   UNL d   1     -38.673  15.534  19.189  0.00  0.00     0.314 C 
ATOM      9  N   UNL d   1     -39.150  15.431  19.848  0.00  0.00    -0.101 NA
ATOM     10  O   UNL d   1     -37.949  15.921  19.259  0.00  0.00    -0.262 OA
BRANCH   9  11
ATOM     11  N   UNL d   1     -38.907  15.713  20.586  0.00  0.00    -0.102 NA
ATOM     12  C   UNL d   1     -39.395  15.634  21.245  0.00  0.00     0.297 C 
ATOM     13  O   UNL d   1     -39.142  15.920  21.978  0.00  0.00    -0.264 OA
BRANCH  12  14
ATOM     14  C   UNL d   1     -40.127  15.272  21.166  0.00  0.00     0.059 A 
ATOM     15  C   UNL d   1     -40.795  15.743  21.032  0.00  0.00     0.005 A 
ATOM     16  C   UNL d   1     -41.539  15.380  20.950  0.00  0.00     0.000 A 
ATOM     17  C   UNL d   1     -41.598  14.559  21.005  0.00  0.00     0.000 A 
ATOM     18  C   UNL d   1     -40.932  14.098  21.138  0.00  0.00     0.000 A 
ATOM     19  C   UNL d   1     -40.192  14.458  21.219  0.00  0.00     0.005 A 
ENDBRANCH  12  14
ENDBRANCH   9  11
ENDBRANCH   2   8
BRANCH   1  20
ATOM     20  C   UNL d   1     -38.842  13.955  16.755  0.00  0.00     0.302 C 
ATOM     21  O   UNL d   1     -39.014  13.161  16.902  0.00  0.00    -0.259 OA
BRANCH  20  22
ATOM     22  O   UNL d   1     -38.519  14.181  16.026  0.00  0.00    -0.271 OA
BRANCH  22  23
ATOM     23  C   UNL d   1     -38.188  13.619  15.540  0.00  0.00     0.126 C 
ATOM     24  C   UNL d   1     -37.940  13.821  14.779  0.00  0.00     0.029 C 
ENDBRANCH  22  23
ENDBRANCH  20  22
ENDBRANCH   1  20
TORSDOF 6
ENDMDL
MODEL 6
REMARK VINA RESULT:      -3.4      2.032      2.836
REMARK  6 active torsions:
REMARK  status: ('A' for Active; 'I' for Inactive)
REMARK    1  A    between atoms: C_7  and  C_1 
REMARK    2  A    between atoms: C_6  and  C_2 
REMARK       I    between atoms: N_9  and  C_6 
REMARK    3  A    between atoms: O_16  and  C_7 
REMARK       I    between atoms: C_8  and  N_10 
REMARK    4  A    between atoms: C_14  and  C_8 
REMARK    5  A    between atoms: N_10  and  N_9 
REMARK    6  A    between atoms: C_20  and  O_16 
ROOT
ATOM      1  C   UNL d   1     -39.183  14.218  18.831  0.00  0.00     0.083 A 
ATOM      2  C   UNL d   1     -38.516  14.696  19.875  0.00  0.00     0.141 A 
ATOM      3  C   UNL d   1     -39.147  14.843  19.366  0.00  0.00     0.029 A 
ATOM      4  N   UNL d   1     -38.168  13.992  19.660  0.00  0.00    -0.240 NA
ATOM      5  C   UNL d   1     -38.575  13.684  19.010  0.00  0.00     0.087 A 
ATOM      6  C   UNL d   1     -39.654  15.496  19.382  0.00  0.00     0.002 C 
ATOM      7  C   UNL d   1     -38.409  12.988  18.621  0.00  0.00     0.021 C 
ENDROOT
BRANCH   2   8
ATOM      8  C   UNL d   1     -38.280  15.188  20.502  0.00  0.00     0.314 C 
ATOM      9  N   UNL d   1     -38.387  14.944  21.278  0.00  0.00    -0.101 NA
ATOM     10  O   UNL d   1     -37.940  15.922  20.343  0.00  0.00    -0.262 OA
BRANCH   9  11
ATOM     11  N   UNL d   1     -38.153  15.431  21.903  0.00  0.00    -0.102 NA
ATOM     12  C   UNL d   1     -38.203  15.166  22.682  0.00  0.00     0.297 C 
ATOM     13  O   UNL d   1     -37.966  15.662  23.299  0.00  0.00    -0.264 OA
BRANCH  12  14
ATOM     14  C   UNL d   1     -38.487  14.411  22.834  0.00  0.00     0.059 A 
ATOM     15  C   UNL d   1     -37.949  13.811  23.022  0.00  0.00     0.005 A 
ATOM     16  C   UNL d   1     -38.232  13.044  23.177  0.00  0.00     0.000 A 
ATOM     17  C   UNL d   1     -39.043  12.897  23.141  0.00  0.00     0.000 A 
ATOM     18  C   UNL d   1     -39.571  13.496  22.955  0.00  0.00     0.000 A 
ATOM     19  C   UNL d   1     -39.291  14.258  22.800  0.00  0.00     0.005 A 
ENDBRANCH  12  14
ENDBRANCH   9  11
ENDBRANCH   2   8
BRANCH   1  20
ATOM     20  C   UNL d   1     -39.733  14.133  18.217  0.00  0.00     0.302 C 
ATOM     21  O   UNL d   1     -40.419  13.690  18.337  0.00  0.00    -0.259 OA
BRANCH  20  22
ATOM     22  O   UNL d   1     -39.596  14.492  17.483  0.00  0.00    -0.271 OA
BRANCH  22  23
ATOM     23  C   UNL d   1     -40.188  14.512  16.926  0.00  0.00     0.126 C 
ATOM     24  C   UNL d   1     -40.085  14.934  16.224  0.00  0.00     0.029 C 
ENDBRANCH  22  23
ENDBRANCH  20  22
ENDBRANCH   1  20
TORSDOF 6
ENDMDL
MODEL 7
REMARK VINA RESULT:      -3.4      1.452      4.768
REMARK  6 active torsions:
REMARK  status: ('A' for Active; 'I' for Inactive)
REMARK    1  A    between atoms: C_7  and  C_1 
REMARK    2  A    between atoms: C_6  and  C_2 
REMARK       I    between atoms: N_9  and  C_6 
REMARK    3  A    between atoms: O_16  and  C_7 
REMARK       I    between atoms: C_8  and  N_10 
REMARK    4  A    between atoms: C_14  and  C_8 
REMARK    5  A    between atoms: N_10  and  N_9 
REMARK    6  A    between atoms: C_20  and  O_16 
ROOT
ATOM      1  C   UNL d   1     -39.397  14.798  20.940  0.00  0.00     0.083 A 
ATOM      2  C   UNL d   1     -39.043  14.066  19.889  0.00  0.00     0.141 A 
ATOM      3  C   UNL d   1     -38.783  14.647  20.412  0.00  0.00     0.029 A 
ATOM      4  N   UNL d   1     -39.806  13.861  20.088  0.00  0.00    -0.240 NA
ATOM      5  C   UNL d   1     -40.038  14.310  20.742  0.00  0.00     0.087 A 
ATOM      6  C   UNL d   1     -38.042  15.014  20.413  0.00  0.00     0.002 C 
ATOM      7  C   UNL d   1     -40.759  14.279  21.120  0.00  0.00     0.021 C 
ENDROOT
BRANCH   2   8
ATOM      8  C   UNL d   1     -38.598  13.747  19.264  0.00  0.00     0.314 C 
ATOM      9  N   UNL d   1     -38.719  14.010  18.496  0.00  0.00    -0.101 NA
ATOM     10  O   UNL d   1     -38.033  13.166  19.416  0.00  0.00    -0.262 OA
BRANCH   9  11
ATOM     11  N   UNL d   1     -38.278  13.696  17.873  0.00  0.00    -0.102 NA
ATOM     12  C   UNL d   1     -38.387  13.968  17.104  0.00  0.00     0.297 C 
ATOM     13  O   UNL d   1     -37.940  13.645  16.488  0.00  0.00    -0.264 OA
BRANCH  12  14
ATOM     14  C   UNL d   1     -38.940  14.557  16.958  0.00  0.00     0.059 A 
ATOM     15  C   UNL d   1     -38.674  15.316  16.762  0.00  0.00     0.005 A 
ATOM     16  C   UNL d   1     -39.230  15.917  16.614  0.00  0.00     0.000 A 
ATOM     17  C   UNL d   1     -40.035  15.744  16.663  0.00  0.00     0.000 A 
ATOM     18  C   UNL d   1     -40.292  14.989  16.857  0.00  0.00     0.000 A 
ATOM     19  C   UNL d   1     -39.740  14.392  17.005  0.00  0.00     0.005 A 
ENDBRANCH  12  14
ENDBRANCH   9  11
ENDBRANCH   2   8
BRANCH   1  20
ATOM     20  C   UNL d   1     -39.381  15.344  21.562  0.00  0.00     0.302 C 
ATOM     21  O   UNL d   1     -39.971  15.918  21.621  0.00  0.00    -0.259 OA
BRANCH  20  22
ATOM     22  O   UNL d   1     -38.775  15.313  22.126  0.00  0.00    -0.271 OA
BRANCH  22  23
ATOM     23  C   UNL d   1     -38.834  15.755  22.807  0.00  0.00     0.126 C 
ATOM     24  C   UNL d   1     -38.775  15.391  23.545  0.00  0.00     0.029 C 
ENDBRANCH  22  23
ENDBRANCH  20  22
ENDBRANCH   1  20
TORSDOF 6
ENDMDL
