MODEL 1
REMARK VINA RESULT:     125.7      0.000      0.000
REMARK  9 active torsions:
REMARK  status: ('A' for Active; 'I' for Inactive)
REMARK    1  A    between atoms: C_6  and  N_1 
REMARK    2  A    between atoms: S_11  and  C_2 
REMARK    3  A    between atoms: C_14  and  C_3 
REMARK       I    between atoms: C_7  and  N_12 
REMARK    4  A    between atoms: C_8  and  C_7 
REMARK    5  A    between atoms: C_9  and  N_10 
REMARK       I    between atoms: N_10  and  C_13 
REMARK    6  A    between atoms: C_24  and  S_11 
REMARK    7  A    between atoms: N_12  and  C_14 
REMARK    8  A    between atoms: C_13  and  C_24 
REMARK    9  A    between atoms: O_28  and  C_19 
ROOT
ATOM      1  N   UNL d   1      61.160  48.363  51.001  0.00  0.00    -0.266 N 
ATOM      2  C   UNL d   1      60.817  49.033  50.656  0.00  0.00     0.201 A 
ATOM      3  C   UNL d   1      61.522  47.918  50.398  0.00  0.00     0.190 A 
ATOM      4  N   UNL d   1      60.965  49.005  49.834  0.00  0.00    -0.121 NA
ATOM      5  N   UNL d   1      61.399  48.318  49.675  0.00  0.00    -0.126 NA
ENDROOT
BRANCH   2   6
ATOM      6  S   UNL d   1      60.405  49.620  51.047  0.00  0.00    -0.043 SA
BRANCH   6   7
ATOM      7  C   UNL d   1      59.773  49.432  51.548  0.00  0.00     0.101 C 
BRANCH   7   8
ATOM      8  C   UNL d   1      59.004  49.467  51.278  0.00  0.00     0.286 C 
ATOM      9  N   UNL d   1      58.849  49.530  50.472  0.00  0.00    -0.208 NA
ATOM     10  O   UNL d   1      58.373  49.439  51.816  0.00  0.00    -0.265 OA
BRANCH   9  11
ATOM     11  C   UNL d   1      58.071  49.566  50.200  0.00  0.00     0.085 A 
ATOM     12  C   UNL d   1      57.912  49.648  49.403  0.00  0.00     0.018 A 
ATOM     13  C   UNL d   1      57.133  49.683  49.130  0.00  0.00     0.002 A 
ATOM     14  C   UNL d   1      58.530  49.696  48.861  0.00  0.00     0.002 C 
ATOM     15  C   UNL d   1      56.512  49.635  49.675  0.00  0.00     0.000 A 
ATOM     16  C   UNL d   1      56.671  49.552  50.492  0.00  0.00     0.002 A 
ATOM     17  C   UNL d   1      57.456  49.518  50.744  0.00  0.00     0.019 A 
ATOM     18  C   UNL d   1      56.062  49.505  51.021  0.00  0.00     0.000 C 
ENDBRANCH   9  11
ENDBRANCH   7   8
ENDBRANCH   6   7
ENDBRANCH   2   6
BRANCH   1  19
ATOM     19  C   UNL d   1      61.147  48.171  51.793  0.00  0.00     0.090 A 
ATOM     20  C   UNL d   1      61.522  48.668  52.335  0.00  0.00     0.110 A 
ATOM     21  C   UNL d   1      61.511  48.478  53.136  0.00  0.00     0.026 A 
ATOM     22  C   UNL d   1      61.124  47.791  53.395  0.00  0.00     0.002 A 
ATOM     23  C   UNL d   1      60.750  47.299  52.838  0.00  0.00     0.002 A 
ATOM     24  C   UNL d   1      60.763  47.492  52.038  0.00  0.00     0.020 A 
BRANCH  20  25
ATOM     25  O   UNL d   1      61.906  49.348  52.086  0.00  0.00    -0.327 OA
ATOM     26  C   UNL d   1      62.720  49.355  51.978  0.00  0.00     0.181 C 
ENDBRANCH  20  25
ENDBRANCH   1  19
BRANCH   3  27
ATOM     27  C   UNL d   1      61.929  47.206  50.495  0.00  0.00     0.141 C 
BRANCH  27  28
ATOM     28  N   UNL d   1      61.751  46.560  50.013  0.00  0.00    -0.202 NA
ATOM     29  C   UNL d   1      61.476  45.858  50.357  0.00  0.00     0.302 C 
ATOM     30  O   UNL d   1      61.385  45.813  51.179  0.00  0.00    -0.263 OA
BRANCH  29  31
ATOM     31  C   UNL d   1      61.293  45.203  49.886  0.00  0.00     0.158 A 
ATOM     32  O   UNL d   1      61.204  44.436  50.160  0.00  0.00    -0.300 OA
ATOM     33  C   UNL d   1      61.024  43.953  49.516  0.00  0.00     0.123 A 
ATOM     34  C   UNL d   1      61.005  44.439  48.842  0.00  0.00     0.029 A 
ATOM     35  C   UNL d   1      61.172  45.212  49.075  0.00  0.00     0.032 A 
ENDBRANCH  29  31
ENDBRANCH  27  28
ENDBRANCH   3  27
TORSDOF 9
ENDMDL
MODEL 2
REMARK VINA RESULT:     128.2      1.995      4.011
REMARK  9 active torsions:
REMARK  status: ('A' for Active; 'I' for Inactive)
REMARK    1  A    between atoms: C_6  and  N_1 
REMARK    2  A    between atoms: S_11  and  C_2 
REMARK    3  A    between atoms: C_14  and  C_3 
REMARK       I    between atoms: C_7  and  N_12 
REMARK    4  A    between atoms: C_8  and  C_7 
REMARK    5  A    between atoms: C_9  and  N_10 
REMARK       I    between atoms: N_10  and  C_13 
REMARK    6  A    between atoms: C_24  and  S_11 
REMARK    7  A    between atoms: N_12  and  C_14 
REMARK    8  A    between atoms: C_13  and  C_24 
REMARK    9  A    between atoms: O_28  and  C_19 
ROOT
ATOM      1  N   UNL d   1      61.638  44.977  49.402  0.00  0.00    -0.266 N 
ATOM      2  C   UNL d   1      61.876  45.770  49.378  0.00  0.00     0.201 A 
ATOM      3  C   UNL d   1      62.309  44.502  49.276  0.00  0.00     0.190 A 
ATOM      4  N   UNL d   1      62.699  45.789  49.237  0.00  0.00    -0.121 NA
ATOM      5  N   UNL d   1      62.966  45.008  49.174  0.00  0.00    -0.126 NA
ENDROOT
BRANCH   2   6
ATOM      6  S   UNL d   1      61.393  46.422  49.476  0.00  0.00    -0.043 SA
BRANCH   6   7
ATOM      7  C   UNL d   1      61.688  47.120  49.809  0.00  0.00     0.101 C 
BRANCH   7   8
ATOM      8  C   UNL d   1      61.184  47.658  50.161  0.00  0.00     0.286 C 
ATOM      9  N   UNL d   1      61.425  48.078  50.826  0.00  0.00    -0.208 NA
ATOM     10  O   UNL d   1      60.426  47.783  49.847  0.00  0.00    -0.265 OA
BRANCH   9  11
ATOM     11  C   UNL d   1      60.914  48.622  51.181  0.00  0.00     0.085 A 
ATOM     12  C   UNL d   1      61.088  48.937  51.914  0.00  0.00     0.018 A 
ATOM     13  C   UNL d   1      60.577  49.481  52.269  0.00  0.00     0.002 A 
ATOM     14  C   UNL d   1      61.776  48.715  52.307  0.00  0.00     0.002 C 
ATOM     15  C   UNL d   1      59.886  49.704  51.873  0.00  0.00     0.000 A 
ATOM     16  C   UNL d   1      59.706  49.383  51.122  0.00  0.00     0.002 A 
ATOM     17  C   UNL d   1      60.228  48.841  50.785  0.00  0.00     0.019 A 
ATOM     18  C   UNL d   1      59.030  49.603  50.738  0.00  0.00     0.000 C 
ENDBRANCH   9  11
ENDBRANCH   7   8
ENDBRANCH   6   7
ENDBRANCH   2   6
BRANCH   1  19
ATOM     19  C   UNL d   1      60.879  44.708  49.527  0.00  0.00     0.090 A 
ATOM     20  C   UNL d   1      60.575  44.700  50.295  0.00  0.00     0.110 A 
ATOM     21  C   UNL d   1      59.809  44.429  50.425  0.00  0.00     0.026 A 
ATOM     22  C   UNL d   1      59.346  44.165  49.788  0.00  0.00     0.002 A 
ATOM     23  C   UNL d   1      59.665  44.178  49.019  0.00  0.00     0.002 A 
ATOM     24  C   UNL d   1      60.432  44.450  48.893  0.00  0.00     0.020 A 
BRANCH  20  25
ATOM     25  O   UNL d   1      61.026  44.958  50.929  0.00  0.00    -0.327 OA
ATOM     26  C   UNL d   1      60.984  44.579  51.655  0.00  0.00     0.181 C 
ENDBRANCH  20  25
ENDBRANCH   1  19
BRANCH   3  27
ATOM     27  C   UNL d   1      62.325  43.676  49.256  0.00  0.00     0.141 C 
BRANCH  27  28
ATOM     28  N   UNL d   1      62.427  43.248  49.954  0.00  0.00    -0.202 NA
ATOM     29  C   UNL d   1      62.815  42.517  49.931  0.00  0.00     0.302 C 
ATOM     30  O   UNL d   1      63.096  42.224  49.209  0.00  0.00    -0.263 OA
BRANCH  29  31
ATOM     31  C   UNL d   1      62.924  42.077  50.624  0.00  0.00     0.158 A 
ATOM     32  O   UNL d   1      63.076  42.395  51.364  0.00  0.00    -0.300 OA
ATOM     33  C   UNL d   1      63.148  41.772  51.900  0.00  0.00     0.123 A 
ATOM     34  C   UNL d   1      63.037  41.067  51.474  0.00  0.00     0.029 A 
ATOM     35  C   UNL d   1      62.899  41.260  50.685  0.00  0.00     0.032 A 
ENDBRANCH  29  31
ENDBRANCH  27  28
ENDBRANCH   3  27
TORSDOF 9
ENDMDL
