MODEL 1
REMARK VINA RESULT:      -9.1      0.000      0.000
REMARK  1 active torsions:
REMARK  status: ('A' for Active; 'I' for Inactive)
REMARK    1  A    between atoms: C_9  and  C_2 
ROOT
ATOM      1  N   UNL d   1      52.652  34.333  53.940  0.00  0.00    -0.204 NA
ATOM      2  C   UNL d   1      53.171  33.711  54.109  0.00  0.00     0.107 A 
ATOM      3  C   UNL d   1      52.814  35.098  54.228  0.00  0.00     0.304 A 
ATOM      4  C   UNL d   1      53.533  32.331  53.994  0.00  0.00     0.020 A 
ATOM      5  O   UNL d   1      54.013  34.611  54.851  0.00  0.00    -0.299 OA
ATOM      6  C   UNL d   1      53.013  32.961  53.827  0.00  0.00     0.023 A 
ATOM      7  C   UNL d   1      53.852  33.846  54.563  0.00  0.00     0.118 A 
ATOM      8  O   UNL d   1      52.299  35.718  54.062  0.00  0.00    -0.263 OA
ATOM      9  C   UNL d   1      54.208  32.468  54.445  0.00  0.00     0.004 A 
ATOM     10  C   UNL d   1      53.492  35.234  54.682  0.00  0.00     0.185 A 
ATOM     11  C   UNL d   1      54.367  33.222  54.729  0.00  0.00     0.026 A 
ENDROOT
BRANCH   4  12
ATOM     12  C   UNL d   1      53.367  31.577  53.705  0.00  0.00     0.090 A 
ATOM     13  N   UNL d   1      53.514  30.873  54.109  0.00  0.00    -0.219 NA
ATOM     14  C   UNL d   1      53.265  30.252  53.621  0.00  0.00     0.215 A 
ATOM     15  S   UNL d   1      52.968  30.575  52.924  0.00  0.00    -0.045 SA
ATOM     16  N   UNL d   1      53.308  29.444  53.805  0.00  0.00    -0.120 N 
ATOM     17  C   UNL d   1      53.032  31.398  52.977  0.00  0.00     0.058 A 
ENDBRANCH   4  12
TORSDOF 1
ENDMDL
MODEL 2
REMARK VINA RESULT:      -9.0      2.405      3.936
REMARK  1 active torsions:
REMARK  status: ('A' for Active; 'I' for Inactive)
REMARK    1  A    between atoms: C_9  and  C_2 
ROOT
ATOM      1  N   UNL d   1      53.358  30.265  54.033  0.00  0.00    -0.204 NA
ATOM      2  C   UNL d   1      53.321  31.042  53.754  0.00  0.00     0.107 A 
ATOM      3  C   UNL d   1      53.019  29.647  53.588  0.00  0.00     0.304 A 
ATOM      4  C   UNL d   1      53.618  32.433  53.914  0.00  0.00     0.020 A 
ATOM      5  O   UNL d   1      52.610  30.594  52.587  0.00  0.00    -0.299 OA
ATOM      6  C   UNL d   1      53.653  31.648  54.191  0.00  0.00     0.023 A 
ATOM      7  C   UNL d   1      52.948  31.211  53.032  0.00  0.00     0.118 A 
ATOM      8  O   UNL d   1      53.054  28.873  53.863  0.00  0.00    -0.263 OA
ATOM      9  C   UNL d   1      53.248  32.597  53.197  0.00  0.00     0.004 A 
ATOM     10  C   UNL d   1      52.647  29.814  52.868  0.00  0.00     0.185 A 
ATOM     11  C   UNL d   1      52.914  31.989  52.758  0.00  0.00     0.026 A 
ENDROOT
BRANCH   4  12
ATOM     12  C   UNL d   1      53.956  33.039  54.360  0.00  0.00     0.090 A 
ATOM     13  N   UNL d   1      54.755  33.095  54.553  0.00  0.00    -0.219 NA
ATOM     14  C   UNL d   1      54.853  33.783  55.004  0.00  0.00     0.215 A 
ATOM     15  S   UNL d   1      54.117  34.145  55.085  0.00  0.00    -0.045 SA
ATOM     16  N   UNL d   1      55.569  34.060  55.319  0.00  0.00    -0.120 N 
ATOM     17  C   UNL d   1      53.560  33.682  54.684  0.00  0.00     0.058 A 
ENDBRANCH   4  12
TORSDOF 1
ENDMDL
MODEL 3
REMARK VINA RESULT:      -8.7      2.157      3.805
REMARK  1 active torsions:
REMARK  status: ('A' for Active; 'I' for Inactive)
REMARK    1  A    between atoms: C_9  and  C_2 
ROOT
ATOM      1  N   UNL d   1      52.431  30.911  53.261  0.00  0.00    -0.204 NA
ATOM      2  C   UNL d   1      52.976  31.514  53.412  0.00  0.00     0.107 A 
ATOM      3  C   UNL d   1      52.684  30.118  53.242  0.00  0.00     0.304 A 
ATOM      4  C   UNL d   1      53.274  32.904  53.583  0.00  0.00     0.020 A 
ATOM      5  O   UNL d   1      54.028  30.539  53.528  0.00  0.00    -0.299 OA
ATOM      6  C   UNL d   1      52.728  32.292  53.431  0.00  0.00     0.023 A 
ATOM      7  C   UNL d   1      53.775  31.333  53.546  0.00  0.00     0.118 A 
ATOM      8  O   UNL d   1      52.143  29.515  53.092  0.00  0.00    -0.263 OA
ATOM      9  C   UNL d   1      54.066  32.720  53.715  0.00  0.00     0.004 A 
ATOM     10  C   UNL d   1      53.480  29.935  53.376  0.00  0.00     0.185 A 
ATOM     11  C   UNL d   1      54.315  31.938  53.697  0.00  0.00     0.026 A 
ENDROOT
BRANCH   4  12
ATOM     12  C   UNL d   1      53.016  33.687  53.600  0.00  0.00     0.090 A 
ATOM     13  N   UNL d   1      53.192  34.230  54.195  0.00  0.00    -0.219 NA
ATOM     14  C   UNL d   1      52.825  34.945  53.993  0.00  0.00     0.215 A 
ATOM     15  S   UNL d   1      52.427  34.837  53.279  0.00  0.00    -0.045 SA
ATOM     16  N   UNL d   1      52.854  35.646  54.435  0.00  0.00    -0.120 N 
ATOM     17  C   UNL d   1      52.547  34.056  53.036  0.00  0.00     0.058 A 
ENDBRANCH   4  12
TORSDOF 1
ENDMDL
MODEL 4
REMARK VINA RESULT:      -8.5      2.182      3.142
REMARK  1 active torsions:
REMARK  status: ('A' for Active; 'I' for Inactive)
REMARK    1  A    between atoms: C_9  and  C_2 
ROOT
ATOM      1  N   UNL d   1      53.856  34.092  54.601  0.00  0.00    -0.204 NA
ATOM      2  C   UNL d   1      53.390  33.626  54.102  0.00  0.00     0.107 A 
ATOM      3  C   UNL d   1      54.529  33.765  54.966  0.00  0.00     0.304 A 
ATOM      4  C   UNL d   1      52.257  33.481  53.240  0.00  0.00     0.020 A 
ATOM      5  O   UNL d   1      54.263  32.505  54.327  0.00  0.00    -0.299 OA
ATOM      6  C   UNL d   1      52.730  33.947  53.744  0.00  0.00     0.023 A 
ATOM      7  C   UNL d   1      53.590  32.833  53.962  0.00  0.00     0.118 A 
ATOM      8  O   UNL d   1      54.995  34.226  55.464  0.00  0.00    -0.263 OA
ATOM      9  C   UNL d   1      52.458  32.694  53.103  0.00  0.00     0.004 A 
ATOM     10  C   UNL d   1      54.730  32.974  54.829  0.00  0.00     0.185 A 
ATOM     11  C   UNL d   1      53.121  32.372  53.463  0.00  0.00     0.026 A 
ENDROOT
BRANCH   4  12
ATOM     12  C   UNL d   1      51.591  33.813  52.882  0.00  0.00     0.090 A 
ATOM     13  N   UNL d   1      50.893  34.008  53.273  0.00  0.00    -0.219 NA
ATOM     14  C   UNL d   1      50.374  34.323  52.709  0.00  0.00     0.215 A 
ATOM     15  S   UNL d   1      50.755  34.319  51.978  0.00  0.00    -0.045 SA
ATOM     16  N   UNL d   1      49.604  34.595  52.856  0.00  0.00    -0.120 N 
ATOM     17  C   UNL d   1      51.511  34.002  52.087  0.00  0.00     0.058 A 
ENDBRANCH   4  12
TORSDOF 1
ENDMDL
MODEL 5
REMARK VINA RESULT:      -7.9      2.568      3.779
REMARK  1 active torsions:
REMARK  status: ('A' for Active; 'I' for Inactive)
REMARK    1  A    between atoms: C_9  and  C_2 
ROOT
ATOM      1  N   UNL d   1      52.755  32.021  53.296  0.00  0.00    -0.204 NA
ATOM      2  C   UNL d   1      52.601  32.831  53.234  0.00  0.00     0.107 A 
ATOM      3  C   UNL d   1      53.512  31.758  53.524  0.00  0.00     0.304 A 
ATOM      4  C   UNL d   1      51.699  33.904  52.947  0.00  0.00     0.020 A 
ATOM      5  O   UNL d   1      53.954  33.122  53.627  0.00  0.00    -0.299 OA
ATOM      6  C   UNL d   1      51.859  33.089  53.011  0.00  0.00     0.023 A 
ATOM      7  C   UNL d   1      53.197  33.384  53.399  0.00  0.00     0.118 A 
ATOM      8  O   UNL d   1      53.668  30.952  53.586  0.00  0.00    -0.263 OA
ATOM      9  C   UNL d   1      52.293  34.451  53.111  0.00  0.00     0.004 A 
ATOM     10  C   UNL d   1      54.108  32.308  53.688  0.00  0.00     0.185 A 
ATOM     11  C   UNL d   1      53.039  34.192  53.336  0.00  0.00     0.026 A 
ENDROOT
BRANCH   4  12
ATOM     12  C   UNL d   1      50.947  34.157  52.721  0.00  0.00     0.090 A 
ATOM     13  N   UNL d   1      50.643  34.109  51.956  0.00  0.00    -0.219 NA
ATOM     14  C   UNL d   1      49.876  34.422  51.976  0.00  0.00     0.215 A 
ATOM     15  S   UNL d   1      49.714  34.659  52.748  0.00  0.00    -0.045 SA
ATOM     16  N   UNL d   1      49.361  34.485  51.328  0.00  0.00    -0.120 N 
ATOM     17  C   UNL d   1      50.380  34.494  53.210  0.00  0.00     0.058 A 
ENDBRANCH   4  12
TORSDOF 1
ENDMDL
MODEL 6
REMARK VINA RESULT:      -7.5      2.286      2.964
REMARK  1 active torsions:
REMARK  status: ('A' for Active; 'I' for Inactive)
REMARK    1  A    between atoms: C_9  and  C_2 
ROOT
ATOM      1  N   UNL d   1      51.180  34.405  53.479  0.00  0.00    -0.204 NA
ATOM      2  C   UNL d   1      51.802  33.870  53.372  0.00  0.00     0.107 A 
ATOM      3  C   UNL d   1      50.557  34.430  52.927  0.00  0.00     0.304 A 
ATOM      4  C   UNL d   1      53.044  33.308  53.811  0.00  0.00     0.020 A 
ATOM      5  O   UNL d   1      51.185  33.385  52.167  0.00  0.00    -0.299 OA
ATOM      6  C   UNL d   1      52.414  33.845  53.913  0.00  0.00     0.023 A 
ATOM      7  C   UNL d   1      51.809  33.360  52.719  0.00  0.00     0.118 A 
ATOM      8  O   UNL d   1      49.936  34.961  53.031  0.00  0.00    -0.263 OA
ATOM      9  C   UNL d   1      53.047  32.803  53.161  0.00  0.00     0.004 A 
ATOM     10  C   UNL d   1      50.561  33.922  52.275  0.00  0.00     0.185 A 
ATOM     11  C   UNL d   1      52.432  32.828  52.617  0.00  0.00     0.026 A 
ENDROOT
BRANCH   4  12
ATOM     12  C   UNL d   1      53.658  33.288  54.361  0.00  0.00     0.090 A 
ATOM     13  N   UNL d   1      54.289  33.819  54.384  0.00  0.00    -0.219 NA
ATOM     14  C   UNL d   1      54.773  33.598  55.020  0.00  0.00     0.215 A 
ATOM     15  S   UNL d   1      54.438  32.937  55.381  0.00  0.00    -0.045 SA
ATOM     16  N   UNL d   1      55.473  33.979  55.251  0.00  0.00    -0.120 N 
ATOM     17  C   UNL d   1      53.746  32.746  54.971  0.00  0.00     0.058 A 
ENDBRANCH   4  12
TORSDOF 1
ENDMDL
MODEL 7
REMARK VINA RESULT:      -6.3      2.355      3.124
REMARK  1 active torsions:
REMARK  status: ('A' for Active; 'I' for Inactive)
REMARK    1  A    between atoms: C_9  and  C_2 
ROOT
ATOM      1  N   UNL d   1      51.323  34.051  51.699  0.00  0.00    -0.204 NA
ATOM      2  C   UNL d   1      51.525  33.934  52.492  0.00  0.00     0.107 A 
ATOM      3  C   UNL d   1      50.553  34.296  51.498  0.00  0.00     0.304 A 
ATOM      4  C   UNL d   1      52.488  33.573  53.488  0.00  0.00     0.020 A 
ATOM      5  O   UNL d   1      50.193  34.305  52.889  0.00  0.00    -0.299 OA
ATOM      6  C   UNL d   1      52.280  33.693  52.690  0.00  0.00     0.023 A 
ATOM      7  C   UNL d   1      50.963  34.060  53.090  0.00  0.00     0.118 A 
ATOM      8  O   UNL d   1      50.350  34.414  50.709  0.00  0.00    -0.263 OA
ATOM      9  C   UNL d   1      51.928  33.699  54.079  0.00  0.00     0.004 A 
ATOM     10  C   UNL d   1      49.992  34.423  52.092  0.00  0.00     0.185 A 
ATOM     11  C   UNL d   1      51.169  33.941  53.881  0.00  0.00     0.026 A 
ENDROOT
BRANCH   4  12
ATOM     12  C   UNL d   1      53.253  33.330  53.679  0.00  0.00     0.090 A 
ATOM     13  N   UNL d   1      53.738  33.693  54.238  0.00  0.00    -0.219 NA
ATOM     14  C   UNL d   1      54.452  33.274  54.254  0.00  0.00     0.215 A 
ATOM     15  S   UNL d   1      54.402  32.658  53.708  0.00  0.00    -0.045 SA
ATOM     16  N   UNL d   1      55.105  33.445  54.737  0.00  0.00    -0.120 N 
ATOM     17  C   UNL d   1      53.656  32.694  53.352  0.00  0.00     0.058 A 
ENDBRANCH   4  12
TORSDOF 1
ENDMDL
MODEL 8
REMARK VINA RESULT:      -6.2      9.570      9.962
REMARK  1 active torsions:
REMARK  status: ('A' for Active; 'I' for Inactive)
REMARK    1  A    between atoms: C_9  and  C_2 
ROOT
ATOM      1  N   UNL d   1      44.582  30.518  56.706  0.00  0.00    -0.204 NA
ATOM      2  C   UNL d   1      44.795  30.202  57.440  0.00  0.00     0.107 A 
ATOM      3  C   UNL d   1      44.530  31.344  56.609  0.00  0.00     0.304 A 
ATOM      4  C   UNL d   1      45.059  29.069  58.273  0.00  0.00     0.020 A 
ATOM      5  O   UNL d   1      44.903  31.529  57.985  0.00  0.00    -0.299 OA
ATOM      6  C   UNL d   1      44.846  29.392  57.535  0.00  0.00     0.023 A 
ATOM      7  C   UNL d   1      44.956  30.703  58.081  0.00  0.00     0.118 A 
ATOM      8  O   UNL d   1      44.319  31.662  55.880  0.00  0.00    -0.263 OA
ATOM      9  C   UNL d   1      45.219  29.569  58.907  0.00  0.00     0.004 A 
ATOM     10  C   UNL d   1      44.690  31.846  57.248  0.00  0.00     0.185 A 
ATOM     11  C   UNL d   1      45.167  30.382  58.812  0.00  0.00     0.026 A 
ENDROOT
BRANCH   4  12
ATOM     12  C   UNL d   1      45.109  28.250  58.361  0.00  0.00     0.090 A 
ATOM     13  N   UNL d   1      44.768  27.819  58.976  0.00  0.00    -0.219 NA
ATOM     14  C   UNL d   1      44.953  27.021  58.850  0.00  0.00     0.215 A 
ATOM     15  S   UNL d   1      45.404  26.967  58.162  0.00  0.00    -0.045 SA
ATOM     16  N   UNL d   1      44.723  26.388  59.334  0.00  0.00    -0.120 N 
ATOM     17  C   UNL d   1      45.500  27.730  57.859  0.00  0.00     0.058 A 
ENDBRANCH   4  12
TORSDOF 1
ENDMDL
