MODEL 1
REMARK VINA RESULT:      58.3      0.000      0.000
REMARK  1 active torsions:
REMARK  status: ('A' for Active; 'I' for Inactive)
REMARK    1  A    between atoms: C_10  and  N_2 
ROOT
ATOM      1  C   UNL d   1     -54.808-101.055 -38.574  0.00  0.00     0.174 A 
ATOM      2  N   UNL d   1     -54.843-101.473 -39.937  0.00  0.00    -0.224 N 
ATOM      3  C   UNL d   1     -54.803-100.874 -39.375  0.00  0.00     0.292 A 
ATOM      4  C   UNL d   1     -54.853-101.833 -38.330  0.00  0.00     0.115 A 
ATOM      5  C   UNL d   1     -54.888-102.253 -39.698  0.00  0.00     0.356 A 
ATOM      6  N   UNL d   1     -54.893-102.432 -38.892  0.00  0.00    -0.190 NA
ATOM      7  O   UNL d   1     -54.774-100.574 -37.898  0.00  0.00    -0.301 OA
ATOM      8  C   UNL d   1     -54.848-101.844 -37.501  0.00  0.00     0.043 A 
ATOM      9  C   UNL d   1     -54.799-101.065 -37.234  0.00  0.00     0.102 A 
ATOM     10  O   UNL d   1     -54.756-100.075 -39.630  0.00  0.00    -0.264 OA
ATOM     11  O   UNL d   1     -54.929-102.865 -40.264  0.00  0.00    -0.244 OA
ATOM     12  C   UNL d   1     -54.881-102.462 -36.969  0.00  0.00     0.004 A 
ATOM     13  C   UNL d   1     -54.784-100.904 -36.434  0.00  0.00     0.025 A 
ATOM     14  C   UNL d   1     -54.866-102.306 -36.153  0.00  0.00     0.000 A 
ATOM     15  C   UNL d   1     -54.817-101.527 -35.886  0.00  0.00     0.002 A 
ENDROOT
BRANCH   2  16
ATOM     16  C   UNL d   1     -54.837-101.288 -40.746  0.00  0.00     0.071 A 
ATOM     17  C   UNL d   1     -54.783-101.886 -41.308  0.00  0.00     0.018 A 
ATOM     18  C   UNL d   1     -54.778-101.699 -42.110  0.00  0.00     0.002 A 
ATOM     19  C   UNL d   1     -54.827-100.912 -42.348  0.00  0.00     0.000 A 
ATOM     20  C   UNL d   1     -54.881-100.311 -41.794  0.00  0.00     0.002 A 
ATOM     21  C   UNL d   1     -54.822-100.723 -43.156  0.00  0.00     0.000 C 
ATOM     22  C   UNL d   1     -54.886-100.502 -40.987  0.00  0.00     0.018 A 
ENDBRANCH   2  16
TORSDOF 1
ENDMDL
