MODEL 1
REMARK VINA RESULT:      70.3      0.000      0.000
REMARK  2 active torsions:
REMARK  status: ('A' for Active; 'I' for Inactive)
REMARK    1  A    between atoms: C_10  and  C_1 
REMARK    2  A    between atoms: N_6  and  C_10 
ROOT
ATOM      1  C   UNL d   1      58.789  49.515  51.076  0.00  0.00     0.025 A 
ATOM      2  C   UNL d   1      58.104  49.562  51.535  0.00  0.00     0.025 A 
ATOM      3  C   UNL d   1      58.146  49.604  52.346  0.00  0.00     0.013 A 
ATOM      4  C   UNL d   1      57.374  49.568  51.158  0.00  0.00     0.103 A 
ATOM      5  O   UNL d   1      57.315  49.526  50.334  0.00  0.00    -0.273 OA
ATOM      6  C   UNL d   1      57.467  49.651  52.793  0.00  0.00     0.058 A 
ATOM      7  C   UNL d   1      58.006  49.478  49.883  0.00  0.00     0.300 A 
ATOM      8  C   UNL d   1      58.741  49.472  50.249  0.00  0.00     0.070 A 
ATOM      9  C   UNL d   1      56.730  49.657  52.421  0.00  0.00     0.013 A 
ATOM     10  C   UNL d   1      56.687  49.615  51.601  0.00  0.00     0.026 A 
ATOM     11  O   UNL d   1      57.958  49.437  49.065  0.00  0.00    -0.259 OA
ATOM     12 CL   UNL d   1      57.511  49.693  53.619  0.00  0.00    -0.082 Cl
ATOM     13  C   UNL d   1      58.884  49.598  52.717  0.00  0.00     0.001 C 
ATOM     14  C   UNL d   1      56.038  49.705  52.876  0.00  0.00     0.001 C 
ENDROOT
BRANCH   1  15
ATOM     15  C   UNL d   1      59.526  49.509  51.448  0.00  0.00     0.080 C 
BRANCH  15  16
ATOM     16  N   UNL d   1      60.081  48.922  51.257  0.00  0.00    -0.304 N 
ATOM     17  C   UNL d   1      60.873  49.022  51.464  0.00  0.00     0.064 A 
ATOM     18  C   UNL d   1      61.122  49.702  51.859  0.00  0.00     0.019 C 
ATOM     19  C   UNL d   1      61.416  48.437  51.272  0.00  0.00     0.018 A 
ATOM     20  C   UNL d   1      61.176  47.758  50.879  0.00  0.00     0.003 A 
ATOM     21  C   UNL d   1      60.384  47.658  50.672  0.00  0.00     0.019 A 
ATOM     22  C   UNL d   1      59.831  48.237  50.859  0.00  0.00     0.080 A 
ENDBRANCH  15  16
ENDBRANCH   1  15
TORSDOF 2
ENDMDL
