MODEL 1
REMARK VINA RESULT:      79.3      0.000      0.000
REMARK  4 active torsions:
REMARK  status: ('A' for Active; 'I' for Inactive)
REMARK    1  A    between atoms: C_3  and  S_1 
REMARK    2  A    between atoms: N_5  and  S_1 
REMARK    3  A    between atoms: C_11  and  N_5 
REMARK    4  A    between atoms: C_21  and  N_5 
ROOT
ATOM      1  N   UNL d   1     -54.804-101.315 -39.082  0.00  0.00    -0.273 N 
ATOM      2  C   UNL d   1     -54.908-101.249 -41.544  0.00  0.00     0.104 A 
ATOM      3  C   UNL d   1     -54.839-101.295 -39.899  0.00  0.00     0.067 A 
ATOM      4  C   UNL d   1     -54.861-100.571 -40.286  0.00  0.00     0.017 A 
ATOM      5  C   UNL d   1     -54.851-101.998 -40.332  0.00  0.00     0.017 A 
ATOM      6  C   UNL d   1     -54.791-100.613 -38.649  0.00  0.00     0.265 A 
ATOM      7  C   UNL d   1     -54.896-100.547 -41.111  0.00  0.00     0.014 A 
ATOM      8  C   UNL d   1     -54.886-101.975 -41.152  0.00  0.00     0.014 A 
ATOM      9  C   UNL d   1     -54.848 -99.869 -39.853  0.00  0.00     0.006 A 
ATOM     10  C   UNL d   1     -54.813 -99.891 -39.033  0.00  0.00     0.061 A 
ATOM     11  O   UNL d   1     -54.756-100.635 -37.813  0.00  0.00    -0.267 OA
ATOM     12  C   UNL d   1     -54.782-102.042 -38.691  0.00  0.00     0.083 A 
ATOM     13  C   UNL d   1     -54.830-102.719 -39.949  0.00  0.00     0.003 A 
ATOM     14  C   UNL d   1     -54.795-102.744 -39.125  0.00  0.00     0.019 A 
ENDROOT
BRANCH   2  15
ATOM     15  S   UNL d   1     -54.944-101.222 -42.372  0.00  0.00     0.271 S 
ATOM     16  O   UNL d   1     -54.716-102.018 -42.419  0.00  0.00    -0.200 OA
ATOM     17  O   UNL d   1     -55.172-100.423 -42.332  0.00  0.00    -0.200 OA
BRANCH  15  18
ATOM     18  N   UNL d   1     -54.980-101.191 -43.207  0.00  0.00    -0.231 N 
BRANCH  18  19
ATOM     19  C   UNL d   1     -55.234-100.510 -43.588  0.00  0.00     0.075 A 
ATOM     20  C   UNL d   1     -56.024-100.443 -43.816  0.00  0.00     0.018 A 
ATOM     21  C   UNL d   1     -56.288 -99.769 -44.196  0.00  0.00     0.002 A 
ATOM     22  C   UNL d   1     -57.088 -99.701 -44.427  0.00  0.00     0.000 C 
ATOM     23  C   UNL d   1     -55.761 -99.154 -44.353  0.00  0.00     0.000 A 
ATOM     24  C   UNL d   1     -54.971 -99.221 -44.126  0.00  0.00     0.002 A 
ATOM     25  C   UNL d   1     -54.716 -99.902 -43.744  0.00  0.00     0.018 A 
ENDBRANCH  18  19
BRANCH  18  26
ATOM     26  C   UNL d   1     -54.759-101.847 -43.653  0.00  0.00     0.092 C 
ATOM     27  C   UNL d   1     -55.238-102.103 -44.275  0.00  0.00     0.021 C 
ENDBRANCH  18  26
ENDBRANCH  15  18
ENDBRANCH   2  15
TORSDOF 4
ENDMDL
