MODEL 1
REMARK VINA RESULT:      -6.9      0.000      0.000
REMARK  4 active torsions:
REMARK  status: ('A' for Active; 'I' for Inactive)
REMARK    1  A    between atoms: S_16  and  C_7 
REMARK    2  A    between atoms: C_10  and  N_11 
REMARK       I    between atoms: N_11  and  C_14 
REMARK    3  A    between atoms: C_14  and  C_20 
REMARK    4  A    between atoms: C_20  and  S_16 
ROOT
ATOM      1  N   UNL d   1     -48.976  13.784  23.036  0.00  0.00    -0.167 N 
ATOM      2  C   UNL d   1     -48.594  14.501  22.924  0.00  0.00     0.220 A 
ATOM      3  C   UNL d   1     -49.799  13.752  23.131  0.00  0.00     0.301 A 
ATOM      4  S   UNL d   1     -47.786  14.344  22.849  0.00  0.00    -0.019 SA
ATOM      5  N   UNL d   1     -48.419  13.185  23.032  0.00  0.00    -0.147 NA
ATOM      6  N   UNL d   1     -49.026  15.201  22.905  0.00  0.00    -0.121 NA
ATOM      7  C   UNL d   1     -47.681  13.532  22.915  0.00  0.00     0.164 A 
ATOM      8  N   UNL d   1     -49.842  15.184  22.998  0.00  0.00    -0.141 NA
ATOM      9  C   UNL d   1     -50.227  14.463  23.111  0.00  0.00     0.161 A 
ATOM     10  O   UNL d   1     -50.180  13.038  23.243  0.00  0.00    -0.263 OA
ATOM     11  C   UNL d   1     -51.044  14.442  23.204  0.00  0.00     0.028 C 
ENDROOT
BRANCH   7  12
ATOM     12  S   UNL d   1     -46.959  13.135  22.873  0.00  0.00    -0.054 SA
BRANCH  12  13
ATOM     13  C   UNL d   1     -46.824  12.469  23.333  0.00  0.00     0.100 C 
BRANCH  13  14
ATOM     14  C   UNL d   1     -46.078  12.111  23.325  0.00  0.00     0.288 C 
ATOM     15  N   UNL d   1     -46.007  11.301  23.485  0.00  0.00    -0.182 NA
ATOM     16  O   UNL d   1     -45.407  12.561  23.158  0.00  0.00    -0.265 OA
BRANCH  15  17
ATOM     17  C   UNL d   1     -45.263  10.945  23.477  0.00  0.00     0.197 A 
ATOM     18  N   UNL d   1     -44.550  11.303  23.245  0.00  0.00    -0.219 NA
ATOM     19  C   UNL d   1     -43.950  10.749  23.325  0.00  0.00     0.108 A 
ATOM     20  C   UNL d   1     -44.289  10.043  23.607  0.00  0.00     0.059 A 
ATOM     21  S   UNL d   1     -45.093  10.172  23.698  0.00  0.00    -0.046 SA
ENDBRANCH  15  17
ENDBRANCH  13  14
ENDBRANCH  12  13
ENDBRANCH   7  12
TORSDOF 4
ENDMDL
MODEL 2
REMARK VINA RESULT:      -6.3      1.867      2.352
REMARK  4 active torsions:
REMARK  status: ('A' for Active; 'I' for Inactive)
REMARK    1  A    between atoms: S_16  and  C_7 
REMARK    2  A    between atoms: C_10  and  N_11 
REMARK       I    between atoms: N_11  and  C_14 
REMARK    3  A    between atoms: C_14  and  C_20 
REMARK    4  A    between atoms: C_20  and  S_16 
ROOT
ATOM      1  N   UNL d   1     -48.898  12.392  23.503  0.00  0.00    -0.167 N 
ATOM      2  C   UNL d   1     -48.820  11.585  23.624  0.00  0.00     0.220 A 
ATOM      3  C   UNL d   1     -49.647  12.741  23.437  0.00  0.00     0.301 A 
ATOM      4  S   UNL d   1     -48.012  11.415  23.664  0.00  0.00    -0.019 SA
ATOM      5  N   UNL d   1     -48.152  12.726  23.467  0.00  0.00    -0.147 NA
ATOM      6  N   UNL d   1     -49.489  11.109  23.682  0.00  0.00    -0.121 NA
ATOM      7  C   UNL d   1     -47.603  12.120  23.567  0.00  0.00     0.164 A 
ATOM      8  N   UNL d   1     -50.238  11.442  23.619  0.00  0.00    -0.141 NA
ATOM      9  C   UNL d   1     -50.316  12.254  23.497  0.00  0.00     0.161 A 
ATOM     10  O   UNL d   1     -49.725  13.545  23.316  0.00  0.00    -0.263 OA
ATOM     11  C   UNL d   1     -51.064  12.591  23.433  0.00  0.00     0.028 C 
ENDROOT
BRANCH   7  12
ATOM     12  S   UNL d   1     -46.782  12.205  23.569  0.00  0.00    -0.054 SA
BRANCH  12  13
ATOM     13  C   UNL d   1     -46.414  12.699  23.027  0.00  0.00     0.100 C 
BRANCH  13  14
ATOM     14  C   UNL d   1     -45.625  12.562  22.818  0.00  0.00     0.288 C 
ATOM     15  N   UNL d   1     -45.311  12.915  22.139  0.00  0.00    -0.182 NA
ATOM     16  O   UNL d   1     -45.154  12.072  23.287  0.00  0.00    -0.265 OA
BRANCH  15  17
ATOM     17  C   UNL d   1     -44.524  12.778  21.931  0.00  0.00     0.197 A 
ATOM     18  N   UNL d   1     -44.054  12.141  22.184  0.00  0.00    -0.219 NA
ATOM     19  C   UNL d   1     -43.311  12.223  21.844  0.00  0.00     0.108 A 
ATOM     20  C   UNL d   1     -43.318  12.912  21.378  0.00  0.00     0.059 A 
ATOM     21  S   UNL d   1     -44.064  13.246  21.437  0.00  0.00    -0.046 SA
ENDBRANCH  15  17
ENDBRANCH  13  14
ENDBRANCH  12  13
ENDBRANCH   7  12
TORSDOF 4
ENDMDL
MODEL 3
REMARK VINA RESULT:      -5.3      8.810      9.232
REMARK  4 active torsions:
REMARK  status: ('A' for Active; 'I' for Inactive)
REMARK    1  A    between atoms: S_16  and  C_7 
REMARK    2  A    between atoms: C_10  and  N_11 
REMARK       I    between atoms: N_11  and  C_14 
REMARK    3  A    between atoms: C_14  and  C_20 
REMARK    4  A    between atoms: C_20  and  S_16 
ROOT
ATOM      1  N   UNL d   1     -40.178  15.254  18.204  0.00  0.00    -0.167 N 
ATOM      2  C   UNL d   1     -39.580  14.918  17.755  0.00  0.00     0.220 A 
ATOM      3  C   UNL d   1     -40.845  15.588  17.843  0.00  0.00     0.301 A 
ATOM      4  S   UNL d   1     -39.002  14.638  18.276  0.00  0.00    -0.019 SA
ATOM      5  N   UNL d   1     -39.981  15.186  18.996  0.00  0.00    -0.147 NA
ATOM      6  N   UNL d   1     -39.636  14.910  16.933  0.00  0.00    -0.121 NA
ATOM      7  C   UNL d   1     -39.252  14.805  19.040  0.00  0.00     0.164 A 
ATOM      8  N   UNL d   1     -40.291  15.238  16.562  0.00  0.00    -0.141 NA
ATOM      9  C   UNL d   1     -40.893  15.575  17.014  0.00  0.00     0.161 A 
ATOM     10  O   UNL d   1     -41.441  15.922  18.291  0.00  0.00    -0.263 OA
ATOM     11  C   UNL d   1     -41.551  15.904  16.646  0.00  0.00     0.028 C 
ENDROOT
BRANCH   7  12
ATOM     12  S   UNL d   1     -38.842  14.621  19.732  0.00  0.00    -0.054 SA
BRANCH  12  13
ATOM     13  C   UNL d   1     -39.234  14.293  20.373  0.00  0.00     0.100 C 
BRANCH  13  14
ATOM     14  C   UNL d   1     -38.814  14.112  21.062  0.00  0.00     0.288 C 
ATOM     15  N   UNL d   1     -39.183  13.693  21.673  0.00  0.00    -0.182 NA
ATOM     16  O   UNL d   1     -38.028  14.351  21.138  0.00  0.00    -0.265 OA
BRANCH  15  17
ATOM     17  C   UNL d   1     -38.763  13.514  22.360  0.00  0.00     0.197 A 
ATOM     18  N   UNL d   1     -38.229  12.885  22.459  0.00  0.00    -0.219 NA
ATOM     19  C   UNL d   1     -37.940  12.916  23.227  0.00  0.00     0.108 A 
ATOM     20  C   UNL d   1     -38.293  13.565  23.608  0.00  0.00     0.059 A 
ATOM     21  S   UNL d   1     -38.796  13.926  23.071  0.00  0.00    -0.046 SA
ENDBRANCH  15  17
ENDBRANCH  13  14
ENDBRANCH  12  13
ENDBRANCH   7  12
TORSDOF 4
ENDMDL
MODEL 4
REMARK VINA RESULT:      -5.2      8.856      9.699
REMARK  4 active torsions:
REMARK  status: ('A' for Active; 'I' for Inactive)
REMARK    1  A    between atoms: S_16  and  C_7 
REMARK    2  A    between atoms: C_10  and  N_11 
REMARK       I    between atoms: N_11  and  C_14 
REMARK    3  A    between atoms: C_14  and  C_20 
REMARK    4  A    between atoms: C_20  and  S_16 
ROOT
ATOM      1  N   UNL d   1     -38.737  14.139  22.010  0.00  0.00    -0.167 N 
ATOM      2  C   UNL d   1     -38.937  14.841  22.384  0.00  0.00     0.220 A 
ATOM      3  C   UNL d   1     -38.431  13.500  22.441  0.00  0.00     0.301 A 
ATOM      4  S   UNL d   1     -39.222  15.359  21.807  0.00  0.00    -0.019 SA
ATOM      5  N   UNL d   1     -38.894  14.213  21.211  0.00  0.00    -0.147 NA
ATOM      6  N   UNL d   1     -38.835  14.919  23.197  0.00  0.00    -0.121 NA
ATOM      7  C   UNL d   1     -39.194  14.969  21.085  0.00  0.00     0.164 A 
ATOM      8  N   UNL d   1     -38.533  14.294  23.637  0.00  0.00    -0.141 NA
ATOM      9  C   UNL d   1     -38.331  13.588  23.261  0.00  0.00     0.161 A 
ATOM     10  O   UNL d   1     -38.232  12.801  22.069  0.00  0.00    -0.263 OA
ATOM     11  C   UNL d   1     -38.028  12.960  23.697  0.00  0.00     0.028 C 
ENDROOT
BRANCH   7  12
ATOM     12  S   UNL d   1     -39.428  15.284  20.359  0.00  0.00    -0.054 SA
BRANCH  12  13
ATOM     13  C   UNL d   1     -39.885  14.840  19.841  0.00  0.00     0.100 C 
BRANCH  13  14
ATOM     14  C   UNL d   1     -40.068  15.143  19.093  0.00  0.00     0.288 C 
ATOM     15  N   UNL d   1     -40.488  14.679  18.551  0.00  0.00    -0.182 NA
ATOM     16  O   UNL d   1     -39.831  15.907  18.890  0.00  0.00    -0.265 OA
BRANCH  15  17
ATOM     17  C   UNL d   1     -40.669  14.982  17.806  0.00  0.00     0.197 A 
ATOM     18  N   UNL d   1     -41.384  15.343  17.584  0.00  0.00    -0.219 NA
ATOM     19  C   UNL d   1     -41.323  15.561  16.794  0.00  0.00     0.108 A 
ATOM     20  C   UNL d   1     -40.570  15.336  16.523  0.00  0.00     0.059 A 
ATOM     21  S   UNL d   1     -40.175  14.982  17.148  0.00  0.00    -0.046 SA
ENDBRANCH  15  17
ENDBRANCH  13  14
ENDBRANCH  12  13
ENDBRANCH   7  12
TORSDOF 4
ENDMDL
MODEL 5
REMARK VINA RESULT:      -4.4      9.383     10.754
REMARK  4 active torsions:
REMARK  status: ('A' for Active; 'I' for Inactive)
REMARK    1  A    between atoms: S_16  and  C_7 
REMARK    2  A    between atoms: C_10  and  N_11 
REMARK       I    between atoms: N_11  and  C_14 
REMARK    3  A    between atoms: C_14  and  C_20 
REMARK    4  A    between atoms: C_20  and  S_16 
ROOT
ATOM      1  N   UNL d   1     -38.194  14.588  17.411  0.00  0.00    -0.167 N 
ATOM      2  C   UNL d   1     -38.408  15.359  17.234  0.00  0.00     0.220 A 
ATOM      3  C   UNL d   1     -38.152  14.011  16.817  0.00  0.00     0.301 A 
ATOM      4  S   UNL d   1     -38.396  15.790  17.940  0.00  0.00    -0.019 SA
ATOM      5  N   UNL d   1     -38.050  14.532  18.215  0.00  0.00    -0.147 NA
ATOM      6  N   UNL d   1     -38.584  15.571  16.459  0.00  0.00    -0.121 NA
ATOM      7  C   UNL d   1     -38.176  15.277  18.542  0.00  0.00     0.164 A 
ATOM      8  N   UNL d   1     -38.547  15.011  15.860  0.00  0.00    -0.141 NA
ATOM      9  C   UNL d   1     -38.332  14.234  16.038  0.00  0.00     0.161 A 
ATOM     10  O   UNL d   1     -37.940  13.242  16.993  0.00  0.00    -0.263 OA
ATOM     11  C   UNL d   1     -38.294  13.669  15.440  0.00  0.00     0.028 C 
ENDROOT
BRANCH   7  12
ATOM     12  S   UNL d   1     -38.094  15.477  19.339  0.00  0.00    -0.054 SA
BRANCH  12  13
ATOM     13  C   UNL d   1     -38.707  15.337  19.867  0.00  0.00     0.100 C 
BRANCH  13  14
ATOM     14  C   UNL d   1     -38.577  15.431  20.679  0.00  0.00     0.288 C 
ATOM     15  N   UNL d   1     -39.057  15.032  21.222  0.00  0.00    -0.182 NA
ATOM     16  O   UNL d   1     -37.969  15.922  20.944  0.00  0.00    -0.265 OA
BRANCH  15  17
ATOM     17  C   UNL d   1     -38.926  15.126  22.032  0.00  0.00     0.197 A 
ATOM     18  N   UNL d   1     -39.110  15.799  22.483  0.00  0.00    -0.219 NA
ATOM     19  C   UNL d   1     -38.887  15.652  23.260  0.00  0.00     0.108 A 
ATOM     20  C   UNL d   1     -38.562  14.887  23.293  0.00  0.00     0.059 A 
ATOM     21  S   UNL d   1     -38.590  14.572  22.537  0.00  0.00    -0.046 SA
ENDBRANCH  15  17
ENDBRANCH  13  14
ENDBRANCH  12  13
ENDBRANCH   7  12
TORSDOF 4
ENDMDL
MODEL 6
REMARK VINA RESULT:      -4.4      8.564     10.124
REMARK  4 active torsions:
REMARK  status: ('A' for Active; 'I' for Inactive)
REMARK    1  A    between atoms: S_16  and  C_7 
REMARK    2  A    between atoms: C_10  and  N_11 
REMARK       I    between atoms: N_11  and  C_14 
REMARK    3  A    between atoms: C_14  and  C_20 
REMARK    4  A    between atoms: C_20  and  S_16 
ROOT
ATOM      1  N   UNL d   1     -39.898  15.470  19.950  0.00  0.00    -0.167 N 
ATOM      2  C   UNL d   1     -40.697  15.336  19.825  0.00  0.00     0.220 A 
ATOM      3  C   UNL d   1     -39.612  15.663  20.704  0.00  0.00     0.301 A 
ATOM      4  S   UNL d   1     -40.799  15.159  19.024  0.00  0.00    -0.019 SA
ATOM      5  N   UNL d   1     -39.502  15.380  19.239  0.00  0.00    -0.147 NA
ATOM      6  N   UNL d   1     -41.228  15.391  20.452  0.00  0.00    -0.121 NA
ATOM      7  C   UNL d   1     -40.061  15.187  18.666  0.00  0.00     0.164 A 
ATOM      8  N   UNL d   1     -40.958  15.581  21.205  0.00  0.00    -0.141 NA
ATOM      9  C   UNL d   1     -40.154  15.716  21.330  0.00  0.00     0.161 A 
ATOM     10  O   UNL d   1     -38.815  15.797  20.828  0.00  0.00    -0.263 OA
ATOM     11  C   UNL d   1     -39.879  15.906  22.082  0.00  0.00     0.028 C 
ENDROOT
BRANCH   7  12
ATOM     12  S   UNL d   1     -39.908  15.045  17.868  0.00  0.00    -0.054 SA
BRANCH  12  13
ATOM     13  C   UNL d   1     -39.190  14.724  17.633  0.00  0.00     0.100 C 
BRANCH  13  14
ATOM     14  C   UNL d   1     -39.014  14.660  16.827  0.00  0.00     0.288 C 
ATOM     15  N   UNL d   1     -38.383  14.185  16.578  0.00  0.00    -0.182 NA
ATOM     16  O   UNL d   1     -39.468  15.070  16.273  0.00  0.00    -0.265 OA
BRANCH  15  17
ATOM     17  C   UNL d   1     -38.209  14.122  15.774  0.00  0.00     0.197 A 
ATOM     18  N   UNL d   1     -38.104  14.753  15.244  0.00  0.00    -0.219 NA
ATOM     19  C   UNL d   1     -37.940  14.438  14.504  0.00  0.00     0.108 A 
ATOM     20  C   UNL d   1     -37.941  13.609  14.572  0.00  0.00     0.059 A 
ATOM     21  S   UNL d   1     -38.107  13.424  15.353  0.00  0.00    -0.046 SA
ENDBRANCH  15  17
ENDBRANCH  13  14
ENDBRANCH  12  13
ENDBRANCH   7  12
TORSDOF 4
ENDMDL
MODEL 7
REMARK VINA RESULT:      -4.1      9.136     10.506
REMARK  4 active torsions:
REMARK  status: ('A' for Active; 'I' for Inactive)
REMARK    1  A    between atoms: S_16  and  C_7 
REMARK    2  A    between atoms: C_10  and  N_11 
REMARK       I    between atoms: N_11  and  C_14 
REMARK    3  A    between atoms: C_14  and  C_20 
REMARK    4  A    between atoms: C_20  and  S_16 
ROOT
ATOM      1  N   UNL d   1     -38.647  14.099  21.552  0.00  0.00    -0.167 N 
ATOM      2  C   UNL d   1     -38.153  13.498  21.296  0.00  0.00     0.220 A 
ATOM      3  C   UNL d   1     -38.958  14.095  22.321  0.00  0.00     0.301 A 
ATOM      4  S   UNL d   1     -37.941  13.664  20.514  0.00  0.00    -0.019 SA
ATOM      5  N   UNL d   1     -38.746  14.636  20.943  0.00  0.00    -0.147 NA
ATOM      6  N   UNL d   1     -37.959  12.878  21.802  0.00  0.00    -0.121 NA
ATOM      7  C   UNL d   1     -38.309  14.366  20.300  0.00  0.00     0.164 A 
ATOM      8  N   UNL d   1     -38.259  12.861  22.566  0.00  0.00    -0.141 NA
ATOM      9  C   UNL d   1     -38.757  13.466  22.824  0.00  0.00     0.161 A 
ATOM     10  O   UNL d   1     -39.451  14.694  22.577  0.00  0.00    -0.263 OA
ATOM     11  C   UNL d   1     -39.061  13.453  23.589  0.00  0.00     0.028 C 
ENDROOT
BRANCH   7  12
ATOM     12  S   UNL d   1     -38.248  14.736  19.565  0.00  0.00    -0.054 SA
BRANCH  12  13
ATOM     13  C   UNL d   1     -38.598  14.403  18.901  0.00  0.00     0.100 C 
BRANCH  13  14
ATOM     14  C   UNL d   1     -38.454  14.729  18.155  0.00  0.00     0.288 C 
ATOM     15  N   UNL d   1     -38.796  14.388  17.482  0.00  0.00    -0.182 NA
ATOM     16  O   UNL d   1     -37.971  15.394  18.083  0.00  0.00    -0.265 OA
BRANCH  15  17
ATOM     17  C   UNL d   1     -38.651  14.714  16.738  0.00  0.00     0.197 A 
ATOM     18  N   UNL d   1     -39.077  15.332  16.383  0.00  0.00    -0.219 NA
ATOM     19  C   UNL d   1     -38.745  15.479  15.646  0.00  0.00     0.108 A 
ATOM     20  C   UNL d   1     -38.111  14.951  15.542  0.00  0.00     0.059 A 
ATOM     21  S   UNL d   1     -38.060  14.486  16.215  0.00  0.00    -0.046 SA
ENDBRANCH  15  17
ENDBRANCH  13  14
ENDBRANCH  12  13
ENDBRANCH   7  12
TORSDOF 4
ENDMDL
