MODEL 1
REMARK VINA RESULT:      -6.0      0.000      0.000
REMARK  8 active torsions:
REMARK  status: ('A' for Active; 'I' for Inactive)
REMARK    1  A    between atoms: C_5  and  C_1 
REMARK    2  A    between atoms: N_6  and  C_2 
REMARK    3  A    between atoms: C_7  and  C_5 
REMARK    4  A    between atoms: C_8  and  C_5 
REMARK    5  A    between atoms: O_12  and  C_7 
REMARK    6  A    between atoms: C_14  and  O_12 
REMARK    7  A    between atoms: C_19  and  C_14 
REMARK    8  A    between atoms: C_20  and  C_19 
ROOT
ATOM      1  C   UNL d   1     -48.540  13.864  22.669  0.00  0.00     0.122 A 
ATOM      2  C   UNL d   1     -49.016  13.296  23.025  0.00  0.00     0.166 A 
ATOM      3  N   UNL d   1     -49.734  13.525  23.370  0.00  0.00    -0.225 NA
ATOM      4  N   UNL d   1     -48.774  14.656  22.653  0.00  0.00    -0.241 NA
ATOM      5  C   UNL d   1     -49.967  14.312  23.355  0.00  0.00     0.101 A 
ATOM      6  C   UNL d   1     -49.486  14.879  22.996  0.00  0.00     0.099 A 
ATOM      7  C   UNL d   1     -50.680  14.534  23.698  0.00  0.00     0.021 A 
ATOM      8  C   UNL d   1     -49.719  15.666  22.981  0.00  0.00     0.021 A 
ATOM      9  C   UNL d   1     -50.433  15.900  23.323  0.00  0.00     0.002 A 
ATOM     10  C   UNL d   1     -50.913  15.327  23.682  0.00  0.00     0.002 A 
ENDROOT
BRANCH   1  11
ATOM     11  C   UNL d   1     -47.816  13.641  22.320  0.00  0.00     0.105 C 
BRANCH  11  12
ATOM     12  C   UNL d   1     -47.106  13.914  22.630  0.00  0.00     0.303 C 
ATOM     13  O   UNL d   1     -47.103  14.509  23.199  0.00  0.00    -0.259 OA
BRANCH  12  14
ATOM     14  O   UNL d   1     -46.391  13.588  22.368  0.00  0.00    -0.271 OA
BRANCH  14  15
ATOM     15  C   UNL d   1     -45.581  13.653  22.265  0.00  0.00     0.126 C 
BRANCH  15  16
ATOM     16  C   UNL d   1     -45.126  12.978  22.185  0.00  0.00     0.025 C 
ATOM     17  C   UNL d   1     -45.109  12.429  22.790  0.00  0.00     0.002 C 
BRANCH  16  18
ATOM     18  C   UNL d   1     -44.689  12.857  21.497  0.00  0.00     0.002 C 
ATOM     19  C   UNL d   1     -43.874  12.733  21.539  0.00  0.00     0.000 C 
ENDBRANCH  16  18
ENDBRANCH  15  16
ENDBRANCH  14  15
ENDBRANCH  12  14
ENDBRANCH  11  12
BRANCH  11  20
ATOM     20  C   UNL d   1     -47.813  13.139  21.655  0.00  0.00     0.129 C 
ATOM     21  N   UNL d   1     -47.929  13.467  20.765  0.00  0.00    -0.146 N 
ENDBRANCH  11  20
ENDBRANCH   1  11
BRANCH   2  22
ATOM     22  N   UNL d   1     -48.785  12.501  23.042  0.00  0.00    -0.288 N 
ATOM     23  C   UNL d   1     -48.349  12.221  23.683  0.00  0.00     0.082 A 
ATOM     24  C   UNL d   1     -48.119  11.423  23.697  0.00  0.00     0.019 A 
ATOM     25  C   UNL d   1     -48.326  10.916  23.073  0.00  0.00     0.003 A 
ATOM     26  C   UNL d   1     -48.763  11.207  22.435  0.00  0.00     0.019 A 
ATOM     27  C   UNL d   1     -48.991  11.994  22.418  0.00  0.00     0.082 A 
ENDBRANCH   2  22
TORSDOF 8
ENDMDL
