MODEL 1
REMARK VINA RESULT:      -5.1      0.000      0.000
REMARK  4 active torsions:
REMARK  status: ('A' for Active; 'I' for Inactive)
REMARK    1  A    between atoms: C_2  and  C_1 
REMARK    2  A    between atoms: C_3  and  C_2 
REMARK    3  A    between atoms: C_5  and  C_3 
REMARK    4  A    between atoms: O_12  and  C_7 
ROOT
ATOM      1  C   UNL d   1      56.552  -0.258  32.152  0.00  0.00     0.000 A 
ATOM      2  C   UNL d   1      55.442  -0.054  33.357  0.00  0.00     0.094 A 
ATOM      3  C   UNL d   1      56.232  -0.916  32.538  0.00  0.00     0.002 A 
ATOM      4  C   UNL d   1      56.314   0.503  32.372  0.00  0.00     0.002 A 
ATOM      5  C   UNL d   1      55.680  -0.815  33.137  0.00  0.00     0.024 A 
ATOM      6  C   UNL d   1      55.757   0.601  32.976  0.00  0.00     0.024 A 
ENDROOT
BRANCH   1   7
ATOM      7  C   UNL d   1      57.107  -0.366  31.551  0.00  0.00     0.006 C 
BRANCH   7   8
ATOM      8  C   UNL d   1      57.390   0.288  31.136  0.00  0.00     0.070 C 
BRANCH   8   9
ATOM      9  C   UNL d   1      57.967   0.191  30.560  0.00  0.00     0.211 C 
ATOM     10  O   UNL d   1      57.779  -0.180  29.851  0.00  0.00    -0.644 OA
ATOM     11  O   UNL d   1      58.729   0.461  30.693  0.00  0.00    -0.644 OA
ENDBRANCH   8   9
ENDBRANCH   7   8
ENDBRANCH   1   7
BRANCH   2  12
ATOM     12  O   UNL d   1      54.890   0.047  33.956  0.00  0.00    -0.328 OA
ATOM     13  C   UNL d   1      54.956   0.682  34.475  0.00  0.00     0.181 C 
ENDBRANCH   2  12
TORSDOF 4
ENDMDL
MODEL 2
REMARK VINA RESULT:      -4.5      0.695      3.536
REMARK  4 active torsions:
REMARK  status: ('A' for Active; 'I' for Inactive)
REMARK    1  A    between atoms: C_2  and  C_1 
REMARK    2  A    between atoms: C_3  and  C_2 
REMARK    3  A    between atoms: C_5  and  C_3 
REMARK    4  A    between atoms: O_12  and  C_7 
ROOT
ATOM      1  C   UNL d   1      56.571   0.033  32.386  0.00  0.00     0.000 A 
ATOM      2  C   UNL d   1      57.297  -0.203  30.922  0.00  0.00     0.094 A 
ATOM      3  C   UNL d   1      56.686  -0.734  32.098  0.00  0.00     0.002 A 
ATOM      4  C   UNL d   1      56.821   0.682  31.938  0.00  0.00     0.002 A 
ATOM      5  C   UNL d   1      57.047  -0.852  31.370  0.00  0.00     0.024 A 
ATOM      6  C   UNL d   1      57.184   0.560  31.205  0.00  0.00     0.024 A 
ENDROOT
BRANCH   1   7
ATOM      7  C   UNL d   1      56.207   0.144  33.119  0.00  0.00     0.006 C 
BRANCH   7   8
ATOM      8  C   UNL d   1      55.410  -0.048  33.210  0.00  0.00     0.070 C 
BRANCH   8   9
ATOM      9  C   UNL d   1      55.012   0.166  33.896  0.00  0.00     0.211 C 
ATOM     10  O   UNL d   1      54.371   0.678  33.854  0.00  0.00    -0.644 OA
ATOM     11  O   UNL d   1      55.255  -0.129  34.620  0.00  0.00    -0.644 OA
ENDBRANCH   8   9
ENDBRANCH   7   8
ENDBRANCH   1   7
BRANCH   2  12
ATOM     12  O   UNL d   1      57.657  -0.320  30.195  0.00  0.00    -0.328 OA
ATOM     13  C   UNL d   1      58.436  -0.082  30.077  0.00  0.00     0.181 C 
ENDBRANCH   2  12
TORSDOF 4
ENDMDL
MODEL 3
REMARK VINA RESULT:      -3.3      0.947      3.763
REMARK  4 active torsions:
REMARK  status: ('A' for Active; 'I' for Inactive)
REMARK    1  A    between atoms: C_2  and  C_1 
REMARK    2  A    between atoms: C_3  and  C_2 
REMARK    3  A    between atoms: C_5  and  C_3 
REMARK    4  A    between atoms: O_12  and  C_7 
ROOT
ATOM      1  C   UNL d   1      57.179  -0.266  31.299  0.00  0.00     0.000 A 
ATOM      2  C   UNL d   1      58.164   0.099  30.025  0.00  0.00     0.094 A 
ATOM      3  C   UNL d   1      57.692  -0.839  30.993  0.00  0.00     0.002 A 
ATOM      4  C   UNL d   1      57.161   0.490  30.965  0.00  0.00     0.002 A 
ATOM      5  C   UNL d   1      58.182  -0.657  30.359  0.00  0.00     0.024 A 
ATOM      6  C   UNL d   1      57.656   0.670  30.327  0.00  0.00     0.024 A 
ENDROOT
BRANCH   1   7
ATOM      7  C   UNL d   1      56.690  -0.455  31.937  0.00  0.00     0.006 C 
BRANCH   7   8
ATOM      8  C   UNL d   1      56.417   0.146  32.432  0.00  0.00     0.070 C 
BRANCH   8   9
ATOM      9  C   UNL d   1      56.010  -0.043  33.119  0.00  0.00     0.211 C 
ATOM     10  O   UNL d   1      56.385   0.021  33.848  0.00  0.00    -0.644 OA
ATOM     11  O   UNL d   1      55.231  -0.294  33.079  0.00  0.00    -0.644 OA
ENDBRANCH   8   9
ENDBRANCH   7   8
ENDBRANCH   1   7
BRANCH   2  12
ATOM     12  O   UNL d   1      58.653   0.280  29.392  0.00  0.00    -0.328 OA
ATOM     13  C   UNL d   1      58.729  -0.248  28.765  0.00  0.00     0.181 C 
ENDBRANCH   2  12
TORSDOF 4
ENDMDL
MODEL 4
REMARK VINA RESULT:      -3.0      9.520     10.452
REMARK  4 active torsions:
REMARK  status: ('A' for Active; 'I' for Inactive)
REMARK    1  A    between atoms: C_2  and  C_1 
REMARK    2  A    between atoms: C_3  and  C_2 
REMARK    3  A    between atoms: C_5  and  C_3 
REMARK    4  A    between atoms: O_12  and  C_7 
ROOT
ATOM      1  C   UNL d   1      59.837  -9.297  34.110  0.00  0.00     0.000 A 
ATOM      2  C   UNL d   1      60.231  -9.645  32.545  0.00  0.00     0.094 A 
ATOM      3  C   UNL d   1      59.242  -9.449  33.555  0.00  0.00     0.002 A 
ATOM      4  C   UNL d   1      60.630  -9.319  33.878  0.00  0.00     0.002 A 
ATOM      5  C   UNL d   1      59.437  -9.622  32.777  0.00  0.00     0.024 A 
ATOM      6  C   UNL d   1      60.824  -9.494  33.092  0.00  0.00     0.024 A 
ENDROOT
BRANCH   1   7
ATOM      7  C   UNL d   1      59.632  -9.123  34.891  0.00  0.00     0.006 C 
BRANCH   7   8
ATOM      8  C   UNL d   1      59.657  -8.341  35.153  0.00  0.00     0.070 C 
BRANCH   8   9
ATOM      9  C   UNL d   1      59.461  -8.163  35.930  0.00  0.00     0.211 C 
ATOM     10  O   UNL d   1      59.818  -7.526  36.306  0.00  0.00    -0.644 OA
ATOM     11  O   UNL d   1      58.910  -8.620  36.329  0.00  0.00    -0.644 OA
ENDBRANCH   8   9
ENDBRANCH   7   8
ENDBRANCH   1   7
BRANCH   2  12
ATOM     12  O   UNL d   1      60.427  -9.818  31.767  0.00  0.00    -0.328 OA
ATOM     13  C   UNL d   1      61.113  -9.506  31.436  0.00  0.00     0.181 C 
ENDBRANCH   2  12
TORSDOF 4
ENDMDL
MODEL 5
REMARK VINA RESULT:      -2.6      1.547      4.233
REMARK  4 active torsions:
REMARK  status: ('A' for Active; 'I' for Inactive)
REMARK    1  A    between atoms: C_2  and  C_1 
REMARK    2  A    between atoms: C_3  and  C_2 
REMARK    3  A    between atoms: C_5  and  C_3 
REMARK    4  A    between atoms: O_12  and  C_7 
ROOT
ATOM      1  C   UNL d   1      57.952   0.617  30.655  0.00  0.00     0.000 A 
ATOM      2  C   UNL d   1      59.140   0.630  29.509  0.00  0.00     0.094 A 
ATOM      3  C   UNL d   1      58.747   0.632  30.882  0.00  0.00     0.002 A 
ATOM      4  C   UNL d   1      57.753   0.608  29.852  0.00  0.00     0.002 A 
ATOM      5  C   UNL d   1      59.339   0.639  30.312  0.00  0.00     0.024 A 
ATOM      6  C   UNL d   1      58.351   0.615  29.281  0.00  0.00     0.024 A 
ENDROOT
BRANCH   1   7
ATOM      7  C   UNL d   1      57.362   0.610  31.233  0.00  0.00     0.006 C 
BRANCH   7   8
ATOM      8  C   UNL d   1      57.238  -0.073  31.679  0.00  0.00     0.070 C 
BRANCH   8   9
ATOM      9  C   UNL d   1      56.619  -0.105  32.217  0.00  0.00     0.211 C 
ATOM     10  O   UNL d   1      56.435   0.558  32.667  0.00  0.00    -0.644 OA
ATOM     11  O   UNL d   1      56.187  -0.795  32.307  0.00  0.00    -0.644 OA
ENDBRANCH   8   9
ENDBRANCH   7   8
ENDBRANCH   1   7
BRANCH   2  12
ATOM     12  O   UNL d   1      59.731   0.637  28.940  0.00  0.00    -0.328 OA
ATOM     13  C   UNL d   1      60.521   0.682  29.166  0.00  0.00     0.181 C 
ENDBRANCH   2  12
TORSDOF 4
ENDMDL
MODEL 6
REMARK VINA RESULT:      -2.6      9.875     10.128
REMARK  4 active torsions:
REMARK  status: ('A' for Active; 'I' for Inactive)
REMARK    1  A    between atoms: C_2  and  C_1 
REMARK    2  A    between atoms: C_3  and  C_2 
REMARK    3  A    between atoms: C_5  and  C_3 
REMARK    4  A    between atoms: O_12  and  C_7 
ROOT
ATOM      1  C   UNL d   1      59.655  -9.447  33.825  0.00  0.00     0.000 A 
ATOM      2  C   UNL d   1      60.344  -8.889  35.217  0.00  0.00     0.094 A 
ATOM      3  C   UNL d   1      60.420  -9.134  33.813  0.00  0.00     0.002 A 
ATOM      4  C   UNL d   1      59.235  -9.480  34.537  0.00  0.00     0.002 A 
ATOM      5  C   UNL d   1      60.763  -8.856  34.505  0.00  0.00     0.024 A 
ATOM      6  C   UNL d   1      59.584  -9.200  35.232  0.00  0.00     0.024 A 
ENDROOT
BRANCH   1   7
ATOM      7  C   UNL d   1      59.316  -9.724  33.124  0.00  0.00     0.006 C 
BRANCH   7   8
ATOM      8  C   UNL d   1      58.530  -9.540  32.952  0.00  0.00     0.070 C 
BRANCH   8   9
ATOM      9  C   UNL d   1      58.218  -9.725  32.216  0.00  0.00     0.211 C 
ATOM     10  O   UNL d   1      57.406  -9.816  32.127  0.00  0.00    -0.644 OA
ATOM     11  O   UNL d   1      58.714  -9.818  31.571  0.00  0.00    -0.644 OA
ENDBRANCH   8   9
ENDBRANCH   7   8
ENDBRANCH   1   7
BRANCH   2  12
ATOM     12  O   UNL d   1      60.687  -8.612  35.909  0.00  0.00    -0.328 OA
ATOM     13  C   UNL d   1      60.843  -7.809  35.999  0.00  0.00     0.181 C 
ENDBRANCH   2  12
TORSDOF 4
ENDMDL
MODEL 7
REMARK VINA RESULT:      -2.3      1.137      1.627
REMARK  4 active torsions:
REMARK  status: ('A' for Active; 'I' for Inactive)
REMARK    1  A    between atoms: C_2  and  C_1 
REMARK    2  A    between atoms: C_3  and  C_2 
REMARK    3  A    between atoms: C_5  and  C_3 
REMARK    4  A    between atoms: O_12  and  C_7 
ROOT
ATOM      1  C   UNL d   1      56.328   0.284  33.328  0.00  0.00     0.000 A 
ATOM      2  C   UNL d   1      55.468   0.550  34.712  0.00  0.00     0.094 A 
ATOM      3  C   UNL d   1      55.507   0.381  33.295  0.00  0.00     0.002 A 
ATOM      4  C   UNL d   1      56.717   0.321  34.057  0.00  0.00     0.002 A 
ATOM      5  C   UNL d   1      55.078   0.512  33.984  0.00  0.00     0.024 A 
ATOM      6  C   UNL d   1      56.282   0.454  34.749  0.00  0.00     0.024 A 
ENDROOT
BRANCH   1   7
ATOM      7  C   UNL d   1      56.751   0.152  32.632  0.00  0.00     0.006 C 
BRANCH   7   8
ATOM      8  C   UNL d   1      56.420  -0.314  32.037  0.00  0.00     0.070 C 
BRANCH   8   9
ATOM      9  C   UNL d   1      56.897  -0.617  31.441  0.00  0.00     0.211 C 
ATOM     10  O   UNL d   1      57.051  -1.424  31.411  0.00  0.00    -0.644 OA
ATOM     11  O   UNL d   1      57.217  -0.116  30.878  0.00  0.00    -0.644 OA
ENDBRANCH   8   9
ENDBRANCH   7   8
ENDBRANCH   1   7
BRANCH   2  12
ATOM     12  O   UNL d   1      55.040   0.681  35.400  0.00  0.00    -0.328 OA
ATOM     13  C   UNL d   1      54.863   0.054  35.902  0.00  0.00     0.181 C 
ENDBRANCH   2  12
TORSDOF 4
ENDMDL
