MODEL 1
REMARK VINA RESULT:      58.3      0.000      0.000
REMARK  5 active torsions:
REMARK  status: ('A' for Active; 'I' for Inactive)
REMARK    1  A    between atoms: C_10  and  C_2 
REMARK    2  A    between atoms: S_8  and  C_3 
REMARK    3  A    between atoms: C_6  and  N_7 
REMARK       I    between atoms: N_7  and  C_9 
REMARK    4  A    between atoms: C_15  and  S_8 
REMARK    5  A    between atoms: C_9  and  C_15 
ROOT
ATOM      1  S   UNL d   1     -49.629  27.613  33.840  0.00  0.00    -0.041 SA
ENDROOT
BRANCH   1   2
ATOM      2  C   UNL d   1     -49.786  26.833  33.653  0.00  0.00     0.219 A 
ATOM      3  N   UNL d   1     -50.555  26.549  33.670  0.00  0.00    -0.167 N 
ATOM      4  C   UNL d   1     -50.541  25.765  33.462  0.00  0.00     0.189 A 
ATOM      5  N   UNL d   1     -51.225  26.988  33.866  0.00  0.00    -0.038 N 
ATOM      6  N   UNL d   1     -49.785  25.527  33.309  0.00  0.00    -0.126 NA
ATOM      7  N   UNL d   1     -49.313  26.194  33.428  0.00  0.00    -0.120 NA
BRANCH   4   8
ATOM      8  C   UNL d   1     -51.197  25.273  33.411  0.00  0.00     0.038 A 
ATOM      9  C   UNL d   1     -51.101  24.436  33.359  0.00  0.00     0.003 A 
ATOM     10  C   UNL d   1     -51.763  23.936  33.307  0.00  0.00     0.000 A 
ATOM     11  C   UNL d   1     -52.530  24.280  33.308  0.00  0.00     0.000 A 
ATOM     12  C   UNL d   1     -52.615  25.111  33.361  0.00  0.00     0.000 A 
ATOM     13  C   UNL d   1     -51.960  25.599  33.411  0.00  0.00     0.003 A 
ENDBRANCH   4   8
ENDBRANCH   1   2
BRANCH   1  14
ATOM     14  C   UNL d   1     -48.850  27.895  33.876  0.00  0.00     0.101 C 
BRANCH  14  15
ATOM     15  C   UNL d   1     -48.606  28.374  34.485  0.00  0.00     0.286 C 
ATOM     16  N   UNL d   1     -48.152  29.063  34.309  0.00  0.00    -0.208 NA
ATOM     17  O   UNL d   1     -48.794  28.198  35.258  0.00  0.00    -0.265 OA
BRANCH  16  18
ATOM     18  C   UNL d   1     -47.900  29.557  34.937  0.00  0.00     0.085 A 
ATOM     19  C   UNL d   1     -47.858  30.378  34.828  0.00  0.00     0.018 A 
ATOM     20  C   UNL d   1     -47.610  30.865  35.447  0.00  0.00     0.002 A 
ATOM     21  C   UNL d   1     -48.060  30.708  34.113  0.00  0.00     0.002 C 
ATOM     22  C   UNL d   1     -47.404  30.531  36.175  0.00  0.00     0.000 A 
ATOM     23  C   UNL d   1     -47.449  29.715  36.271  0.00  0.00     0.002 A 
ATOM     24  C   UNL d   1     -47.690  29.242  35.671  0.00  0.00     0.019 A 
ATOM     25  C   UNL d   1     -47.244  29.384  36.997  0.00  0.00     0.000 C 
ENDBRANCH  16  18
ENDBRANCH  14  15
ENDBRANCH   1  14
TORSDOF 5
ENDMDL
MODEL 2
REMARK VINA RESULT:      58.3      0.948      5.778
REMARK  5 active torsions:
REMARK  status: ('A' for Active; 'I' for Inactive)
REMARK    1  A    between atoms: C_10  and  C_2 
REMARK    2  A    between atoms: S_8  and  C_3 
REMARK    3  A    between atoms: C_6  and  N_7 
REMARK       I    between atoms: N_7  and  C_9 
REMARK    4  A    between atoms: C_15  and  S_8 
REMARK    5  A    between atoms: C_9  and  C_15 
ROOT
ATOM      1  S   UNL d   1     -49.326  27.366  33.836  0.00  0.00    -0.041 SA
ENDROOT
BRANCH   1   2
ATOM      2  C   UNL d   1     -49.257  28.115  34.159  0.00  0.00     0.219 A 
ATOM      3  N   UNL d   1     -48.573  28.335  34.554  0.00  0.00    -0.167 N 
ATOM      4  C   UNL d   1     -48.664  29.100  34.810  0.00  0.00     0.189 A 
ATOM      5  N   UNL d   1     -47.911  27.859  34.668  0.00  0.00    -0.038 N 
ATOM      6  N   UNL d   1     -49.387  29.386  34.595  0.00  0.00    -0.126 NA
ATOM      7  N   UNL d   1     -49.758  28.771  34.188  0.00  0.00    -0.120 NA
BRANCH   4   8
ATOM      8  C   UNL d   1     -48.105  29.530  35.231  0.00  0.00     0.038 A 
ATOM      9  C   UNL d   1     -47.967  29.367  36.048  0.00  0.00     0.003 A 
ATOM     10  C   UNL d   1     -47.402  29.800  36.476  0.00  0.00     0.000 A 
ATOM     11  C   UNL d   1     -46.970  30.404  36.081  0.00  0.00     0.000 A 
ATOM     12  C   UNL d   1     -47.114  30.557  35.271  0.00  0.00     0.000 A 
ATOM     13  C   UNL d   1     -47.672  30.128  34.853  0.00  0.00     0.003 A 
ENDBRANCH   4   8
ENDBRANCH   1   2
BRANCH   1  14
ATOM     14  C   UNL d   1     -50.031  27.119  33.478  0.00  0.00     0.101 C 
BRANCH  14  15
ATOM     15  C   UNL d   1     -50.251  26.336  33.481  0.00  0.00     0.286 C 
ATOM     16  N   UNL d   1     -51.051  26.133  33.306  0.00  0.00    -0.208 NA
ATOM     17  O   UNL d   1     -49.710  25.750  33.650  0.00  0.00    -0.265 OA
BRANCH  16  18
ATOM     18  C   UNL d   1     -51.277  25.326  33.309  0.00  0.00     0.085 A 
ATOM     19  C   UNL d   1     -52.080  25.120  33.315  0.00  0.00     0.018 A 
ATOM     20  C   UNL d   1     -52.303  24.326  33.318  0.00  0.00     0.002 A 
ATOM     21  C   UNL d   1     -52.651  25.699  33.317  0.00  0.00     0.002 C 
ATOM     22  C   UNL d   1     -51.722  23.736  33.315  0.00  0.00     0.000 A 
ATOM     23  C   UNL d   1     -50.928  23.953  33.310  0.00  0.00     0.002 A 
ATOM     24  C   UNL d   1     -50.712  24.724  33.307  0.00  0.00     0.019 A 
ATOM     25  C   UNL d   1     -50.352  23.365  33.307  0.00  0.00     0.000 C 
ENDBRANCH  16  18
ENDBRANCH  14  15
ENDBRANCH   1  14
TORSDOF 5
ENDMDL
MODEL 3
REMARK VINA RESULT:      59.6      1.093      5.801
REMARK  5 active torsions:
REMARK  status: ('A' for Active; 'I' for Inactive)
REMARK    1  A    between atoms: C_10  and  C_2 
REMARK    2  A    between atoms: S_8  and  C_3 
REMARK    3  A    between atoms: C_6  and  N_7 
REMARK       I    between atoms: N_7  and  C_9 
REMARK    4  A    between atoms: C_15  and  S_8 
REMARK    5  A    between atoms: C_9  and  C_15 
ROOT
ATOM      1  S   UNL d   1     -48.849  28.418  34.695  0.00  0.00    -0.041 SA
ENDROOT
BRANCH   1   2
ATOM      2  C   UNL d   1     -48.233  28.927  34.869  0.00  0.00     0.219 A 
ATOM      3  N   UNL d   1     -48.326  29.737  34.780  0.00  0.00    -0.167 N 
ATOM      4  C   UNL d   1     -47.630  30.097  34.991  0.00  0.00     0.189 A 
ATOM      5  N   UNL d   1     -49.010  30.115  34.520  0.00  0.00    -0.038 N 
ATOM      6  N   UNL d   1     -47.085  29.547  35.216  0.00  0.00    -0.126 NA
ATOM      7  N   UNL d   1     -47.460  28.816  35.140  0.00  0.00    -0.120 NA
BRANCH   4   8
ATOM      8  C   UNL d   1     -47.491  30.907  34.981  0.00  0.00     0.038 A 
ATOM      9  C   UNL d   1     -47.311  31.318  35.697  0.00  0.00     0.003 A 
ATOM     10  C   UNL d   1     -47.170  32.136  35.690  0.00  0.00     0.000 A 
ATOM     11  C   UNL d   1     -47.209  32.548  34.958  0.00  0.00     0.000 A 
ATOM     12  C   UNL d   1     -47.388  32.132  34.255  0.00  0.00     0.000 A 
ATOM     13  C   UNL d   1     -47.527  31.324  34.266  0.00  0.00     0.003 A 
ENDBRANCH   4   8
ENDBRANCH   1   2
BRANCH   1  14
ATOM     14  C   UNL d   1     -48.739  27.772  34.188  0.00  0.00     0.101 C 
BRANCH  14  15
ATOM     15  C   UNL d   1     -49.283  27.169  34.153  0.00  0.00     0.286 C 
ATOM     16  N   UNL d   1     -49.645  26.985  33.413  0.00  0.00    -0.208 NA
ATOM     17  O   UNL d   1     -49.481  26.744  34.819  0.00  0.00    -0.265 OA
BRANCH  16  18
ATOM     18  C   UNL d   1     -50.207  26.364  33.377  0.00  0.00     0.085 A 
ATOM     19  C   UNL d   1     -51.017  26.538  33.341  0.00  0.00     0.018 A 
ATOM     20  C   UNL d   1     -51.569  25.927  33.306  0.00  0.00     0.002 A 
ATOM     21  C   UNL d   1     -51.270  27.311  33.341  0.00  0.00     0.002 C 
ATOM     22  C   UNL d   1     -51.312  25.140  33.306  0.00  0.00     0.000 A 
ATOM     23  C   UNL d   1     -50.506  24.980  33.342  0.00  0.00     0.002 A 
ATOM     24  C   UNL d   1     -49.969  25.574  33.376  0.00  0.00     0.019 A 
ATOM     25  C   UNL d   1     -50.252  24.196  33.341  0.00  0.00     0.000 C 
ENDBRANCH  16  18
ENDBRANCH  14  15
ENDBRANCH   1  14
TORSDOF 5
ENDMDL
