MODEL 1
REMARK VINA RESULT:      -2.6      0.000      0.000
REMARK  4 active torsions:
REMARK  status: ('A' for Active; 'I' for Inactive)
REMARK    1  A    between atoms: C_8  and  N_1 
REMARK    2  A    between atoms: C_2  and  C_4 
REMARK       I    between atoms: C_4  and  N_5 
REMARK    3  A    between atoms: N_5  and  C_7 
REMARK    4  A    between atoms: O_19  and  C_14 
ROOT
ATOM      1  C   UNL d   1     -41.332-122.351 -51.697  0.00  0.00     0.108 A 
ATOM      2  C   UNL d   1     -41.509-122.640 -53.030  0.00  0.00     0.128 A 
ATOM      3  C   UNL d   1     -41.462-122.907 -52.280  0.00  0.00     0.045 A 
ATOM      4  C   UNL d   1     -41.255-121.575 -51.860  0.00  0.00     0.112 A 
ATOM      5  C   UNL d   1     -41.442-121.897 -53.244  0.00  0.00     0.026 A 
ATOM      6  C   UNL d   1     -41.310-121.321 -52.659  0.00  0.00     0.027 A 
ENDROOT
BRANCH   1   7
ATOM      7  N   UNL d   1     -41.273-122.618 -50.852  0.00  0.00    -0.206 NA
ATOM      8  C   UNL d   1     -41.979-122.849 -50.468  0.00  0.00     0.285 C 
ATOM      9  O   UNL d   1     -42.682-122.814 -50.898  0.00  0.00    -0.265 OA
BRANCH   8  10
ATOM     10  C   UNL d   1     -41.988-123.106 -49.680  0.00  0.00     0.088 A 
ATOM     11  S   UNL d   1     -42.607-123.086 -49.132  0.00  0.00    -0.075 SA
ATOM     12  C   UNL d   1     -42.317-123.416 -48.420  0.00  0.00     0.064 A 
ATOM     13 BR   UNL d   1     -42.742-123.507 -47.727  0.00  0.00    -0.042 Br
ATOM     14  C   UNL d   1     -41.515-123.630 -48.560  0.00  0.00     0.014 A 
ATOM     15  C   UNL d   1     -41.348-123.432 -49.321  0.00  0.00     0.012 A 
ENDBRANCH   8  10
ENDBRANCH   1   7
BRANCH   4  16
ATOM     16  O   UNL d   1     -41.123-121.000 -51.277  0.00  0.00    -0.327 OA
ATOM     17  C   UNL d   1     -41.132-120.153 -51.507  0.00  0.00     0.181 C 
ENDBRANCH   4  16
BRANCH   2  18
ATOM     18  N   UNL d   1     -41.652-123.257 -53.664  0.00  0.00    -0.114 N 
ATOM     19  O   UNL d   1     -41.124-123.321 -54.347  0.00  0.00    -0.532 OA
ATOM     20  O   UNL d   1     -42.315-123.767 -53.573  0.00  0.00    -0.532 OA
ENDBRANCH   2  18
TORSDOF 4
ENDMDL
MODEL 2
REMARK VINA RESULT:      -1.7      2.362      4.370
REMARK  4 active torsions:
REMARK  status: ('A' for Active; 'I' for Inactive)
REMARK    1  A    between atoms: C_8  and  N_1 
REMARK    2  A    between atoms: C_2  and  C_4 
REMARK       I    between atoms: C_4  and  N_5 
REMARK    3  A    between atoms: N_5  and  C_7 
REMARK    4  A    between atoms: O_19  and  C_14 
ROOT
ATOM      1  C   UNL d   1     -42.468-123.485 -49.661  0.00  0.00     0.108 A 
ATOM      2  C   UNL d   1     -42.144-123.273 -48.342  0.00  0.00     0.128 A 
ATOM      3  C   UNL d   1     -41.894-123.367 -49.094  0.00  0.00     0.045 A 
ATOM      4  C   UNL d   1     -43.244-123.506 -49.483  0.00  0.00     0.112 A 
ATOM      5  C   UNL d   1     -42.885-123.285 -48.114  0.00  0.00     0.026 A 
ATOM      6  C   UNL d   1     -43.479-123.404 -48.682  0.00  0.00     0.027 A 
ENDROOT
BRANCH   1   7
ATOM      7  N   UNL d   1     -42.222-123.592 -50.508  0.00  0.00    -0.206 NA
ATOM      8  C   UNL d   1     -41.844-122.951 -50.888  0.00  0.00     0.285 C 
ATOM      9  O   UNL d   1     -41.725-122.260 -50.453  0.00  0.00    -0.265 OA
BRANCH   8  10
ATOM     10  C   UNL d   1     -41.592-122.992 -51.676  0.00  0.00     0.088 A 
ATOM     11  S   UNL d   1     -41.547-122.389 -52.241  0.00  0.00    -0.075 SA
ATOM     12  C   UNL d   1     -41.256-122.733 -52.946  0.00  0.00     0.064 A 
ATOM     13 BR   UNL d   1     -41.123-122.340 -53.651  0.00  0.00    -0.042 Br
ATOM     14  C   UNL d   1     -41.130-123.550 -52.785  0.00  0.00     0.014 A 
ATOM     15  C   UNL d   1     -41.340-123.673 -52.018  0.00  0.00     0.012 A 
ENDBRANCH   8  10
ENDBRANCH   1   7
BRANCH   4  16
ATOM     16  O   UNL d   1     -43.837-123.624 -50.050  0.00  0.00    -0.327 OA
ATOM     17  C   UNL d   1     -44.674-123.661 -49.788  0.00  0.00     0.181 C 
ENDBRANCH   4  16
BRANCH   2  18
ATOM     18  N   UNL d   1     -41.507-123.145 -47.724  0.00  0.00    -0.114 N 
ATOM     19  O   UNL d   1     -41.123-123.817 -47.337  0.00  0.00    -0.532 OA
ATOM     20  O   UNL d   1     -41.298-122.352 -47.535  0.00  0.00    -0.532 OA
ENDBRANCH   2  18
TORSDOF 4
ENDMDL
MODEL 3
REMARK VINA RESULT:       0.3      1.239      2.281
REMARK  4 active torsions:
REMARK  status: ('A' for Active; 'I' for Inactive)
REMARK    1  A    between atoms: C_8  and  N_1 
REMARK    2  A    between atoms: C_2  and  C_4 
REMARK       I    between atoms: C_4  and  N_5 
REMARK    3  A    between atoms: N_5  and  C_7 
REMARK    4  A    between atoms: O_19  and  C_14 
ROOT
ATOM      1  C   UNL d   1     -41.676-122.378 -51.231  0.00  0.00     0.108 A 
ATOM      2  C   UNL d   1     -41.307-121.128 -51.672  0.00  0.00     0.128 A 
ATOM      3  C   UNL d   1     -41.582-121.582 -51.076  0.00  0.00     0.045 A 
ATOM      4  C   UNL d   1     -41.503-122.696 -51.941  0.00  0.00     0.112 A 
ATOM      5  C   UNL d   1     -41.124-121.386 -52.380  0.00  0.00     0.026 A 
ATOM      6  C   UNL d   1     -41.215-122.194 -52.550  0.00  0.00     0.027 A 
ENDROOT
BRANCH   1   7
ATOM      7  N   UNL d   1     -41.981-122.909 -50.588  0.00  0.00    -0.206 NA
ATOM      8  C   UNL d   1     -42.245-122.551 -49.880  0.00  0.00     0.285 C 
ATOM      9  O   UNL d   1     -42.206-121.729 -49.825  0.00  0.00    -0.265 OA
BRANCH   8  10
ATOM     10  C   UNL d   1     -42.540-122.995 -49.245  0.00  0.00     0.088 A 
ATOM     11  S   UNL d   1     -42.240-123.070 -48.478  0.00  0.00    -0.075 SA
ATOM     12  C   UNL d   1     -42.751-123.585 -48.062  0.00  0.00     0.064 A 
ATOM     13 BR   UNL d   1     -42.667-123.816 -47.282  0.00  0.00    -0.042 Br
ATOM     14  C   UNL d   1     -43.359-123.812 -48.600  0.00  0.00     0.014 A 
ATOM     15  C   UNL d   1     -43.204-123.443 -49.298  0.00  0.00     0.012 A 
ENDBRANCH   8  10
ENDBRANCH   1   7
BRANCH   4  16
ATOM     16  O   UNL d   1     -41.594-123.502 -52.110  0.00  0.00    -0.327 OA
ATOM     17  C   UNL d   1     -41.273-123.816 -52.865  0.00  0.00     0.181 C 
ENDBRANCH   4  16
BRANCH   2  18
ATOM     18  N   UNL d   1     -41.207-120.256 -51.494  0.00  0.00    -0.114 N 
ATOM     19  O   UNL d   1     -41.169-119.971 -50.677  0.00  0.00    -0.532 OA
ATOM     20  O   UNL d   1     -41.151-119.727 -52.146  0.00  0.00    -0.532 OA
ENDBRANCH   2  18
TORSDOF 4
ENDMDL
