MODEL 1
REMARK VINA RESULT:      22.4      0.000      0.000
REMARK  4 active torsions:
REMARK  status: ('A' for Active; 'I' for Inactive)
REMARK    1  A    between atoms: C_6  and  C_1 
REMARK    2  A    between atoms: C_7  and  C_2 
REMARK    3  A    between atoms: O_10  and  C_6 
REMARK    4  A    between atoms: C_13  and  O_10 
ROOT
ATOM      1  C   UNL d   1      13.873  12.946  -3.006  0.00  0.00     0.113 A 
ATOM      2  C   UNL d   1      13.628  12.225  -2.638  0.00  0.00     0.095 A 
ATOM      3  N   UNL d   1      13.199  11.779  -3.211  0.00  0.00    -0.219 NA
ATOM      4  S   UNL d   1      13.603  12.947  -3.785  0.00  0.00    -0.040 SA
ATOM      5  C   UNL d   1      13.196  12.229  -3.889  0.00  0.00     0.215 A 
ATOM      6  N   UNL d   1      12.841  12.026  -4.609  0.00  0.00    -0.120 N 
ENDROOT
BRANCH   2   7
ATOM      7  C   UNL d   1      13.825  12.080  -1.854  0.00  0.00     0.018 A 
ATOM      8  C   UNL d   1      13.221  12.034  -1.286  0.00  0.00     0.002 A 
ATOM      9  C   UNL d   1      13.429  11.886  -0.490  0.00  0.00     0.000 A 
ATOM     10  C   UNL d   1      14.203  11.789  -0.272  0.00  0.00     0.000 A 
ATOM     11  C   UNL d   1      14.814  11.837  -0.855  0.00  0.00     0.000 A 
ATOM     12  C   UNL d   1      14.605  11.983  -1.641  0.00  0.00     0.002 A 
ENDBRANCH   2   7
BRANCH   1  13
ATOM     13  C   UNL d   1      14.294  13.540  -2.676  0.00  0.00     0.308 C 
ATOM     14  O   UNL d   1      14.977  13.378  -2.260  0.00  0.00    -0.258 OA
BRANCH  13  15
ATOM     15  O   UNL d   1      14.051  14.291  -2.751  0.00  0.00    -0.271 OA
BRANCH  15  16
ATOM     16  C   UNL d   1      14.581  14.922  -2.792  0.00  0.00     0.126 C 
ATOM     17  C   UNL d   1      14.347  15.699  -2.846  0.00  0.00     0.029 C 
ENDBRANCH  15  16
ENDBRANCH  13  15
ENDBRANCH   1  13
TORSDOF 4
ENDMDL
MODEL 2
REMARK VINA RESULT:      23.4      9.350      9.943
REMARK  4 active torsions:
REMARK  status: ('A' for Active; 'I' for Inactive)
REMARK    1  A    between atoms: C_6  and  C_1 
REMARK    2  A    between atoms: C_7  and  C_2 
REMARK    3  A    between atoms: O_10  and  C_6 
REMARK    4  A    between atoms: C_13  and  O_10 
ROOT
ATOM      1  C   UNL d   1      23.486  12.468  -2.705  0.00  0.00     0.113 A 
ATOM      2  C   UNL d   1      24.279  12.380  -2.425  0.00  0.00     0.095 A 
ATOM      3  N   UNL d   1      24.768  12.208  -3.091  0.00  0.00    -0.219 NA
ATOM      4  S   UNL d   1      23.483  12.354  -3.522  0.00  0.00    -0.040 SA
ATOM      5  C   UNL d   1      24.271  12.198  -3.736  0.00  0.00     0.215 A 
ATOM      6  N   UNL d   1      24.493  12.052  -4.521  0.00  0.00    -0.120 N 
ENDROOT
BRANCH   2   7
ATOM      7  C   UNL d   1      24.440  12.466  -1.625  0.00  0.00     0.018 A 
ATOM      8  C   UNL d   1      24.495  13.229  -1.301  0.00  0.00     0.002 A 
ATOM      9  C   UNL d   1      24.659  13.309  -0.486  0.00  0.00     0.000 A 
ATOM     10  C   UNL d   1      24.763  12.658  -0.015  0.00  0.00     0.000 A 
ATOM     11  C   UNL d   1      24.706  11.883  -0.349  0.00  0.00     0.000 A 
ATOM     12  C   UNL d   1      24.544  11.807  -1.156  0.00  0.00     0.002 A 
ENDBRANCH   2   7
BRANCH   1  13
ATOM     13  C   UNL d   1      22.834  12.633  -2.273  0.00  0.00     0.308 C 
ATOM     14  O   UNL d   1      22.709  12.257  -1.559  0.00  0.00    -0.258 OA
BRANCH  13  15
ATOM     15  O   UNL d   1      22.306  13.163  -2.534  0.00  0.00    -0.271 OA
BRANCH  15  16
ATOM     16  C   UNL d   1      21.527  13.178  -2.260  0.00  0.00     0.126 C 
ATOM     17  C   UNL d   1      20.890  13.348  -2.736  0.00  0.00     0.029 C 
ENDBRANCH  15  16
ENDBRANCH  13  15
ENDBRANCH   1  13
TORSDOF 4
ENDMDL
