MODEL 1
REMARK VINA RESULT:      16.7      0.000      0.000
REMARK  4 active torsions:
REMARK  status: ('A' for Active; 'I' for Inactive)
REMARK    1  A    between atoms: C_2  and  S_1 
REMARK    2  A    between atoms: N_3  and  S_1 
REMARK    3  A    between atoms: O_13  and  C_7 
REMARK    4  A    between atoms: O_14  and  C_11 
ROOT
ATOM      1  S   UNL d   1      46.296 -18.599  42.821  0.00  0.00     0.273 S 
ATOM      2  O   UNL d   1      45.831 -18.935  43.418  0.00  0.00    -0.200 OA
ATOM      3  O   UNL d   1      46.642 -17.855  42.938  0.00  0.00    -0.200 OA
ENDROOT
BRANCH   1   4
ATOM      4  C   UNL d   1      46.176 -18.199  43.526  0.00  0.00     0.128 A 
ATOM      5  C   UNL d   1      46.012 -17.391  43.534  0.00  0.00     0.039 A 
ATOM      6  C   UNL d   1      45.892 -16.990  44.244  0.00  0.00     0.095 A 
ATOM      7  C   UNL d   1      45.938 -17.406  44.949  0.00  0.00     0.026 A 
ATOM      8  C   UNL d   1      46.100 -18.207  44.953  0.00  0.00     0.027 A 
ATOM      9  C   UNL d   1      46.220 -18.607  44.243  0.00  0.00     0.106 A 
BRANCH   6  10
ATOM     10  O   UNL d   1      45.729 -16.182  44.240  0.00  0.00    -0.328 OA
ATOM     11  C   UNL d   1      45.912 -15.720  44.897  0.00  0.00     0.181 C 
ENDBRANCH   6  10
BRANCH   9  12
ATOM     12  O   UNL d   1      46.383 -19.412  44.244  0.00  0.00    -0.327 OA
ATOM     13  C   UNL d   1      46.583 -19.788  44.952  0.00  0.00     0.181 C 
ENDBRANCH   9  12
ENDBRANCH   1   4
BRANCH   1  14
ATOM     14  N   UNL d   1      46.412 -19.011  42.110  0.00  0.00    -0.232 N 
ATOM     15  C   UNL d   1      46.492 -19.833  42.127  0.00  0.00     0.075 A 
ATOM     16  C   UNL d   1      46.608 -20.244  41.416  0.00  0.00     0.018 A 
ATOM     17  C   UNL d   1      46.458 -20.246  42.841  0.00  0.00     0.020 C 
ATOM     18  C   UNL d   1      46.642 -19.832  40.703  0.00  0.00     0.003 A 
ATOM     19  C   UNL d   1      46.560 -19.003  40.693  0.00  0.00     0.018 A 
ATOM     20  C   UNL d   1      46.445 -18.591  41.401  0.00  0.00     0.075 A 
ATOM     21  C   UNL d   1      46.364 -17.774  41.394  0.00  0.00     0.020 C 
ENDBRANCH   1  14
TORSDOF 4
ENDMDL
