MODEL 1
REMARK VINA RESULT:      47.0      0.000      0.000
REMARK  2 active torsions:
REMARK  status: ('A' for Active; 'I' for Inactive)
REMARK    1  A    between atoms: N_9  and  C_3 
REMARK    2  A    between atoms: C_13  and  C_5 
ROOT
ATOM      1  N   UNL d   1      13.935  14.029  -2.952  0.00  0.00    -0.196 N 
ATOM      2  C   UNL d   1      14.053  13.415  -2.387  0.00  0.00     0.167 A 
ATOM      3  C   UNL d   1      13.566  13.856  -3.676  0.00  0.00     0.153 A 
ATOM      4  N   UNL d   1      14.553  14.962  -2.068  0.00  0.00    -0.163 NA
ATOM      5  C   UNL d   1      14.413  13.583  -1.681  0.00  0.00     0.055 A 
ATOM      6  N   UNL d   1      13.796  12.650  -2.565  0.00  0.00    -0.227 NA
ATOM      7  C   UNL d   1      13.318  13.096  -3.837  0.00  0.00     0.052 A 
ATOM      8  C   UNL d   1      14.669  14.357  -1.511  0.00  0.00     0.104 A 
ATOM      9  C   UNL d   1      13.431  12.476  -3.277  0.00  0.00     0.086 A 
ATOM     10  C   UNL d   1      12.947  12.764  -4.482  0.00  0.00     0.005 A 
ATOM     11  C   UNL d   1      15.033  14.518  -0.793  0.00  0.00     0.023 C 
ATOM     12  C   UNL d   1      13.128  11.779  -3.591  0.00  0.00     0.019 A 
ATOM     13  C   UNL d   1      12.825  11.963  -4.347  0.00  0.00     0.002 A 
ENDROOT
BRANCH   5  14
ATOM     14  C   UNL d   1      14.528  12.982  -1.127  0.00  0.00     0.004 A 
ATOM     15  C   UNL d   1      13.945  12.810  -0.574  0.00  0.00     0.000 A 
ATOM     16  C   UNL d   1      14.061  12.203  -0.014  0.00  0.00     0.000 A 
ATOM     17  C   UNL d   1      14.757  11.779  -0.019  0.00  0.00     0.000 A 
ATOM     18  C   UNL d   1      15.347  11.949  -0.576  0.00  0.00     0.000 A 
ATOM     19  C   UNL d   1      15.230  12.548  -1.125  0.00  0.00     0.000 A 
ENDBRANCH   5  14
BRANCH   3  20
ATOM     20  N   UNL d   1      13.446  14.473  -4.250  0.00  0.00    -0.271 N 
ATOM     21  C   UNL d   1      12.770  14.984  -4.291  0.00  0.00     0.184 A 
ATOM     22  N   UNL d   1      12.892  15.509  -4.947  0.00  0.00    -0.222 NA
ATOM     23  C   UNL d   1      13.641  15.323  -5.310  0.00  0.00     0.120 A 
ATOM     24  C   UNL d   1      13.979  14.675  -4.867  0.00  0.00     0.104 A 
ENDBRANCH   3  20
TORSDOF 2
ENDMDL
MODEL 2
REMARK VINA RESULT:      49.8      1.023      2.361
REMARK  2 active torsions:
REMARK  status: ('A' for Active; 'I' for Inactive)
REMARK    1  A    between atoms: N_9  and  C_3 
REMARK    2  A    between atoms: C_13  and  C_5 
ROOT
ATOM      1  N   UNL d   1      13.995  13.007  -3.065  0.00  0.00    -0.196 N 
ATOM      2  C   UNL d   1      14.284  13.534  -2.474  0.00  0.00     0.167 A 
ATOM      3  C   UNL d   1      13.754  13.306  -3.801  0.00  0.00     0.153 A 
ATOM      4  N   UNL d   1      14.195  11.907  -2.179  0.00  0.00    -0.163 NA
ATOM      5  C   UNL d   1      14.520  13.243  -1.755  0.00  0.00     0.055 A 
ATOM      6  N   UNL d   1      14.320  14.343  -2.641  0.00  0.00    -0.227 NA
ATOM      7  C   UNL d   1      13.796  14.107  -3.950  0.00  0.00     0.052 A 
ATOM      8  C   UNL d   1      14.479  12.426  -1.598  0.00  0.00     0.104 A 
ATOM      9  C   UNL d   1      14.083  14.641  -3.365  0.00  0.00     0.086 A 
ATOM     10  C   UNL d   1      13.604  14.555  -4.603  0.00  0.00     0.005 A 
ATOM     11  C   UNL d   1      14.720  12.139  -0.867  0.00  0.00     0.023 C 
ATOM     12  C   UNL d   1      14.061  15.404  -3.672  0.00  0.00     0.019 A 
ATOM     13  C   UNL d   1      13.760  15.347  -4.448  0.00  0.00     0.002 A 
ENDROOT
BRANCH   5  14
ATOM     14  C   UNL d   1      14.802  13.760  -1.177  0.00  0.00     0.004 A 
ATOM     15  C   UNL d   1      15.602  13.942  -1.138  0.00  0.00     0.000 A 
ATOM     16  C   UNL d   1      15.887  14.464  -0.554  0.00  0.00     0.000 A 
ATOM     17  C   UNL d   1      15.366  14.793  -0.020  0.00  0.00     0.000 A 
ATOM     18  C   UNL d   1      14.559  14.612  -0.056  0.00  0.00     0.000 A 
ATOM     19  C   UNL d   1      14.282  14.097  -0.633  0.00  0.00     0.000 A 
ENDBRANCH   5  14
BRANCH   3  20
ATOM     20  N   UNL d   1      13.462  12.777  -4.400  0.00  0.00    -0.271 N 
ATOM     21  C   UNL d   1      12.889  12.164  -4.280  0.00  0.00     0.184 A 
ATOM     22  N   UNL d   1      12.770  11.781  -5.029  0.00  0.00    -0.222 NA
ATOM     23  C   UNL d   1      13.268  12.156  -5.609  0.00  0.00     0.120 A 
ATOM     24  C   UNL d   1      13.697  12.777  -5.207  0.00  0.00     0.104 A 
ENDBRANCH   3  20
TORSDOF 2
ENDMDL
