MODEL 1
REMARK VINA RESULT:      61.9      0.000      0.000
REMARK  7 active torsions:
REMARK  status: ('A' for Active; 'I' for Inactive)
REMARK    1  A    between atoms: C_6  and  N_1 
REMARK    2  A    between atoms: C_12  and  C_6 
REMARK    3  A    between atoms: C_7  and  C_8 
REMARK    4  A    between atoms: C_22  and  C_7 
REMARK    5  A    between atoms: C_15  and  C_12 
REMARK    6  A    between atoms: O_13  and  C_15 
REMARK    7  A    between atoms: C_14  and  O_13 
ROOT
ATOM      1  C   UNL d   1      61.033  49.029  50.602  0.00  0.00     0.238 C 
ATOM      2  O   UNL d   1      61.681  49.073  51.113  0.00  0.00    -0.283 OA
ENDROOT
BRANCH   1   3
ATOM      3  C   UNL d   1      60.541  49.685  50.495  0.00  0.00     0.126 C 
BRANCH   3   4
ATOM      4  N   UNL d   1      59.785  49.687  50.843  0.00  0.00    -0.286 N 
ATOM      5  C   UNL d   1      59.631  49.696  51.659  0.00  0.00     0.148 A 
ATOM      6  N   UNL d   1      58.806  49.695  51.763  0.00  0.00    -0.227 NA
ATOM      7  C   UNL d   1      60.192  49.704  52.262  0.00  0.00     0.041 C 
ATOM      8  C   UNL d   1      58.454  49.685  51.019  0.00  0.00     0.099 A 
ATOM      9  C   UNL d   1      59.064  49.681  50.449  0.00  0.00     0.083 A 
ATOM     10  C   UNL d   1      57.673  49.681  50.783  0.00  0.00     0.021 A 
ATOM     11  C   UNL d   1      58.868  49.671  49.643  0.00  0.00     0.019 A 
ATOM     12  C   UNL d   1      58.073  49.666  49.412  0.00  0.00     0.002 A 
ATOM     13  C   UNL d   1      57.478  49.671  49.983  0.00  0.00     0.002 A 
ENDBRANCH   3   4
ENDBRANCH   1   3
BRANCH   1  14
ATOM     14  C   UNL d   1      60.881  48.318  50.193  0.00  0.00     0.166 C 
BRANCH  14  15
ATOM     15  O   UNL d   1      61.520  47.916  49.800  0.00  0.00    -0.302 OA
BRANCH  15  16
ATOM     16  C   UNL d   1      61.531  47.084  49.729  0.00  0.00     0.100 A 
ATOM     17  C   UNL d   1      61.249  46.614  50.340  0.00  0.00     0.025 A 
ATOM     18  C   UNL d   1      61.262  45.790  50.266  0.00  0.00     0.005 A 
ATOM     19  C   UNL d   1      61.553  45.448  49.588  0.00  0.00     0.039 A 
ATOM     20  C   UNL d   1      61.836  45.926  48.973  0.00  0.00     0.005 A 
ATOM     21  C   UNL d   1      61.822  46.742  49.051  0.00  0.00     0.025 A 
BRANCH  19  22
ATOM     22  C   UNL d   1      61.566  44.628  49.512  0.00  0.00     0.196 C 
ATOM     23  O   UNL d   1      61.887  44.162  50.104  0.00  0.00    -0.287 OA
BRANCH  22  24
ATOM     24  C   UNL d   1      61.254  44.273  48.834  0.00  0.00     0.042 C 
ATOM     25  C   UNL d   1      60.541  43.876  48.871  0.00  0.00     0.003 C 
ENDBRANCH  22  24
ENDBRANCH  19  22
ENDBRANCH  15  16
ENDBRANCH  14  15
ENDBRANCH   1  14
TORSDOF 7
ENDMDL
MODEL 2
REMARK VINA RESULT:      64.1      0.941      1.204
REMARK  7 active torsions:
REMARK  status: ('A' for Active; 'I' for Inactive)
REMARK    1  A    between atoms: C_6  and  N_1 
REMARK    2  A    between atoms: C_12  and  C_6 
REMARK    3  A    between atoms: C_7  and  C_8 
REMARK    4  A    between atoms: C_22  and  C_7 
REMARK    5  A    between atoms: C_15  and  C_12 
REMARK    6  A    between atoms: O_13  and  C_15 
REMARK    7  A    between atoms: C_14  and  O_13 
ROOT
ATOM      1  C   UNL d   1      59.830  48.918  50.606  0.00  0.00     0.238 C 
ATOM      2  O   UNL d   1      60.160  49.427  51.167  0.00  0.00    -0.283 OA
ENDROOT
BRANCH   1   3
ATOM      3  C   UNL d   1      59.231  49.184  50.103  0.00  0.00     0.126 C 
BRANCH   3   4
ATOM      4  N   UNL d   1      58.486  49.373  50.422  0.00  0.00    -0.286 N 
ATOM      5  C   UNL d   1      58.336  49.554  51.219  0.00  0.00     0.148 A 
ATOM      6  N   UNL d   1      57.522  49.708  51.296  0.00  0.00    -0.227 NA
ATOM      7  C   UNL d   1      58.889  49.578  51.827  0.00  0.00     0.041 C 
ATOM      8  C   UNL d   1      57.174  49.623  50.555  0.00  0.00     0.099 A 
ATOM      9  C   UNL d   1      57.774  49.415  50.013  0.00  0.00     0.083 A 
ATOM     10  C   UNL d   1      56.403  49.705  50.300  0.00  0.00     0.021 A 
ATOM     11  C   UNL d   1      57.579  49.293  49.217  0.00  0.00     0.019 A 
ATOM     12  C   UNL d   1      56.795  49.378  48.966  0.00  0.00     0.002 A 
ATOM     13  C   UNL d   1      56.209  49.583  49.509  0.00  0.00     0.002 A 
ENDBRANCH   3   4
ENDBRANCH   1   3
BRANCH   1  14
ATOM     14  C   UNL d   1      60.107  48.133  50.552  0.00  0.00     0.166 C 
BRANCH  14  15
ATOM     15  O   UNL d   1      60.945  47.984  50.553  0.00  0.00    -0.302 OA
BRANCH  15  16
ATOM     16  C   UNL d   1      61.259  47.269  50.257  0.00  0.00     0.100 A 
ATOM     17  C   UNL d   1      60.930  46.551  50.480  0.00  0.00     0.025 A 
ATOM     18  C   UNL d   1      61.245  45.844  50.184  0.00  0.00     0.005 A 
ATOM     19  C   UNL d   1      61.878  45.863  49.674  0.00  0.00     0.039 A 
ATOM     20  C   UNL d   1      62.207  46.590  49.452  0.00  0.00     0.005 A 
ATOM     21  C   UNL d   1      61.892  47.288  49.747  0.00  0.00     0.025 A 
BRANCH  19  22
ATOM     22  C   UNL d   1      62.192  45.161  49.379  0.00  0.00     0.196 C 
ATOM     23  O   UNL d   1      62.799  45.178  48.829  0.00  0.00    -0.287 OA
BRANCH  22  24
ATOM     24  C   UNL d   1      61.893  44.436  49.639  0.00  0.00     0.042 C 
ATOM     25  C   UNL d   1      61.875  43.796  49.132  0.00  0.00     0.003 C 
ENDBRANCH  22  24
ENDBRANCH  19  22
ENDBRANCH  15  16
ENDBRANCH  14  15
ENDBRANCH   1  14
TORSDOF 7
ENDMDL
