MODEL 1
REMARK VINA RESULT:      -7.8      0.000      0.000
REMARK  7 active torsions:
REMARK  status: ('A' for Active; 'I' for Inactive)
REMARK    1  A    between atoms: C_7  and  S_1 
REMARK    2  A    between atoms: N_11  and  S_1 
REMARK    3  A    between atoms: C_5  and  C_2 
REMARK    4  A    between atoms: C_6  and  C_15 
REMARK    5  A    between atoms: C_18  and  N_11 
REMARK    6  A    between atoms: C_15  and  C_18 
REMARK    7  A    between atoms: O_21  and  C_17 
ROOT
ATOM      1  C   UNL d   1      51.975  33.153  52.847  0.00  0.00     0.114 C 
ENDROOT
BRANCH   1   2
ATOM      2  C   UNL d   1      51.787  33.871  52.491  0.00  0.00     0.041 C 
BRANCH   2   3
ATOM      3  C   UNL d   1      51.024  34.190  52.558  0.00  0.00     0.090 A 
ATOM      4  N   UNL d   1      50.472  34.251  51.939  0.00  0.00    -0.238 NA
ATOM      5  C   UNL d   1      49.786  34.601  52.251  0.00  0.00     0.112 A 
ATOM      6  S   UNL d   1      49.912  34.756  53.055  0.00  0.00    -0.066 SA
ATOM      7  C   UNL d   1      50.681  34.500  53.245  0.00  0.00     0.056 A 
BRANCH   5   8
ATOM      8  C   UNL d   1      49.085  34.772  51.830  0.00  0.00     0.043 A 
ATOM      9  C   UNL d   1      48.950  34.424  51.094  0.00  0.00     0.101 A 
ATOM     10  N   UNL d   1      48.266  34.590  50.683  0.00  0.00    -0.242 NA
ATOM     11  C   UNL d   1      47.711  35.105  51.005  0.00  0.00     0.099 A 
ATOM     12  C   UNL d   1      47.850  35.458  51.755  0.00  0.00     0.021 A 
ATOM     13  C   UNL d   1      48.538  35.290  52.166  0.00  0.00     0.005 A 
ENDBRANCH   5   8
ENDBRANCH   2   3
ENDBRANCH   1   2
BRANCH   1  14
ATOM     14  N   UNL d   1      52.715  32.786  52.680  0.00  0.00    -0.157 NA
BRANCH  14  15
ATOM     15  S   UNL d   1      52.861  32.022  52.967  0.00  0.00     0.285 S 
ATOM     16  O   UNL d   1      52.615  31.706  52.235  0.00  0.00    -0.198 OA
ATOM     17  O   UNL d   1      53.107  32.334  53.698  0.00  0.00    -0.198 OA
BRANCH  15  18
ATOM     18  C   UNL d   1      53.004  31.257  53.245  0.00  0.00     0.105 A 
ATOM     19  C   UNL d   1      53.619  31.133  53.779  0.00  0.00     0.015 A 
ATOM     20  C   UNL d   1      53.766  30.362  54.061  0.00  0.00     0.025 A 
ATOM     21  C   UNL d   1      53.302  29.736  53.808  0.00  0.00     0.094 A 
ATOM     22  C   UNL d   1      52.691  29.868  53.276  0.00  0.00     0.025 A 
ATOM     23  C   UNL d   1      52.532  30.622  52.987  0.00  0.00     0.015 A 
BRANCH  21  24
ATOM     24  O   UNL d   1      53.445  28.971  54.086  0.00  0.00    -0.328 OA
ATOM     25  C   UNL d   1      53.326  28.796  54.883  0.00  0.00     0.181 C 
ENDBRANCH  21  24
ENDBRANCH  15  18
ENDBRANCH  14  15
ENDBRANCH   1  14
TORSDOF 7
ENDMDL
MODEL 2
REMARK VINA RESULT:      -7.3      2.635      6.266
REMARK  7 active torsions:
REMARK  status: ('A' for Active; 'I' for Inactive)
REMARK    1  A    between atoms: C_7  and  S_1 
REMARK    2  A    between atoms: N_11  and  S_1 
REMARK    3  A    between atoms: C_5  and  C_2 
REMARK    4  A    between atoms: C_6  and  C_15 
REMARK    5  A    between atoms: C_18  and  N_11 
REMARK    6  A    between atoms: C_15  and  C_18 
REMARK    7  A    between atoms: O_21  and  C_17 
ROOT
ATOM      1  C   UNL d   1      50.559  34.488  52.620  0.00  0.00     0.114 C 
ENDROOT
BRANCH   1   2
ATOM      2  C   UNL d   1      51.267  34.100  52.456  0.00  0.00     0.041 C 
BRANCH   2   3
ATOM      3  C   UNL d   1      51.931  34.210  52.940  0.00  0.00     0.090 A 
ATOM      4  N   UNL d   1      52.294  33.621  53.400  0.00  0.00    -0.238 NA
ATOM      5  C   UNL d   1      52.936  33.972  53.794  0.00  0.00     0.112 A 
ATOM      6  S   UNL d   1      52.970  34.771  53.580  0.00  0.00    -0.066 SA
ATOM      7  C   UNL d   1      52.345  34.919  53.049  0.00  0.00     0.056 A 
BRANCH   5   8
ATOM      8  C   UNL d   1      53.463  33.589  54.318  0.00  0.00     0.043 A 
ATOM      9  C   UNL d   1      53.444  32.767  54.394  0.00  0.00     0.101 A 
ATOM     10  N   UNL d   1      53.957  32.394  54.906  0.00  0.00    -0.242 NA
ATOM     11  C   UNL d   1      54.493  32.838  55.344  0.00  0.00     0.099 A 
ATOM     12  C   UNL d   1      54.510  33.675  55.264  0.00  0.00     0.021 A 
ATOM     13  C   UNL d   1      53.993  34.048  54.750  0.00  0.00     0.005 A 
ENDBRANCH   5   8
ENDBRANCH   2   3
ENDBRANCH   1   2
BRANCH   1  14
ATOM     14  N   UNL d   1      49.848  34.233  52.246  0.00  0.00    -0.157 NA
BRANCH  14  15
ATOM     15  S   UNL d   1      49.186  34.732  52.254  0.00  0.00     0.285 S 
ATOM     16  O   UNL d   1      49.120  34.648  51.426  0.00  0.00    -0.198 OA
ATOM     17  O   UNL d   1      49.249  34.817  53.079  0.00  0.00    -0.198 OA
BRANCH  15  18
ATOM     18  C   UNL d   1      48.525  35.228  52.253  0.00  0.00     0.105 A 
ATOM     19  C   UNL d   1      48.022  35.224  51.601  0.00  0.00     0.015 A 
ATOM     20  C   UNL d   1      47.354  35.724  51.597  0.00  0.00     0.025 A 
ATOM     21  C   UNL d   1      47.203  36.213  52.236  0.00  0.00     0.094 A 
ATOM     22  C   UNL d   1      47.709  36.211  52.882  0.00  0.00     0.025 A 
ATOM     23  C   UNL d   1      48.372  35.724  52.903  0.00  0.00     0.015 A 
BRANCH  21  24
ATOM     24  O   UNL d   1      46.542  36.709  52.235  0.00  0.00    -0.328 OA
ATOM     25  C   UNL d   1      45.812  36.421  52.489  0.00  0.00     0.181 C 
ENDBRANCH  21  24
ENDBRANCH  15  18
ENDBRANCH  14  15
ENDBRANCH   1  14
TORSDOF 7
ENDMDL
MODEL 3
REMARK VINA RESULT:      -7.1      2.187      3.054
REMARK  7 active torsions:
REMARK  status: ('A' for Active; 'I' for Inactive)
REMARK    1  A    between atoms: C_7  and  S_1 
REMARK    2  A    between atoms: N_11  and  S_1 
REMARK    3  A    between atoms: C_5  and  C_2 
REMARK    4  A    between atoms: C_6  and  C_15 
REMARK    5  A    between atoms: C_18  and  N_11 
REMARK    6  A    between atoms: C_15  and  C_18 
REMARK    7  A    between atoms: O_21  and  C_17 
ROOT
ATOM      1  C   UNL d   1      50.100  34.498  52.599  0.00  0.00     0.114 C 
ENDROOT
BRANCH   1   2
ATOM      2  C   UNL d   1      49.482  34.672  52.084  0.00  0.00     0.041 C 
BRANCH   2   3
ATOM      3  C   UNL d   1      48.839  35.133  52.335  0.00  0.00     0.090 A 
ATOM      4  N   UNL d   1      48.116  35.209  51.932  0.00  0.00    -0.238 NA
ATOM      5  C   UNL d   1      47.635  35.719  52.378  0.00  0.00     0.112 A 
ATOM      6  S   UNL d   1      48.057  35.957  53.050  0.00  0.00    -0.066 SA
ATOM      7  C   UNL d   1      48.805  35.592  53.023  0.00  0.00     0.056 A 
BRANCH   5   8
ATOM      8  C   UNL d   1      46.858  35.957  52.186  0.00  0.00     0.043 A 
ATOM      9  C   UNL d   1      46.451  36.477  52.681  0.00  0.00     0.101 A 
ATOM     10  N   UNL d   1      45.692  36.709  52.494  0.00  0.00    -0.242 NA
ATOM     11  C   UNL d   1      45.334  36.423  51.812  0.00  0.00     0.099 A 
ATOM     12  C   UNL d   1      45.750  35.893  51.309  0.00  0.00     0.021 A 
ATOM     13  C   UNL d   1      46.512  35.661  51.498  0.00  0.00     0.005 A 
ENDBRANCH   5   8
ENDBRANCH   2   3
ENDBRANCH   1   2
BRANCH   1  14
ATOM     14  N   UNL d   1      50.728  33.998  52.343  0.00  0.00    -0.157 NA
BRANCH  14  15
ATOM     15  S   UNL d   1      51.413  33.939  52.806  0.00  0.00     0.285 S 
ATOM     16  O   UNL d   1      51.020  33.404  53.312  0.00  0.00    -0.198 OA
ATOM     17  O   UNL d   1      51.809  34.472  52.304  0.00  0.00    -0.198 OA
BRANCH  15  18
ATOM     18  C   UNL d   1      52.092  33.875  53.273  0.00  0.00     0.105 A 
ATOM     19  C   UNL d   1      52.468  33.146  53.335  0.00  0.00     0.015 A 
ATOM     20  C   UNL d   1      53.154  33.078  53.806  0.00  0.00     0.025 A 
ATOM     21  C   UNL d   1      53.447  33.732  54.201  0.00  0.00     0.094 A 
ATOM     22  C   UNL d   1      53.066  34.457  54.134  0.00  0.00     0.025 A 
ATOM     23  C   UNL d   1      52.390  34.541  53.674  0.00  0.00     0.015 A 
BRANCH  21  24
ATOM     24  O   UNL d   1      54.126  33.668  54.668  0.00  0.00    -0.328 OA
ATOM     25  C   UNL d   1      54.230  33.008  55.152  0.00  0.00     0.181 C 
ENDBRANCH  21  24
ENDBRANCH  15  18
ENDBRANCH  14  15
ENDBRANCH   1  14
TORSDOF 7
ENDMDL
MODEL 4
REMARK VINA RESULT:      -5.3      9.584     10.886
REMARK  7 active torsions:
REMARK  status: ('A' for Active; 'I' for Inactive)
REMARK    1  A    between atoms: C_7  and  S_1 
REMARK    2  A    between atoms: N_11  and  S_1 
REMARK    3  A    between atoms: C_5  and  C_2 
REMARK    4  A    between atoms: C_6  and  C_15 
REMARK    5  A    between atoms: C_18  and  N_11 
REMARK    6  A    between atoms: C_15  and  C_18 
REMARK    7  A    between atoms: O_21  and  C_17 
ROOT
ATOM      1  C   UNL d   1      44.889  27.268  58.311  0.00  0.00     0.114 C 
ENDROOT
BRANCH   1   2
ATOM      2  C   UNL d   1      44.979  26.491  58.567  0.00  0.00     0.041 C 
BRANCH   2   3
ATOM      3  C   UNL d   1      44.774  25.857  58.073  0.00  0.00     0.090 A 
ATOM      4  N   UNL d   1      44.895  25.829  57.251  0.00  0.00    -0.238 NA
ATOM      5  C   UNL d   1      44.610  25.097  56.981  0.00  0.00     0.112 A 
ATOM      6  S   UNL d   1      44.316  24.674  57.630  0.00  0.00    -0.066 SA
ATOM      7  C   UNL d   1      44.418  25.147  58.308  0.00  0.00     0.056 A 
BRANCH   5   8
ATOM      8  C   UNL d   1      44.616  24.825  56.191  0.00  0.00     0.043 A 
ATOM      9  C   UNL d   1      44.314  25.302  55.589  0.00  0.00     0.101 A 
ATOM     10  N   UNL d   1      44.321  25.038  54.818  0.00  0.00    -0.242 NA
ATOM     11  C   UNL d   1      44.628  24.296  54.642  0.00  0.00     0.099 A 
ATOM     12  C   UNL d   1      44.935  23.812  55.258  0.00  0.00     0.021 A 
ATOM     13  C   UNL d   1      44.928  24.079  56.032  0.00  0.00     0.005 A 
ENDBRANCH   5   8
ENDBRANCH   2   3
ENDBRANCH   1   2
BRANCH   1  14
ATOM     14  N   UNL d   1      45.210  27.897  58.770  0.00  0.00    -0.157 NA
BRANCH  14  15
ATOM     15  S   UNL d   1      45.095  28.680  58.521  0.00  0.00     0.285 S 
ATOM     16  O   UNL d   1      45.744  28.605  58.001  0.00  0.00    -0.198 OA
ATOM     17  O   UNL d   1      44.447  28.758  59.037  0.00  0.00    -0.198 OA
BRANCH  15  18
ATOM     18  C   UNL d   1      44.986  29.459  58.266  0.00  0.00     0.105 A 
ATOM     19  C   UNL d   1      44.737  29.597  57.494  0.00  0.00     0.015 A 
ATOM     20  C   UNL d   1      44.627  30.382  57.234  0.00  0.00     0.025 A 
ATOM     21  C   UNL d   1      44.767  31.007  57.745  0.00  0.00     0.094 A 
ATOM     22  C   UNL d   1      45.015  30.861  58.514  0.00  0.00     0.025 A 
ATOM     23  C   UNL d   1      45.128  30.093  58.786  0.00  0.00     0.015 A 
BRANCH  21  24
ATOM     24  O   UNL d   1      44.659  31.786  57.491  0.00  0.00    -0.328 OA
ATOM     25  C   UNL d   1      44.633  31.954  56.684  0.00  0.00     0.181 C 
ENDBRANCH  21  24
ENDBRANCH  15  18
ENDBRANCH  14  15
ENDBRANCH   1  14
TORSDOF 7
ENDMDL
MODEL 5
REMARK VINA RESULT:      -5.2      9.981     10.533
REMARK  7 active torsions:
REMARK  status: ('A' for Active; 'I' for Inactive)
REMARK    1  A    between atoms: C_7  and  S_1 
REMARK    2  A    between atoms: N_11  and  S_1 
REMARK    3  A    between atoms: C_5  and  C_2 
REMARK    4  A    between atoms: C_6  and  C_15 
REMARK    5  A    between atoms: C_18  and  N_11 
REMARK    6  A    between atoms: C_15  and  C_18 
REMARK    7  A    between atoms: O_21  and  C_17 
ROOT
ATOM      1  C   UNL d   1      45.034  29.278  58.376  0.00  0.00     0.114 C 
ENDROOT
BRANCH   1   2
ATOM      2  C   UNL d   1      45.226  30.056  58.565  0.00  0.00     0.041 C 
BRANCH   2   3
ATOM      3  C   UNL d   1      44.920  30.413  59.248  0.00  0.00     0.090 A 
ATOM      4  N   UNL d   1      44.964  30.098  60.016  0.00  0.00    -0.238 NA
ATOM      5  C   UNL d   1      44.589  30.635  60.528  0.00  0.00     0.112 A 
ATOM      6  S   UNL d   1      44.317  31.277  60.082  0.00  0.00    -0.066 SA
ATOM      7  C   UNL d   1      44.523  31.139  59.286  0.00  0.00     0.056 A 
BRANCH   5   8
ATOM      8  C   UNL d   1      44.500  30.548  61.354  0.00  0.00     0.043 A 
ATOM      9  C   UNL d   1      44.510  31.213  61.842  0.00  0.00     0.101 A 
ATOM     10  N   UNL d   1      44.422  31.128  62.648  0.00  0.00    -0.242 NA
ATOM     11  C   UNL d   1      44.324  30.379  62.973  0.00  0.00     0.099 A 
ATOM     12  C   UNL d   1      44.314  29.703  62.473  0.00  0.00     0.021 A 
ATOM     13  C   UNL d   1      44.402  29.790  61.663  0.00  0.00     0.005 A 
ENDBRANCH   5   8
ENDBRANCH   2   3
ENDBRANCH   1   2
BRANCH   1  14
ATOM     14  N   UNL d   1      45.211  28.980  57.608  0.00  0.00    -0.157 NA
BRANCH  14  15
ATOM     15  S   UNL d   1      45.074  28.179  57.444  0.00  0.00     0.285 S 
ATOM     16  O   UNL d   1      44.586  28.399  56.803  0.00  0.00    -0.198 OA
ATOM     17  O   UNL d   1      45.560  27.956  58.082  0.00  0.00    -0.198 OA
BRANCH  15  18
ATOM     18  C   UNL d   1      44.933  27.383  57.273  0.00  0.00     0.105 A 
ATOM     19  C   UNL d   1      44.877  26.844  57.893  0.00  0.00     0.015 A 
ATOM     20  C   UNL d   1      44.735  26.039  57.724  0.00  0.00     0.025 A 
ATOM     21  C   UNL d   1      44.651  25.791  56.948  0.00  0.00     0.094 A 
ATOM     22  C   UNL d   1      44.708  26.335  56.336  0.00  0.00     0.025 A 
ATOM     23  C   UNL d   1      44.848  27.131  56.485  0.00  0.00     0.015 A 
BRANCH  21  24
ATOM     24  O   UNL d   1      44.510  24.995  56.778  0.00  0.00    -0.328 OA
ATOM     25  C   UNL d   1      44.849  24.653  56.108  0.00  0.00     0.181 C 
ENDBRANCH  21  24
ENDBRANCH  15  18
ENDBRANCH  14  15
ENDBRANCH   1  14
TORSDOF 7
ENDMDL
MODEL 6
REMARK VINA RESULT:      -4.9     10.207     11.777
REMARK  7 active torsions:
REMARK  status: ('A' for Active; 'I' for Inactive)
REMARK    1  A    between atoms: C_7  and  S_1 
REMARK    2  A    between atoms: N_11  and  S_1 
REMARK    3  A    between atoms: C_5  and  C_2 
REMARK    4  A    between atoms: C_6  and  C_15 
REMARK    5  A    between atoms: C_18  and  N_11 
REMARK    6  A    between atoms: C_15  and  C_18 
REMARK    7  A    between atoms: O_21  and  C_17 
ROOT
ATOM      1  C   UNL d   1      44.925  26.182  56.780  0.00  0.00     0.114 C 
ENDROOT
BRANCH   1   2
ATOM      2  C   UNL d   1      44.889  25.592  56.207  0.00  0.00     0.041 C 
BRANCH   2   3
ATOM      3  C   UNL d   1      44.737  24.805  56.419  0.00  0.00     0.090 A 
ATOM      4  N   UNL d   1      44.960  24.448  57.135  0.00  0.00    -0.238 NA
ATOM      5  C   UNL d   1      44.698  23.660  57.114  0.00  0.00     0.112 A 
ATOM      6  S   UNL d   1      44.316  23.530  56.391  0.00  0.00    -0.066 SA
ATOM      7  C   UNL d   1      44.340  24.242  55.959  0.00  0.00     0.056 A 
BRANCH   5   8
ATOM      8  C   UNL d   1      44.798  23.090  57.716  0.00  0.00     0.043 A 
ATOM      9  C   UNL d   1      44.566  23.261  58.489  0.00  0.00     0.101 A 
ATOM     10  N   UNL d   1      44.665  22.704  59.077  0.00  0.00    -0.242 NA
ATOM     11  C   UNL d   1      44.995  21.974  58.897  0.00  0.00     0.099 A 
ATOM     12  C   UNL d   1      45.231  21.802  58.109  0.00  0.00     0.021 A 
ATOM     13  C   UNL d   1      45.132  22.362  57.519  0.00  0.00     0.005 A 
ENDBRANCH   5   8
ENDBRANCH   2   3
ENDBRANCH   1   2
BRANCH   1  14
ATOM     14  N   UNL d   1      45.269  26.927  56.591  0.00  0.00    -0.157 NA
BRANCH  14  15
ATOM     15  S   UNL d   1      45.174  27.562  57.117  0.00  0.00     0.285 S 
ATOM     16  O   UNL d   1      44.465  27.770  56.728  0.00  0.00    -0.198 OA
ATOM     17  O   UNL d   1      45.881  27.357  57.505  0.00  0.00    -0.198 OA
BRANCH  15  18
ATOM     18  C   UNL d   1      45.072  28.196  57.636  0.00  0.00     0.105 A 
ATOM     19  C   UNL d   1      45.024  28.049  58.444  0.00  0.00     0.015 A 
ATOM     20  C   UNL d   1      44.921  28.687  58.971  0.00  0.00     0.025 A 
ATOM     21  C   UNL d   1      44.868  29.453  58.684  0.00  0.00     0.094 A 
ATOM     22  C   UNL d   1      44.917  29.591  57.876  0.00  0.00     0.025 A 
ATOM     23  C   UNL d   1      45.019  28.973  57.343  0.00  0.00     0.015 A 
BRANCH  21  24
ATOM     24  O   UNL d   1      44.766  30.087  59.203  0.00  0.00    -0.328 OA
ATOM     25  C   UNL d   1      45.252  30.751  59.141  0.00  0.00     0.181 C 
ENDBRANCH  21  24
ENDBRANCH  15  18
ENDBRANCH  14  15
ENDBRANCH   1  14
TORSDOF 7
ENDMDL
