MODEL 1
REMARK VINA RESULT:      32.7      0.000      0.000
REMARK  4 active torsions:
REMARK  status: ('A' for Active; 'I' for Inactive)
REMARK    1  A    between atoms: C_2  and  C_1 
REMARK       I    between atoms: N_7  and  C_2 
REMARK    2  A    between atoms: N_6  and  C_5 
REMARK    3  A    between atoms: C_10  and  N_7 
REMARK    4  A    between atoms: C_8  and  C_9 
ROOT
ATOM      1  C   UNL d   1     -54.754-102.059 -41.393  0.00  0.00     0.021 A 
ATOM      2  C   UNL d   1     -54.737-101.328 -42.620  0.00  0.00     0.085 A 
ATOM      3  C   UNL d   1     -54.738-101.339 -41.795  0.00  0.00     0.021 A 
ATOM      4  C   UNL d   1     -54.769-102.768 -41.815  0.00  0.00     0.002 A 
ATOM      5  C   UNL d   1     -54.768-102.752 -42.633  0.00  0.00     0.002 A 
ATOM      6  C   UNL d   1     -54.752-102.032 -43.036  0.00  0.00     0.019 A 
ENDROOT
BRANCH   1   7
ATOM      7  C   UNL d   1     -54.755-102.066 -40.559  0.00  0.00     0.103 A 
ATOM      8  N   UNL d   1     -54.711-101.363 -40.144  0.00  0.00    -0.147 NA
ATOM      9  N   UNL d   1     -54.713-101.375 -39.319  0.00  0.00    -0.130 NA
ATOM     10  C   UNL d   1     -54.757-102.093 -38.916  0.00  0.00     0.169 A 
ATOM     11  C   UNL d   1     -54.801-102.802 -39.343  0.00  0.00     0.041 A 
ATOM     12  C   UNL d   1     -54.799-102.785 -40.157  0.00  0.00     0.024 A 
BRANCH  10  13
ATOM     13  N   UNL d   1     -54.759-102.109 -38.099  0.00  0.00    -0.288 N 
ATOM     14  C   UNL d   1     -54.803-101.402 -37.676  0.00  0.00     0.082 A 
ATOM     15  C   UNL d   1     -54.805-101.412 -36.851  0.00  0.00     0.019 A 
ATOM     16  C   UNL d   1     -54.762-102.131 -36.448  0.00  0.00     0.003 A 
ATOM     17  C   UNL d   1     -54.717-102.839 -36.871  0.00  0.00     0.019 A 
ATOM     18  C   UNL d   1     -54.716-102.828 -37.697  0.00  0.00     0.082 A 
ENDBRANCH  10  13
ENDBRANCH   1   7
BRANCH   2  19
ATOM     19  N   UNL d   1     -54.720-100.608 -43.023  0.00  0.00    -0.205 NA
ATOM     20  C   UNL d   1     -54.869-100.581 -43.827  0.00  0.00     0.351 C 
ATOM     21  O   UNL d   1     -55.036-101.279 -44.235  0.00  0.00    -0.261 OA
BRANCH  20  22
ATOM     22  C   UNL d   1     -54.853 -99.865 -44.227  0.00  0.00     0.474 C 
ATOM     23  F   UNL d   1     -54.837 -99.145 -44.629  0.00  0.00    -0.162 F 
ATOM     24  F   UNL d   1     -54.806 -99.464 -43.507  0.00  0.00    -0.162 F 
ATOM     25  F   UNL d   1     -54.900-100.266 -44.946  0.00  0.00    -0.162 F 
ENDBRANCH  20  22
ENDBRANCH   2  19
TORSDOF 4
ENDMDL
