MODEL 1
REMARK VINA RESULT:      79.3      0.000      0.000
REMARK  2 active torsions:
REMARK  status: ('A' for Active; 'I' for Inactive)
REMARK    1  A    between atoms: N_2  and  N_1 
REMARK    2  A    between atoms: N_8  and  C_10 
ROOT
ATOM      1  N   UNL d   1      61.193  47.183  50.528  0.00  0.00    -0.171 N 
ATOM      2  C   UNL d   1      60.912  47.850  50.150  0.00  0.00     0.283 A 
ATOM      3  C   UNL d   1      60.838  48.453  50.724  0.00  0.00     0.085 A 
ATOM      4  C   UNL d   1      61.299  47.351  51.329  0.00  0.00     0.282 A 
ATOM      5  C   UNL d   1      61.079  48.141  51.461  0.00  0.00     0.064 A 
ATOM      6  C   UNL d   1      60.585  49.234  50.674  0.00  0.00     0.131 A 
ATOM      7  O   UNL d   1      60.740  47.890  49.342  0.00  0.00    -0.265 OA
ATOM      8  O   UNL d   1      61.582  46.805  51.907  0.00  0.00    -0.265 OA
ATOM      9  C   UNL d   1      61.065  48.617  52.135  0.00  0.00     0.005 A 
ATOM     10  C   UNL d   1      60.570  49.708  51.342  0.00  0.00     0.024 A 
ATOM     11  C   UNL d   1      60.807  49.403  52.063  0.00  0.00     0.002 A 
ENDROOT
BRANCH   1  12
ATOM     12  N   UNL d   1      61.373  46.429  50.253  0.00  0.00    -0.189 N 
ATOM     13  C   UNL d   1      61.031  45.694  50.351  0.00  0.00     0.169 A 
ATOM     14  S   UNL d   1      61.478  45.150  49.927  0.00  0.00    -0.051 SA
ATOM     15  S   UNL d   1      60.333  45.518  50.813  0.00  0.00    -0.050 SA
ATOM     16  C   UNL d   1      62.099  45.548  49.564  0.00  0.00     0.100 A 
ATOM     17  C   UNL d   1      62.041  46.334  49.759  0.00  0.00     0.287 A 
ATOM     18  O   UNL d   1      62.554  46.923  49.510  0.00  0.00    -0.265 OA
ENDBRANCH   1  12
BRANCH   6  19
ATOM     19  N   UNL d   1      60.341  49.549  49.929  0.00  0.00    -0.114 N 
ATOM     20  O   UNL d   1      60.900  49.696  49.344  0.00  0.00    -0.532 OA
ATOM     21  O   UNL d   1      59.549  49.708  49.792  0.00  0.00    -0.532 OA
ENDBRANCH   6  19
TORSDOF 2
ENDMDL
MODEL 2
REMARK VINA RESULT:      81.1      1.655      3.557
REMARK  2 active torsions:
REMARK  status: ('A' for Active; 'I' for Inactive)
REMARK    1  A    between atoms: N_2  and  N_1 
REMARK    2  A    between atoms: N_8  and  C_10 
ROOT
ATOM      1  N   UNL d   1      60.808  47.987  50.921  0.00  0.00    -0.171 N 
ATOM      2  C   UNL d   1      60.733  47.193  51.099  0.00  0.00     0.283 A 
ATOM      3  C   UNL d   1      61.179  46.765  50.535  0.00  0.00     0.085 A 
ATOM      4  C   UNL d   1      61.290  48.071  50.257  0.00  0.00     0.282 A 
ATOM      5  C   UNL d   1      61.527  47.314  50.009  0.00  0.00     0.064 A 
ATOM      6  C   UNL d   1      61.312  45.961  50.432  0.00  0.00     0.131 A 
ATOM      7  O   UNL d   1      60.290  46.896  51.731  0.00  0.00    -0.265 OA
ATOM      8  O   UNL d   1      61.501  48.806  49.900  0.00  0.00    -0.265 OA
ATOM      9  C   UNL d   1      62.002  47.048  49.389  0.00  0.00     0.005 A 
ATOM     10  C   UNL d   1      61.783  45.694  49.817  0.00  0.00     0.024 A 
ATOM     11  C   UNL d   1      62.123  46.231  49.302  0.00  0.00     0.002 A 
ENDROOT
BRANCH   1  12
ATOM     12  N   UNL d   1      60.498  48.661  51.277  0.00  0.00    -0.189 N 
ATOM     13  C   UNL d   1      59.794  49.067  51.203  0.00  0.00     0.169 A 
ATOM     14  S   UNL d   1      59.818  49.708  51.717  0.00  0.00    -0.051 SA
ATOM     15  S   UNL d   1      59.145  48.864  50.684  0.00  0.00    -0.050 SA
ATOM     16  C   UNL d   1      60.539  49.699  52.112  0.00  0.00     0.100 A 
ATOM     17  C   UNL d   1      60.963  49.060  51.846  0.00  0.00     0.287 A 
ATOM     18  O   UNL d   1      61.714  48.850  52.100  0.00  0.00    -0.265 OA
ENDBRANCH   1  12
BRANCH   6  19
ATOM     19  N   UNL d   1      60.960  45.406  50.963  0.00  0.00    -0.114 N 
ATOM     20  O   UNL d   1      60.325  44.946  50.713  0.00  0.00    -0.532 OA
ATOM     21  O   UNL d   1      61.251  45.328  51.725  0.00  0.00    -0.532 OA
ENDBRANCH   6  19
TORSDOF 2
ENDMDL
