MODEL 1
REMARK VINA RESULT:       3.6      0.000      0.000
REMARK  3 active torsions:
REMARK  status: ('A' for Active; 'I' for Inactive)
REMARK    1  A    between atoms: N_10  and  C_3 
REMARK    2  A    between atoms: C_13  and  C_5 
REMARK    3  A    between atoms: C_12  and  C_9 
ROOT
ATOM      1  N   UNL d   1     -41.809-122.357 -51.938  0.00  0.00    -0.196 N 
ATOM      2  C   UNL d   1     -41.724-121.907 -52.619  0.00  0.00     0.167 A 
ATOM      3  C   UNL d   1     -41.724-122.008 -51.195  0.00  0.00     0.152 A 
ATOM      4  N   UNL d   1     -41.975-123.129 -52.161  0.00  0.00    -0.163 NA
ATOM      5  C   UNL d   1     -41.837-122.400 -53.266  0.00  0.00     0.055 A 
ATOM      6  N   UNL d   1     -41.554-121.102 -52.568  0.00  0.00    -0.231 NA
ATOM      7  C   UNL d   1     -41.554-121.201 -51.144  0.00  0.00     0.052 A 
ATOM      8  C   UNL d   1     -41.992-123.153 -52.989  0.00  0.00     0.104 A 
ATOM      9  C   UNL d   1     -41.469-120.752 -51.824  0.00  0.00     0.063 A 
ATOM     10  C   UNL d   1     -42.137-123.812 -53.457  0.00  0.00     0.023 C 
ENDROOT
BRANCH   3  11
ATOM     11  N   UNL d   1     -41.809-122.457 -50.514  0.00  0.00    -0.286 N 
ATOM     12  C   UNL d   1     -41.197-122.951 -50.262  0.00  0.00     0.101 A 
ATOM     13  C   UNL d   1     -41.282-123.403 -49.577  0.00  0.00     0.100 A 
ATOM     14  N   UNL d   1     -41.980-123.363 -49.141  0.00  0.00    -0.299 N 
ATOM     15  C   UNL d   1     -42.592-122.873 -49.390  0.00  0.00     0.100 A 
ATOM     16  C   UNL d   1     -42.065-123.815 -48.456  0.00  0.00     0.100 C 
ATOM     17  C   UNL d   1     -42.506-122.421 -50.074  0.00  0.00     0.101 A 
ENDBRANCH   3  11
BRANCH   9  18
ATOM     18  C   UNL d   1     -41.295-119.930 -51.758  0.00  0.00     0.036 C 
ATOM     19  C   UNL d   1     -41.123-119.118 -51.692  0.00  0.00     0.006 C 
ATOM     20  C   UNL d   1     -41.374-119.847 -52.583  0.00  0.00     0.006 C 
ATOM     21  C   UNL d   1     -41.217-120.017 -50.931  0.00  0.00     0.006 C 
ENDBRANCH   9  18
BRANCH   5  22
ATOM     22  C   UNL d   1     -41.820-122.260 -54.079  0.00  0.00     0.004 A 
ATOM     23  C   UNL d   1     -42.457-121.888 -54.457  0.00  0.00     0.000 A 
ATOM     24  C   UNL d   1     -42.435-121.751 -55.269  0.00  0.00     0.000 A 
ATOM     25  C   UNL d   1     -41.778-121.983 -55.716  0.00  0.00     0.000 A 
ATOM     26  C   UNL d   1     -41.136-122.357 -55.335  0.00  0.00     0.000 A 
ATOM     27  C   UNL d   1     -41.163-122.492 -54.522  0.00  0.00     0.000 A 
ENDBRANCH   5  22
TORSDOF 3
ENDMDL
