MODEL 1
REMARK VINA RESULT:     134.4      0.000      0.000
REMARK  5 active torsions:
REMARK  status: ('A' for Active; 'I' for Inactive)
REMARK    1  A    between atoms: N_2  and  S_1 
REMARK    2  A    between atoms: C_10  and  S_1 
REMARK    3  A    between atoms: C_4  and  N_12 
REMARK    4  A    between atoms: C_8  and  C_17 
REMARK       I    between atoms: N_11  and  C_8 
REMARK    5  A    between atoms: N_12  and  N_11 
ROOT
ATOM      1  C   UNL d   1      60.085  49.269  52.386  0.00  0.00     0.104 A 
ATOM      2  C   UNL d   1      60.985  49.087  51.020  0.00  0.00     0.059 A 
ATOM      3  C   UNL d   1      60.779  49.706  52.290  0.00  0.00     0.013 A 
ATOM      4  C   UNL d   1      59.844  48.742  51.798  0.00  0.00     0.013 A 
ATOM      5  C   UNL d   1      61.219  49.609  51.608  0.00  0.00     0.006 A 
ATOM      6  C   UNL d   1      60.297  48.654  51.115  0.00  0.00     0.006 A 
ENDROOT
BRANCH   2   7
ATOM      7  C   UNL d   1      61.431  48.995  50.337  0.00  0.00     0.297 C 
ATOM      8  N   UNL d   1      61.366  48.254  49.993  0.00  0.00    -0.104 NA
ATOM      9  O   UNL d   1      61.859  49.681  50.138  0.00  0.00    -0.264 OA
BRANCH   8  10
ATOM     10  N   UNL d   1      60.884  47.688  50.338  0.00  0.00    -0.118 NA
BRANCH  10  11
ATOM     11  C   UNL d   1      61.023  46.879  50.202  0.00  0.00     0.215 A 
ATOM     12  N   UNL d   1      61.253  46.328  50.763  0.00  0.00    -0.219 NA
ATOM     13  C   UNL d   1      61.329  45.596  50.402  0.00  0.00     0.090 A 
ATOM     14  C   UNL d   1      61.540  44.855  50.683  0.00  0.00     0.018 A 
ATOM     15  C   UNL d   1      61.142  45.699  49.599  0.00  0.00     0.050 A 
ATOM     16  C   UNL d   1      61.566  44.211  50.167  0.00  0.00     0.002 A 
ATOM     17  C   UNL d   1      61.727  44.755  51.485  0.00  0.00     0.002 C 
ATOM     18  C   UNL d   1      61.380  44.315  49.373  0.00  0.00     0.001 A 
ATOM     19  C   UNL d   1      61.165  45.061  49.075  0.00  0.00     0.008 A 
ATOM     20  S   UNL d   1      60.954  46.490  49.481  0.00  0.00    -0.045 SA
ENDBRANCH  10  11
ENDBRANCH   8  10
ENDBRANCH   2   7
BRANCH   1  21
ATOM     21  S   UNL d   1      59.632  49.355  53.066  0.00  0.00     0.271 S 
ATOM     22  O   UNL d   1      60.231  49.012  53.515  0.00  0.00    -0.200 OA
ATOM     23  O   UNL d   1      59.031  49.698  52.618  0.00  0.00    -0.200 OA
BRANCH  21  24
ATOM     24  N   UNL d   1      59.175  49.442  53.747  0.00  0.00    -0.229 N 
ATOM     25  C   UNL d   1      58.355  49.359  53.706  0.00  0.00     0.092 A 
ATOM     26  C   UNL d   1      57.898  49.447  54.387  0.00  0.00     0.018 A 
ATOM     27  C   UNL d   1      57.079  49.364  54.346  0.00  0.00     0.002 A 
ATOM     28  C   UNL d   1      58.254  49.618  55.114  0.00  0.00     0.003 A 
ATOM     29  C   UNL d   1      56.623  49.451  55.027  0.00  0.00     0.000 A 
ATOM     30  C   UNL d   1      56.986  49.623  55.750  0.00  0.00     0.000 A 
ATOM     31  C   UNL d   1      57.803  49.705  55.788  0.00  0.00     0.000 A 
ATOM     32  C   UNL d   1      59.081  49.701  55.151  0.00  0.00     0.020 A 
ATOM     33  C   UNL d   1      59.538  49.614  54.470  0.00  0.00     0.092 A 
ENDBRANCH  21  24
ENDBRANCH   1  21
TORSDOF 5
ENDMDL
