MODEL 1
REMARK VINA RESULT:      29.2      0.000      0.000
REMARK  3 active torsions:
REMARK  status: ('A' for Active; 'I' for Inactive)
REMARK    1  A    between atoms: C_12  and  C_4 
REMARK    2  A    between atoms: O_13  and  C_7 
REMARK    3  A    between atoms: O_14  and  C_10 
ROOT
ATOM      1  C   UNL d   1      13.393  13.093  -3.731  0.00  0.00     0.084 A 
ATOM      2  C   UNL d   1      13.288  12.305  -3.512  0.00  0.00     0.201 A 
ATOM      3  C   UNL d   1      13.550  12.052  -2.772  0.00  0.00     0.067 A 
ATOM      4  C   UNL d   1      13.915  12.585  -2.253  0.00  0.00     0.103 A 
ATOM      5  C   UNL d   1      13.759  13.626  -3.211  0.00  0.00     0.107 A 
ATOM      6  O   UNL d   1      14.018  13.370  -2.474  0.00  0.00    -0.307 OA
ATOM      7  C   UNL d   1      13.132  13.346  -4.470  0.00  0.00     0.101 A 
ATOM      8  C   UNL d   1      13.859  14.408  -3.436  0.00  0.00     0.049 A 
ATOM      9  C   UNL d   1      13.237  14.134  -4.689  0.00  0.00     0.049 A 
ATOM     10  C   UNL d   1      13.597  14.661  -4.176  0.00  0.00     0.098 A 
ATOM     11  O   UNL d   1      12.927  11.782  -4.028  0.00  0.00    -0.286 OA
ENDROOT
BRANCH   4  12
ATOM     12  C   UNL d   1      14.173  12.326  -1.518  0.00  0.00     0.023 A 
ATOM     13  C   UNL d   1      13.631  12.042  -0.975  0.00  0.00     0.002 A 
ATOM     14  C   UNL d   1      13.883  11.779  -0.234  0.00  0.00     0.000 A 
ATOM     15  C   UNL d   1      14.693  11.805  -0.041  0.00  0.00     0.000 A 
ATOM     16  C   UNL d   1      15.227  12.091  -0.590  0.00  0.00     0.000 A 
ATOM     17  C   UNL d   1      14.976  12.353  -1.331  0.00  0.00     0.002 A 
ENDBRANCH   4  12
BRANCH   7  18
ATOM     18  O   UNL d   1      12.771  12.819  -4.983  0.00  0.00    -0.328 OA
ATOM     19  C   UNL d   1      13.209  12.467  -5.581  0.00  0.00     0.181 C 
ENDBRANCH   7  18
BRANCH  10  20
ATOM     20  O   UNL d   1      13.703  15.450  -4.395  0.00  0.00    -0.328 OA
ATOM     21  C   UNL d   1      14.418  15.825  -4.225  0.00  0.00     0.181 C 
ENDBRANCH  10  20
TORSDOF 3
ENDMDL
