MODEL 1
REMARK VINA RESULT:      31.1      0.000      0.000
REMARK  8 active torsions:
REMARK  status: ('A' for Active; 'I' for Inactive)
REMARK    1  A    between atoms: C_2  and  C_4 
REMARK    2  A    between atoms: S_9  and  C_6 
REMARK    3  A    between atoms: C_7  and  C_17 
REMARK       I    between atoms: N_16  and  C_7 
REMARK    4  A    between atoms: C_17  and  S_9 
REMARK    5  A    between atoms: O_19  and  C_14 
REMARK    6  A    between atoms: C_15  and  C_21 
REMARK    7  A    between atoms: C_20  and  N_16 
REMARK    8  A    between atoms: C_21  and  C_20 
ROOT
ATOM      1  C   UNL d   1      44.757 -12.770  39.312  0.00  0.00     0.286 C 
ATOM      2  O   UNL d   1      43.940 -12.842  39.250  0.00  0.00    -0.265 OA
ATOM      3  N   UNL d   1      45.234 -13.060  38.719  0.00  0.00    -0.206 NA
ENDROOT
BRANCH   1   4
ATOM      4  C   UNL d   1      45.088 -12.405  39.977  0.00  0.00     0.099 C 
BRANCH   4   5
ATOM      5  S   UNL d   1      44.600 -12.157  40.588  0.00  0.00    -0.061 SA
BRANCH   5   6
ATOM      6  C   UNL d   1      44.820 -12.280  41.373  0.00  0.00     0.133 A 
ATOM      7  N   UNL d   1      44.255 -12.447  41.943  0.00  0.00    -0.141 NA
ATOM      8  N   UNL d   1      44.469 -12.570  42.723  0.00  0.00    -0.147 NA
ATOM      9  C   UNL d   1      45.263 -12.525  42.940  0.00  0.00     0.109 A 
ATOM     10  C   UNL d   1      45.839 -12.357  42.370  0.00  0.00     0.024 A 
ATOM     11  C   UNL d   1      45.620 -12.236  41.596  0.00  0.00     0.029 A 
BRANCH   9  12
ATOM     12  C   UNL d   1      45.486 -12.648  43.722  0.00  0.00     0.049 A 
ATOM     13  S   UNL d   1      45.391 -13.342  44.156  0.00  0.00    -0.085 SA
ATOM     14  C   UNL d   1      45.689 -13.226  44.916  0.00  0.00     0.035 A 
ATOM     15  C   UNL d   1      45.974 -12.442  44.955  0.00  0.00     0.007 A 
ATOM     16  C   UNL d   1      45.850 -12.083  44.219  0.00  0.00     0.009 A 
ENDBRANCH   9  12
ENDBRANCH   5   6
ENDBRANCH   4   5
ENDBRANCH   1   4
BRANCH   3  17
ATOM     17  C   UNL d   1      44.903 -13.425  38.055  0.00  0.00     0.102 C 
BRANCH  17  18
ATOM     18  C   UNL d   1      45.314 -14.016  37.662  0.00  0.00     0.023 C 
BRANCH  18  19
ATOM     19  C   UNL d   1      44.905 -14.647  37.315  0.00  0.00     0.024 A 
ATOM     20  C   UNL d   1      45.240 -15.067  36.699  0.00  0.00     0.094 A 
ATOM     21  C   UNL d   1      44.838 -15.687  36.358  0.00  0.00     0.024 A 
ATOM     22  C   UNL d   1      44.085 -15.896  36.636  0.00  0.00     0.002 A 
ATOM     23  C   UNL d   1      43.747 -15.470  37.260  0.00  0.00     0.000 A 
ATOM     24  C   UNL d   1      44.162 -14.846  37.597  0.00  0.00     0.002 A 
BRANCH  20  25
ATOM     25  O   UNL d   1      45.985 -14.865  36.419  0.00  0.00    -0.328 OA
ATOM     26  C   UNL d   1      46.647 -15.256  36.710  0.00  0.00     0.181 C 
ENDBRANCH  20  25
ENDBRANCH  18  19
ENDBRANCH  17  18
ENDBRANCH   3  17
TORSDOF 8
ENDMDL
MODEL 2
REMARK VINA RESULT:      32.9      4.983      7.389
REMARK  8 active torsions:
REMARK  status: ('A' for Active; 'I' for Inactive)
REMARK    1  A    between atoms: C_2  and  C_4 
REMARK    2  A    between atoms: S_9  and  C_6 
REMARK    3  A    between atoms: C_7  and  C_17 
REMARK       I    between atoms: N_16  and  C_7 
REMARK    4  A    between atoms: C_17  and  S_9 
REMARK    5  A    between atoms: O_19  and  C_14 
REMARK    6  A    between atoms: C_15  and  C_21 
REMARK    7  A    between atoms: C_20  and  N_16 
REMARK    8  A    between atoms: C_21  and  C_20 
ROOT
ATOM      1  C   UNL d   1      46.203 -18.772  40.626  0.00  0.00     0.286 C 
ATOM      2  O   UNL d   1      46.193 -19.592  40.557  0.00  0.00    -0.265 OA
ATOM      3  N   UNL d   1      46.393 -18.429  41.340  0.00  0.00    -0.206 NA
ENDROOT
BRANCH   1   4
ATOM      4  C   UNL d   1      46.019 -18.302  39.970  0.00  0.00     0.099 C 
BRANCH   4   5
ATOM      5  S   UNL d   1      45.351 -17.826  39.987  0.00  0.00    -0.061 SA
BRANCH   5   6
ATOM      6  C   UNL d   1      45.155 -17.358  39.337  0.00  0.00     0.133 A 
ATOM      7  N   UNL d   1      44.372 -17.230  39.136  0.00  0.00    -0.141 NA
ATOM      8  N   UNL d   1      44.174 -16.767  38.492  0.00  0.00    -0.147 NA
ATOM      9  C   UNL d   1      44.771 -16.423  38.038  0.00  0.00     0.109 A 
ATOM     10  C   UNL d   1      45.564 -16.548  38.234  0.00  0.00     0.024 A 
ATOM     11  C   UNL d   1      45.754 -17.010  38.877  0.00  0.00     0.029 A 
BRANCH   9  12
ATOM     12  C   UNL d   1      44.579 -15.956  37.388  0.00  0.00     0.049 A 
ATOM     13  S   UNL d   1      43.903 -16.019  36.921  0.00  0.00    -0.085 SA
ATOM     14  C   UNL d   1      43.931 -15.444  36.331  0.00  0.00     0.035 A 
ATOM     15  C   UNL d   1      44.640 -15.015  36.433  0.00  0.00     0.007 A 
ATOM     16  C   UNL d   1      45.041 -15.329  37.085  0.00  0.00     0.009 A 
ENDBRANCH   9  12
ENDBRANCH   5   6
ENDBRANCH   4   5
ENDBRANCH   1   4
BRANCH   3  17
ATOM     17  C   UNL d   1      46.576 -18.899  41.995  0.00  0.00     0.102 C 
BRANCH  17  18
ATOM     18  C   UNL d   1      46.611 -18.566  42.745  0.00  0.00     0.023 C 
BRANCH  18  19
ATOM     19  C   UNL d   1      46.520 -19.041  43.416  0.00  0.00     0.024 A 
ATOM     20  C   UNL d   1      46.305 -18.708  44.131  0.00  0.00     0.094 A 
ATOM     21  C   UNL d   1      46.215 -19.176  44.791  0.00  0.00     0.024 A 
ATOM     22  C   UNL d   1      46.341 -19.993  44.740  0.00  0.00     0.002 A 
ATOM     23  C   UNL d   1      46.559 -20.330  44.016  0.00  0.00     0.000 A 
ATOM     24  C   UNL d   1      46.647 -19.848  43.356  0.00  0.00     0.002 A 
BRANCH  20  25
ATOM     25  O   UNL d   1      46.178 -17.899  44.187  0.00  0.00    -0.328 OA
ATOM     26  C   UNL d   1      46.086 -17.554  44.928  0.00  0.00     0.181 C 
ENDBRANCH  20  25
ENDBRANCH  18  19
ENDBRANCH  17  18
ENDBRANCH   3  17
TORSDOF 8
ENDMDL
