MODEL 1
REMARK VINA RESULT:      11.3      0.000      0.000
REMARK  5 active torsions:
REMARK  status: ('A' for Active; 'I' for Inactive)
REMARK    1  A    between atoms: C_9  and  C_5 
REMARK    2  A    between atoms: N_14  and  C_6 
REMARK    3  A    between atoms: N_11  and  C_9 
REMARK    4  A    between atoms: C_15  and  N_11 
REMARK    5  A    between atoms: C_16  and  C_15 
ROOT
ATOM      1  N   UNL d   1      46.432 -18.214  42.487  0.00  0.00    -0.258 N 
ATOM      2  N   UNL d   1      46.421 -19.296  43.342  0.00  0.00    -0.209 NA
ATOM      3  C   UNL d   1      46.479 -18.998  42.594  0.00  0.00     0.152 A 
ATOM      4  C   UNL d   1      46.327 -17.686  43.104  0.00  0.00     0.270 A 
ATOM      5  C   UNL d   1      46.266 -17.997  43.886  0.00  0.00     0.111 A 
ATOM      6  C   UNL d   1      46.317 -18.803  43.966  0.00  0.00     0.170 A 
ATOM      7  C   UNL d   1      46.587 -19.513  41.942  0.00  0.00     0.035 A 
ATOM      8  C   UNL d   1      46.494 -17.896  41.688  0.00  0.00     0.084 A 
ATOM      9  O   UNL d   1      46.277 -16.875  43.007  0.00  0.00    -0.266 OA
ATOM     10  C   UNL d   1      46.596 -18.397  41.081  0.00  0.00     0.019 A 
ATOM     11  C   UNL d   1      46.647 -19.206  41.172  0.00  0.00     0.005 A 
ATOM     12  C   UNL d   1      46.636 -20.329  42.050  0.00  0.00     0.003 C 
ENDROOT
BRANCH   5  13
ATOM     13  C   UNL d   1      46.158 -17.488  44.548  0.00  0.00     0.107 C 
BRANCH  13  14
ATOM     14  N   UNL d   1      46.098 -16.664  44.448  0.00  0.00    -0.242 NA
BRANCH  14  15
ATOM     15  C   UNL d   1      45.607 -16.231  44.955  0.00  0.00     0.099 C 
BRANCH  15  16
ATOM     16  C   UNL d   1      45.530 -15.428  44.861  0.00  0.00     0.019 A 
ATOM     17  C   UNL d   1      44.795 -15.068  44.915  0.00  0.00     0.002 A 
ATOM     18  C   UNL d   1      44.704 -14.265  44.823  0.00  0.00     0.000 A 
ATOM     19  C   UNL d   1      45.376 -13.801  44.670  0.00  0.00     0.000 A 
ATOM     20  C   UNL d   1      46.127 -14.168  44.614  0.00  0.00     0.000 A 
ATOM     21  C   UNL d   1      46.201 -14.963  44.707  0.00  0.00     0.002 A 
ENDBRANCH  15  16
ENDBRANCH  14  15
ENDBRANCH  13  14
ENDBRANCH   5  13
BRANCH   6  22
ATOM     22  N   UNL d   1      46.257 -19.113  44.747  0.00  0.00    -0.223 NA
ATOM     23  C   UNL d   1      46.423 -19.914  44.877  0.00  0.00     0.121 C 
ENDBRANCH   6  22
TORSDOF 5
ENDMDL
