MODEL 1
REMARK VINA RESULT:      33.5      0.000      0.000
REMARK  3 active torsions:
REMARK  status: ('A' for Active; 'I' for Inactive)
REMARK    1  A    between atoms: C_14  and  N_3 
REMARK    2  A    between atoms: O_17  and  C_12 
REMARK    3  A    between atoms: O_16  and  C_13 
ROOT
ATOM      1  C   UNL d   1      13.757  13.615  -3.362  0.00  0.00     0.166 A 
ATOM      2  C   UNL d   1      13.679  12.771  -3.366  0.00  0.00     0.117 A 
ATOM      3  N   UNL d   1      13.497  13.894  -4.101  0.00  0.00    -0.289 N 
ATOM      4  N   UNL d   1      14.058  13.981  -2.672  0.00  0.00    -0.225 NA
ATOM      5  N   UNL d   1      13.894  12.335  -2.708  0.00  0.00    -0.241 NA
ATOM      6  C   UNL d   1      13.376  12.574  -4.103  0.00  0.00     0.037 A 
ATOM      7  C   UNL d   1      13.265  13.258  -4.551  0.00  0.00     0.067 A 
ATOM      8  C   UNL d   1      14.273  13.548  -2.016  0.00  0.00     0.103 A 
ATOM      9  C   UNL d   1      14.191  12.725  -2.033  0.00  0.00     0.101 A 
ATOM     10  C   UNL d   1      14.559  13.928  -1.366  0.00  0.00     0.047 A 
ATOM     11  C   UNL d   1      14.406  12.288  -1.376  0.00  0.00     0.047 A 
ATOM     12  C   UNL d   1      14.706  12.655  -0.686  0.00  0.00     0.118 A 
ATOM     13  C   UNL d   1      14.775  13.487  -0.705  0.00  0.00     0.118 A 
ATOM     14  C   UNL d   1      13.184  11.836  -4.427  0.00  0.00     0.003 A 
ATOM     15  C   UNL d   1      12.965  13.184  -5.308  0.00  0.00     0.018 A 
ATOM     16  C   UNL d   1      12.881  11.779  -5.195  0.00  0.00     0.000 A 
ATOM     17  C   UNL d   1      12.770  12.463  -5.643  0.00  0.00     0.002 A 
ENDROOT
BRANCH   3  18
ATOM     18  C   UNL d   1      13.479  14.670  -4.330  0.00  0.00     0.082 C 
ATOM     19  C   UNL d   1      12.793  15.116  -4.222  0.00  0.00     0.021 C 
ENDBRANCH   3  18
BRANCH  13  20
ATOM     20  O   UNL d   1      15.063  13.864  -0.050  0.00  0.00    -0.326 OA
ATOM     21  C   UNL d   1      15.210  14.681  -0.056  0.00  0.00     0.181 C 
ENDBRANCH  13  20
BRANCH  12  22
ATOM     22  O   UNL d   1      14.925  12.199  -0.015  0.00  0.00    -0.326 OA
ATOM     23  C   UNL d   1      15.645  11.779  -0.016  0.00  0.00     0.181 C 
ENDBRANCH  12  22
TORSDOF 3
ENDMDL
