MODEL 1
REMARK VINA RESULT:     130.7      0.000      0.000
REMARK  6 active torsions:
REMARK  status: ('A' for Active; 'I' for Inactive)
REMARK    1  A    between atoms: C_3  and  N_1 
REMARK    2  A    between atoms: N_7  and  C_3 
REMARK    3  A    between atoms: C_9  and  C_4 
REMARK    4  A    between atoms: C_10  and  C_5 
REMARK    5  A    between atoms: C_15  and  N_7 
REMARK    6  A    between atoms: O_23  and  C_17 
ROOT
ATOM      1  N   UNL d   1      60.288  47.505  50.435  0.00  0.00    -0.203 N 
ATOM      2  N   UNL d   1      60.323  46.798  49.984  0.00  0.00    -0.163 NA
ATOM      3  C   UNL d   1      60.915  46.330  50.305  0.00  0.00     0.103 A 
ATOM      4  C   UNL d   1      60.867  47.458  51.032  0.00  0.00     0.087 A 
ATOM      5  C   UNL d   1      61.253  46.706  50.933  0.00  0.00     0.040 A 
ENDROOT
BRANCH   1   6
ATOM      6  C   UNL d   1      59.764  48.151  50.311  0.00  0.00     0.222 C 
ATOM      7  S   UNL d   1      60.017  48.787  49.863  0.00  0.00    -0.037 SA
BRANCH   6   8
ATOM      8  N   UNL d   1      59.010  48.135  50.639  0.00  0.00    -0.217 NA
BRANCH   8   9
ATOM      9  C   UNL d   1      58.425  48.635  50.350  0.00  0.00     0.084 A 
ATOM     10  C   UNL d   1      58.096  49.204  50.864  0.00  0.00     0.019 A 
ATOM     11  C   UNL d   1      57.509  49.707  50.576  0.00  0.00     0.002 A 
ATOM     12  C   UNL d   1      57.272  49.633  49.809  0.00  0.00     0.000 A 
ATOM     13  C   UNL d   1      57.595  49.077  49.308  0.00  0.00     0.002 A 
ATOM     14  C   UNL d   1      58.170  48.579  49.578  0.00  0.00     0.019 A 
ENDBRANCH   8   9
ENDBRANCH   6   8
ENDBRANCH   1   6
BRANCH   4  15
ATOM     15  C   UNL d   1      61.061  48.010  51.625  0.00  0.00     0.018 A 
ATOM     16  C   UNL d   1      61.521  48.672  51.453  0.00  0.00     0.004 A 
ATOM     17  C   UNL d   1      61.707  49.213  52.050  0.00  0.00     0.024 A 
ATOM     18  C   UNL d   1      61.445  49.102  52.801  0.00  0.00     0.094 A 
ATOM     19  C   UNL d   1      60.972  48.427  52.991  0.00  0.00     0.024 A 
ATOM     20  C   UNL d   1      60.790  47.892  52.393  0.00  0.00     0.004 A 
BRANCH  18  21
ATOM     21  O   UNL d   1      61.659  49.683  53.387  0.00  0.00    -0.328 OA
ATOM     22  C   UNL d   1      62.320  49.553  53.886  0.00  0.00     0.181 C 
ENDBRANCH  18  21
ENDBRANCH   4  15
BRANCH   3  23
ATOM     23  C   UNL d   1      61.104  45.586  49.995  0.00  0.00     0.019 A 
ATOM     24  C   UNL d   1      61.193  44.938  50.480  0.00  0.00     0.002 A 
ATOM     25  C   UNL d   1      61.381  44.198  50.173  0.00  0.00     0.007 A 
ATOM     26  C   UNL d   1      61.480  44.113  49.357  0.00  0.00     0.035 A 
ATOM     27  C   UNL d   1      61.390  44.770  48.856  0.00  0.00     0.007 A 
ATOM     28 BR   UNL d   1      61.669  43.375  49.030  0.00  0.00    -0.049 Br
ATOM     29  C   UNL d   1      61.202  45.514  49.166  0.00  0.00     0.002 A 
ENDBRANCH   3  23
TORSDOF 6
ENDMDL
