MODEL 1
REMARK VINA RESULT:      -3.3      0.000      0.000
REMARK  5 active torsions:
REMARK  status: ('A' for Active; 'I' for Inactive)
REMARK    1  A    between atoms: N_10  and  C_4 
REMARK    2  A    between atoms: C_20  and  N_5 
REMARK    3  A    between atoms: C_12  and  S_19 
REMARK    4  A    between atoms: S_19  and  C_23 
REMARK    5  A    between atoms: C_23  and  C_20 
ROOT
ATOM      1  C   UNL d   1     -39.057  14.009  19.061  0.00  0.00     0.191 A 
ATOM      2  C   UNL d   1     -39.866  14.144  19.132  0.00  0.00     0.174 A 
ATOM      3  N   UNL d   1     -38.711  14.155  19.792  0.00  0.00    -0.042 NA
ATOM      4  C   UNL d   1     -39.298  14.379  20.313  0.00  0.00     0.722 A 
ATOM      5  N   UNL d   1     -40.021  14.374  19.908  0.00  0.00    -0.132 N 
ATOM      6  N   UNL d   1     -38.742  13.769  18.337  0.00  0.00    -0.239 N 
ATOM      7  C   UNL d   1     -39.236  13.665  17.684  0.00  0.00     0.358 A 
ATOM      8  N   UNL d   1     -40.046  13.800  17.756  0.00  0.00    -0.152 NA
ATOM      9  C   UNL d   1     -40.362  14.040  18.480  0.00  0.00     0.303 A 
ATOM     10  O   UNL d   1     -38.916  13.425  16.961  0.00  0.00    -0.244 OA
ATOM     11  O   UNL d   1     -41.172  14.175  18.552  0.00  0.00    -0.263 OA
ATOM     12  C   UNL d   1     -37.940  13.635  18.266  0.00  0.00     0.105 C 
ENDROOT
BRANCH   5  13
ATOM     13  C   UNL d   1     -40.763  14.565  20.223  0.00  0.00     0.105 C 
BRANCH  13  14
ATOM     14  C   UNL d   1     -41.273  13.964  20.482  0.00  0.00     0.058 C 
BRANCH  14  15
ATOM     15  S   UNL d   1     -42.038  14.159  20.754  0.00  0.00    -0.041 SA
BRANCH  15  16
ATOM     16  C   UNL d   1     -42.482  13.585  21.152  0.00  0.00     0.215 A 
ATOM     17  N   UNL d   1     -43.289  13.671  21.246  0.00  0.00    -0.214 NA
ATOM     18  C   UNL d   1     -43.569  13.027  21.655  0.00  0.00     0.107 A 
ATOM     19  C   UNL d   1     -44.337  12.831  21.900  0.00  0.00     0.021 A 
ATOM     20  C   UNL d   1     -42.951  12.532  21.823  0.00  0.00     0.120 A 
ATOM     21  C   UNL d   1     -44.468  12.126  22.316  0.00  0.00     0.002 A 
ATOM     22  C   UNL d   1     -43.847  11.634  22.482  0.00  0.00     0.002 A 
ATOM     23  C   UNL d   1     -43.085  11.837  22.235  0.00  0.00     0.026 A 
ATOM     24  O   UNL d   1     -42.261  12.881  21.507  0.00  0.00    -0.283 OA
ENDBRANCH  15  16
ENDBRANCH  14  15
ENDBRANCH  13  14
ENDBRANCH   5  13
BRANCH   4  25
ATOM     25  N   UNL d   1     -39.155  14.570  21.098  0.00  0.00    -0.139 N 
ATOM     26  C   UNL d   1     -38.991  13.973  21.640  0.00  0.00     0.098 A 
ATOM     27  C   UNL d   1     -38.846  14.156  22.432  0.00  0.00     0.018 A 
ATOM     28  C   UNL d   1     -38.678  13.569  22.995  0.00  0.00     0.002 C 
ATOM     29  C   UNL d   1     -38.866  14.938  22.681  0.00  0.00     0.003 A 
ATOM     30  C   UNL d   1     -39.031  15.544  22.142  0.00  0.00     0.020 A 
ATOM     31  C   UNL d   1     -39.176  15.351  21.342  0.00  0.00     0.098 A 
ENDBRANCH   4  25
TORSDOF 5
ENDMDL
MODEL 2
REMARK VINA RESULT:      -2.7      5.985      8.093
REMARK  5 active torsions:
REMARK  status: ('A' for Active; 'I' for Inactive)
REMARK    1  A    between atoms: N_10  and  C_4 
REMARK    2  A    between atoms: C_20  and  N_5 
REMARK    3  A    between atoms: C_12  and  S_19 
REMARK    4  A    between atoms: S_19  and  C_23 
REMARK    5  A    between atoms: C_23  and  C_20 
ROOT
ATOM      1  C   UNL d   1     -48.998  12.896  22.243  0.00  0.00     0.191 A 
ATOM      2  C   UNL d   1     -48.731  12.324  22.772  0.00  0.00     0.174 A 
ATOM      3  N   UNL d   1     -48.409  13.464  22.167  0.00  0.00    -0.042 NA
ATOM      4  C   UNL d   1     -47.782  13.249  22.643  0.00  0.00     0.722 A 
ATOM      5  N   UNL d   1     -47.976  12.539  23.023  0.00  0.00    -0.132 N 
ATOM      6  N   UNL d   1     -49.745  12.823  21.899  0.00  0.00    -0.239 N 
ATOM      7  C   UNL d   1     -50.225  12.177  22.085  0.00  0.00     0.358 A 
ATOM      8  N   UNL d   1     -49.957  11.605  22.615  0.00  0.00    -0.152 NA
ATOM      9  C   UNL d   1     -49.210  11.678  22.959  0.00  0.00     0.303 A 
ATOM     10  O   UNL d   1     -50.972  12.108  21.739  0.00  0.00    -0.244 OA
ATOM     11  O   UNL d   1     -48.943  11.106  23.489  0.00  0.00    -0.263 OA
ATOM     12  C   UNL d   1     -50.010  13.389  21.375  0.00  0.00     0.105 C 
ENDROOT
BRANCH   5  13
ATOM     13  C   UNL d   1     -47.501  12.121  23.558  0.00  0.00     0.105 C 
BRANCH  13  14
ATOM     14  C   UNL d   1     -46.810  11.746  23.295  0.00  0.00     0.058 C 
BRANCH  14  15
ATOM     15  S   UNL d   1     -46.535  11.061  23.688  0.00  0.00    -0.041 SA
BRANCH  15  16
ATOM     16  C   UNL d   1     -45.740  10.844  23.610  0.00  0.00     0.215 A 
ATOM     17  N   UNL d   1     -45.509  10.065  23.698  0.00  0.00    -0.214 NA
ATOM     18  C   UNL d   1     -44.705  10.024  23.591  0.00  0.00     0.107 A 
ATOM     19  C   UNL d   1     -44.186   9.378  23.618  0.00  0.00     0.021 A 
ATOM     20  C   UNL d   1     -44.421  10.766  23.437  0.00  0.00     0.120 A 
ATOM     21  C   UNL d   1     -43.376   9.495  23.487  0.00  0.00     0.002 A 
ATOM     22  C   UNL d   1     -43.095  10.239  23.332  0.00  0.00     0.002 A 
ATOM     23  C   UNL d   1     -43.620  10.877  23.307  0.00  0.00     0.026 A 
ATOM     24  O   UNL d   1     -45.072  11.288  23.447  0.00  0.00    -0.283 OA
ENDBRANCH  15  16
ENDBRANCH  14  15
ENDBRANCH  13  14
ENDBRANCH   5  13
BRANCH   4  25
ATOM     25  N   UNL d   1     -47.092  13.689  22.707  0.00  0.00    -0.139 N 
ATOM     26  C   UNL d   1     -46.489  13.586  22.158  0.00  0.00     0.098 A 
ATOM     27  C   UNL d   1     -45.792  14.025  22.214  0.00  0.00     0.018 A 
ATOM     28  C   UNL d   1     -45.171  13.936  21.670  0.00  0.00     0.002 C 
ATOM     29  C   UNL d   1     -45.700  14.568  22.823  0.00  0.00     0.003 A 
ATOM     30  C   UNL d   1     -46.303  14.677  23.380  0.00  0.00     0.020 A 
ATOM     31  C   UNL d   1     -47.005  14.229  23.316  0.00  0.00     0.098 A 
ENDBRANCH   4  25
TORSDOF 5
ENDMDL
MODEL 3
REMARK VINA RESULT:      -2.6      1.665      3.207
REMARK  5 active torsions:
REMARK  status: ('A' for Active; 'I' for Inactive)
REMARK    1  A    between atoms: N_10  and  C_4 
REMARK    2  A    between atoms: C_20  and  N_5 
REMARK    3  A    between atoms: C_12  and  S_19 
REMARK    4  A    between atoms: S_19  and  C_23 
REMARK    5  A    between atoms: C_23  and  C_20 
ROOT
ATOM      1  C   UNL d   1     -39.278  15.020  21.586  0.00  0.00     0.191 A 
ATOM      2  C   UNL d   1     -39.716  14.324  21.644  0.00  0.00     0.174 A 
ATOM      3  N   UNL d   1     -39.485  15.390  20.882  0.00  0.00    -0.042 NA
ATOM      4  C   UNL d   1     -40.046  14.931  20.506  0.00  0.00     0.722 A 
ATOM      5  N   UNL d   1     -40.194  14.265  20.975  0.00  0.00    -0.132 N 
ATOM      6  N   UNL d   1     -38.747  15.223  22.184  0.00  0.00    -0.239 N 
ATOM      7  C   UNL d   1     -38.654  14.731  22.840  0.00  0.00     0.358 A 
ATOM      8  N   UNL d   1     -39.091  14.036  22.898  0.00  0.00    -0.152 NA
ATOM      9  C   UNL d   1     -39.623  13.831  22.300  0.00  0.00     0.303 A 
ATOM     10  O   UNL d   1     -38.120  14.939  23.437  0.00  0.00    -0.244 OA
ATOM     11  O   UNL d   1     -40.061  13.136  22.358  0.00  0.00    -0.263 OA
ATOM     12  C   UNL d   1     -38.313  15.912  22.126  0.00  0.00     0.105 C 
ENDROOT
BRANCH   5  13
ATOM     13  C   UNL d   1     -40.724  13.651  20.806  0.00  0.00     0.105 C 
BRANCH  13  14
ATOM     14  C   UNL d   1     -41.480  13.648  21.149  0.00  0.00     0.058 C 
BRANCH  14  15
ATOM     15  S   UNL d   1     -41.972  12.978  21.060  0.00  0.00    -0.041 SA
BRANCH  15  16
ATOM     16  C   UNL d   1     -42.751  13.013  21.336  0.00  0.00     0.215 A 
ATOM     17  N   UNL d   1     -43.082  12.380  21.734  0.00  0.00    -0.214 NA
ATOM     18  C   UNL d   1     -43.845  12.575  21.933  0.00  0.00     0.107 A 
ATOM     19  C   UNL d   1     -44.427  12.144  22.338  0.00  0.00     0.021 A 
ATOM     20  C   UNL d   1     -44.004  13.322  21.669  0.00  0.00     0.120 A 
ATOM     21  C   UNL d   1     -45.172  12.483  22.469  0.00  0.00     0.002 A 
ATOM     22  C   UNL d   1     -45.328  13.231  22.202  0.00  0.00     0.002 A 
ATOM     23  C   UNL d   1     -44.742  13.653  21.800  0.00  0.00     0.026 A 
ATOM     24  O   UNL d   1     -43.316  13.604  21.290  0.00  0.00    -0.283 OA
ENDBRANCH  15  16
ENDBRANCH  14  15
ENDBRANCH  13  14
ENDBRANCH   5  13
BRANCH   4  25
ATOM     25  N   UNL d   1     -40.382  15.131  19.784  0.00  0.00    -0.139 N 
ATOM     26  C   UNL d   1     -40.146  14.739  19.101  0.00  0.00     0.098 A 
ATOM     27  C   UNL d   1     -40.478  14.934  18.371  0.00  0.00     0.018 A 
ATOM     28  C   UNL d   1     -40.254  14.551  17.669  0.00  0.00     0.002 C 
ATOM     29  C   UNL d   1     -41.049  15.523  18.327  0.00  0.00     0.003 A 
ATOM     30  C   UNL d   1     -41.292  15.922  19.010  0.00  0.00     0.020 A 
ATOM     31  C   UNL d   1     -40.950  15.719  19.745  0.00  0.00     0.098 A 
ENDBRANCH   4  25
TORSDOF 5
ENDMDL
