MODEL 1
REMARK VINA RESULT:      13.3      0.000      0.000
REMARK  4 active torsions:
REMARK  status: ('A' for Active; 'I' for Inactive)
REMARK    1  A    between atoms: S_5  and  C_2 
REMARK    2  A    between atoms: C_16  and  S_5 
REMARK    3  A    between atoms: N_11  and  C_8 
REMARK    4  A    between atoms: C_12  and  N_11 
ROOT
ATOM      1  C   UNL d   1     -41.598-121.528 -52.600  0.00  0.00     0.197 A 
ATOM      2  C   UNL d   1     -41.711-121.408 -53.413  0.00  0.00     0.227 A 
ATOM      3  N   UNL d   1     -41.497-120.787 -52.247  0.00  0.00    -0.192 N 
ATOM      4  N   UNL d   1     -41.574-122.211 -52.138  0.00  0.00    -0.206 NA
ATOM      5  N   UNL d   1     -41.680-120.596 -53.560  0.00  0.00    -0.115 NA
ATOM      6  N   UNL d   1     -41.547-120.208 -52.839  0.00  0.00    -0.058 NA
ATOM      7  C   UNL d   1     -41.448-122.156 -51.320  0.00  0.00     0.166 A 
ATOM      8  C   UNL d   1     -41.348-121.414 -50.973  0.00  0.00     0.054 A 
ATOM      9  C   UNL d   1     -41.371-120.727 -51.429  0.00  0.00     0.089 A 
ATOM     10  C   UNL d   1     -41.223-121.354 -50.154  0.00  0.00     0.005 A 
ATOM     11  C   UNL d   1     -41.271-119.988 -51.079  0.00  0.00     0.019 A 
ATOM     12  C   UNL d   1     -41.123-120.615 -49.806  0.00  0.00     0.000 A 
ATOM     13  C   UNL d   1     -41.147-119.932 -50.268  0.00  0.00     0.002 A 
ENDROOT
BRANCH   2  14
ATOM     14  S   UNL d   1     -41.834-122.000 -53.975  0.00  0.00     0.231 S 
ATOM     15  O   UNL d   1     -42.530-122.237 -53.608  0.00  0.00    -0.215 OA
ATOM     16  O   UNL d   1     -41.135-121.761 -54.341  0.00  0.00    -0.215 OA
BRANCH  14  17
ATOM     17  C   UNL d   1     -41.918-122.576 -54.553  0.00  0.00     0.090 A 
ATOM     18  C   UNL d   1     -41.415-123.231 -54.553  0.00  0.00     0.011 A 
ATOM     19  C   UNL d   1     -41.495-123.808 -55.127  0.00  0.00     0.001 A 
ATOM     20  C   UNL d   1     -42.079-123.737 -55.709  0.00  0.00     0.000 A 
ATOM     21  C   UNL d   1     -42.581-123.079 -55.706  0.00  0.00     0.001 A 
ATOM     22  C   UNL d   1     -42.498-122.506 -55.132  0.00  0.00     0.011 A 
ENDBRANCH  14  17
ENDBRANCH   2  14
BRANCH   7  23
ATOM     23  N   UNL d   1     -41.424-122.839 -50.857  0.00  0.00    -0.227 NA
BRANCH  23  24
ATOM     24  C   UNL d   1     -42.098-123.089 -50.457  0.00  0.00     0.083 A 
ATOM     25  C   UNL d   1     -42.048-123.313 -49.663  0.00  0.00     0.018 A 
ATOM     26  C   UNL d   1     -42.722-123.563 -49.262  0.00  0.00     0.002 A 
ATOM     27  C   UNL d   1     -41.319-123.285 -49.272  0.00  0.00     0.002 C 
ATOM     28  C   UNL d   1     -42.672-123.787 -48.470  0.00  0.00     0.000 C 
ATOM     29  C   UNL d   1     -43.453-123.592 -49.653  0.00  0.00     0.000 A 
ATOM     30  C   UNL d   1     -43.495-123.366 -50.451  0.00  0.00     0.002 A 
ATOM     31  C   UNL d   1     -42.822-123.117 -50.848  0.00  0.00     0.019 A 
ENDBRANCH  23  24
ENDBRANCH   7  23
TORSDOF 4
ENDMDL
MODEL 2
REMARK VINA RESULT:      15.1      1.108      2.931
REMARK  4 active torsions:
REMARK  status: ('A' for Active; 'I' for Inactive)
REMARK    1  A    between atoms: S_5  and  C_2 
REMARK    2  A    between atoms: C_16  and  S_5 
REMARK    3  A    between atoms: N_11  and  C_8 
REMARK    4  A    between atoms: C_12  and  N_11 
ROOT
ATOM      1  C   UNL d   1     -42.279-122.804 -52.145  0.00  0.00     0.197 A 
ATOM      2  C   UNL d   1     -42.518-123.121 -52.873  0.00  0.00     0.227 A 
ATOM      3  N   UNL d   1     -42.659-123.230 -51.547  0.00  0.00    -0.192 N 
ATOM      4  N   UNL d   1     -41.768-122.187 -51.949  0.00  0.00    -0.206 NA
ATOM      5  N   UNL d   1     -43.044-123.740 -52.724  0.00  0.00    -0.115 NA
ATOM      6  N   UNL d   1     -43.134-123.811 -51.902  0.00  0.00    -0.058 NA
ATOM      7  C   UNL d   1     -41.634-121.993 -51.154  0.00  0.00     0.166 A 
ATOM      8  C   UNL d   1     -42.016-122.421 -50.562  0.00  0.00     0.054 A 
ATOM      9  C   UNL d   1     -42.529-123.040 -50.750  0.00  0.00     0.089 A 
ATOM     10  C   UNL d   1     -41.886-122.231 -49.764  0.00  0.00     0.005 A 
ATOM     11  C   UNL d   1     -42.908-123.465 -50.155  0.00  0.00     0.019 A 
ATOM     12  C   UNL d   1     -42.266-122.657 -49.170  0.00  0.00     0.000 A 
ATOM     13  C   UNL d   1     -42.777-123.274 -49.366  0.00  0.00     0.002 A 
ENDROOT
BRANCH   2  14
ATOM     14  S   UNL d   1     -42.272-122.860 -53.617  0.00  0.00     0.231 S 
ATOM     15  O   UNL d   1     -41.683-123.434 -53.648  0.00  0.00    -0.215 OA
ATOM     16  O   UNL d   1     -42.862-122.287 -53.583  0.00  0.00    -0.215 OA
BRANCH  14  17
ATOM     17  C   UNL d   1     -42.058-122.571 -54.354  0.00  0.00     0.090 A 
ATOM     18  C   UNL d   1     -41.445-122.935 -54.772  0.00  0.00     0.011 A 
ATOM     19  C   UNL d   1     -41.228-122.651 -55.507  0.00  0.00     0.001 A 
ATOM     20  C   UNL d   1     -41.620-122.000 -55.834  0.00  0.00     0.000 A 
ATOM     21  C   UNL d   1     -42.233-121.638 -55.412  0.00  0.00     0.001 A 
ATOM     22  C   UNL d   1     -42.448-121.924 -54.678  0.00  0.00     0.011 A 
ENDBRANCH  14  17
ENDBRANCH   2  14
BRANCH   7  23
ATOM     23  N   UNL d   1     -41.123-121.375 -50.958  0.00  0.00    -0.227 NA
BRANCH  23  24
ATOM     24  C   UNL d   1     -41.123-120.683 -51.403  0.00  0.00     0.083 A 
ATOM     25  C   UNL d   1     -41.123-119.949 -51.024  0.00  0.00     0.018 A 
ATOM     26  C   UNL d   1     -41.123-119.256 -51.470  0.00  0.00     0.002 A 
ATOM     27  C   UNL d   1     -41.123-119.911 -50.198  0.00  0.00     0.002 C 
ATOM     28  C   UNL d   1     -41.123-118.523 -51.092  0.00  0.00     0.000 C 
ATOM     29  C   UNL d   1     -41.124-119.293 -52.299  0.00  0.00     0.000 A 
ATOM     30  C   UNL d   1     -41.124-120.035 -52.671  0.00  0.00     0.002 A 
ATOM     31  C   UNL d   1     -41.124-120.723 -52.225  0.00  0.00     0.019 A 
ENDBRANCH  23  24
ENDBRANCH   7  23
TORSDOF 4
ENDMDL
MODEL 3
REMARK VINA RESULT:      15.3      1.530      4.576
REMARK  4 active torsions:
REMARK  status: ('A' for Active; 'I' for Inactive)
REMARK    1  A    between atoms: S_5  and  C_2 
REMARK    2  A    between atoms: C_16  and  S_5 
REMARK    3  A    between atoms: N_11  and  C_8 
REMARK    4  A    between atoms: C_12  and  N_11 
ROOT
ATOM      1  C   UNL d   1     -42.153-122.714 -51.685  0.00  0.00     0.197 A 
ATOM      2  C   UNL d   1     -42.376-123.190 -51.045  0.00  0.00     0.227 A 
ATOM      3  N   UNL d   1     -42.472-123.047 -52.371  0.00  0.00    -0.192 N 
ATOM      4  N   UNL d   1     -41.705-122.023 -51.734  0.00  0.00    -0.206 NA
ATOM      5  N   UNL d   1     -42.831-123.816 -51.335  0.00  0.00    -0.115 NA
ATOM      6  N   UNL d   1     -42.892-123.730 -52.158  0.00  0.00    -0.058 NA
ATOM      7  C   UNL d   1     -41.572-121.663 -52.469  0.00  0.00     0.166 A 
ATOM      8  C   UNL d   1     -41.893-122.001 -53.150  0.00  0.00     0.054 A 
ATOM      9  C   UNL d   1     -42.343-122.691 -53.109  0.00  0.00     0.089 A 
ATOM     10  C   UNL d   1     -41.763-121.644 -53.889  0.00  0.00     0.005 A 
ATOM     11  C   UNL d   1     -42.661-123.025 -53.792  0.00  0.00     0.019 A 
ATOM     12  C   UNL d   1     -42.082-121.978 -54.571  0.00  0.00     0.000 A 
ATOM     13  C   UNL d   1     -42.531-122.669 -54.522  0.00  0.00     0.002 A 
ENDROOT
BRANCH   2  14
ATOM     14  S   UNL d   1     -42.176-123.060 -50.254  0.00  0.00     0.231 S 
ATOM     15  O   UNL d   1     -41.433-123.396 -50.363  0.00  0.00    -0.215 OA
ATOM     16  O   UNL d   1     -42.921-122.724 -50.149  0.00  0.00    -0.215 OA
BRANCH  14  17
ATOM     17  C   UNL d   1     -42.018-122.913 -49.463  0.00  0.00     0.090 A 
ATOM     18  C   UNL d   1     -42.605-122.585 -48.983  0.00  0.00     0.011 A 
ATOM     19  C   UNL d   1     -42.452-122.436 -48.194  0.00  0.00     0.001 A 
ATOM     20  C   UNL d   1     -41.710-122.613 -47.874  0.00  0.00     0.000 A 
ATOM     21  C   UNL d   1     -41.124-122.941 -48.357  0.00  0.00     0.001 A 
ATOM     22  C   UNL d   1     -41.280-123.088 -49.145  0.00  0.00     0.011 A 
ENDBRANCH  14  17
ENDBRANCH   2  14
BRANCH   7  23
ATOM     23  N   UNL d   1     -41.123-120.972 -52.518  0.00  0.00    -0.227 NA
BRANCH  23  24
ATOM     24  C   UNL d   1     -41.123-120.436 -51.894  0.00  0.00     0.083 A 
ATOM     25  C   UNL d   1     -41.123-119.624 -52.046  0.00  0.00     0.018 A 
ATOM     26  C   UNL d   1     -41.123-119.088 -51.421  0.00  0.00     0.002 A 
ATOM     27  C   UNL d   1     -41.124-119.351 -52.827  0.00  0.00     0.002 C 
ATOM     28  C   UNL d   1     -41.123-118.277 -51.573  0.00  0.00     0.000 C 
ATOM     29  C   UNL d   1     -41.123-119.360 -50.638  0.00  0.00     0.000 A 
ATOM     30  C   UNL d   1     -41.123-120.177 -50.493  0.00  0.00     0.002 A 
ATOM     31  C   UNL d   1     -41.123-120.710 -51.117  0.00  0.00     0.019 A 
ENDBRANCH  23  24
ENDBRANCH   7  23
TORSDOF 4
ENDMDL
