MODEL 1
REMARK VINA RESULT:      31.4      0.000      0.000
REMARK  3 active torsions:
REMARK  status: ('A' for Active; 'I' for Inactive)
REMARK    1  A    between atoms: C_5  and  C_1 
REMARK    2  A    between atoms: C_7  and  C_5 
REMARK    3  A    between atoms: C_10  and  C_7 
ROOT
ATOM      1  C   UNL d   1     -51.655  24.814  33.327  0.00  0.00     0.220 A 
ATOM      2  C   UNL d   1     -51.134  24.208  33.344  0.00  0.00     0.315 A 
ATOM      3  N   UNL d   1     -51.542  23.498  33.364  0.00  0.00    -0.205 NA
ATOM      4  C   UNL d   1     -52.415  24.505  33.336  0.00  0.00     0.059 A 
ATOM      5  C   UNL d   1     -52.344  23.674  33.359  0.00  0.00     0.088 A 
ATOM      6  O   UNL d   1     -50.315  24.320  33.341  0.00  0.00    -0.262 OA
ATOM      7  O   UNL d   1     -52.310  25.301  33.314  0.00  0.00    -0.285 OA
ATOM      8  C   UNL d   1     -53.169  24.839  33.327  0.00  0.00     0.005 A 
ATOM      9  C   UNL d   1     -53.028  23.189  33.373  0.00  0.00     0.019 A 
ATOM     10  C   UNL d   1     -53.847  24.383  33.340  0.00  0.00     0.000 A 
ATOM     11  C   UNL d   1     -53.776  23.552  33.363  0.00  0.00     0.002 A 
ENDROOT
BRANCH   1  12
ATOM     12  C   UNL d   1     -51.364  25.578  33.306  0.00  0.00     0.086 C 
BRANCH  12  13
ATOM     13  C   UNL d   1     -50.926  25.899  33.935  0.00  0.00     0.199 C 
ATOM     14  O   UNL d   1     -50.993  25.562  34.683  0.00  0.00    -0.286 OA
BRANCH  13  15
ATOM     15  C   UNL d   1     -50.436  26.538  33.814  0.00  0.00     0.039 A 
ATOM     16  C   UNL d   1     -49.607  26.486  33.923  0.00  0.00     0.003 A 
ATOM     17  C   UNL d   1     -49.117  27.126  33.803  0.00  0.00     0.000 A 
ATOM     18  C   UNL d   1     -49.457  27.848  33.564  0.00  0.00     0.000 A 
ATOM     19  C   UNL d   1     -50.268  27.915  33.453  0.00  0.00     0.000 A 
ATOM     20  C   UNL d   1     -50.744  27.273  33.576  0.00  0.00     0.003 A 
ENDBRANCH  13  15
ENDBRANCH  12  13
ENDBRANCH   1  12
TORSDOF 3
ENDMDL
