MODEL 1
REMARK VINA RESULT:       7.9      0.000      0.000
REMARK  4 active torsions:
REMARK  status: ('A' for Active; 'I' for Inactive)
REMARK    1  A    between atoms: C_7  and  C_3 
REMARK    2  A    between atoms: S_6  and  C_4 
REMARK    3  A    between atoms: C_9  and  S_6 
REMARK    4  A    between atoms: C_10  and  C_9 
ROOT
ATOM      1  O   UNL d   1      45.912 -15.316  44.418  0.00  0.00    -0.263 OA
ATOM      2  N   UNL d   1      44.694 -14.983  44.902  0.00  0.00    -0.120 NA
ATOM      3  C   UNL d   1      45.401 -14.677  44.564  0.00  0.00     0.205 A 
ATOM      4  C   UNL d   1      45.532 -16.015  44.661  0.00  0.00     0.236 A 
ATOM      5  N   UNL d   1      44.790 -15.803  44.955  0.00  0.00    -0.114 NA
ENDROOT
BRANCH   4   6
ATOM      6  S   UNL d   1      45.840 -16.774  44.616  0.00  0.00    -0.041 SA
BRANCH   6   7
ATOM      7  C   UNL d   1      46.113 -17.081  43.886  0.00  0.00     0.039 C 
BRANCH   7   8
ATOM      8  C   UNL d   1      46.249 -17.871  43.802  0.00  0.00     0.007 A 
ATOM      9  C   UNL d   1      46.221 -18.224  43.055  0.00  0.00     0.001 A 
ATOM     10  C   UNL d   1      46.358 -19.031  42.954  0.00  0.00     0.000 A 
ATOM     11  C   UNL d   1      46.528 -19.497  43.616  0.00  0.00     0.000 A 
ATOM     12  C   UNL d   1      46.557 -19.136  44.377  0.00  0.00     0.000 A 
ATOM     13  C   UNL d   1      46.420 -18.339  44.464  0.00  0.00     0.001 A 
ENDBRANCH   7   8
ENDBRANCH   6   7
ENDBRANCH   4   6
BRANCH   3  14
ATOM     14  C   UNL d   1      45.513 -13.877  44.425  0.00  0.00     0.046 A 
ATOM     15  C   UNL d   1      45.200 -13.536  43.738  0.00  0.00     0.024 A 
ATOM     16  C   UNL d   1      45.310 -12.734  43.594  0.00  0.00     0.099 A 
ATOM     17  N   UNL d   1      45.736 -12.267  44.141  0.00  0.00    -0.242 NA
ATOM     18  C   UNL d   1      46.028 -12.623  44.800  0.00  0.00     0.099 A 
ATOM     19  C   UNL d   1      45.925 -13.426  44.955  0.00  0.00     0.024 A 
ENDBRANCH   3  14
TORSDOF 4
ENDMDL
MODEL 2
REMARK VINA RESULT:       8.3      1.750      4.924
REMARK  4 active torsions:
REMARK  status: ('A' for Active; 'I' for Inactive)
REMARK    1  A    between atoms: C_7  and  C_3 
REMARK    2  A    between atoms: S_6  and  C_4 
REMARK    3  A    between atoms: C_9  and  S_6 
REMARK    4  A    between atoms: C_10  and  C_9 
ROOT
ATOM      1  O   UNL d   1      45.866 -17.544  43.571  0.00  0.00    -0.263 OA
ATOM      2  N   UNL d   1      46.478 -18.334  44.482  0.00  0.00    -0.120 NA
ATOM      3  C   UNL d   1      46.238 -18.279  43.678  0.00  0.00     0.205 A 
ATOM      4  C   UNL d   1      45.871 -17.141  44.299  0.00  0.00     0.236 A 
ATOM      5  N   UNL d   1      46.246 -17.629  44.849  0.00  0.00    -0.114 NA
ENDROOT
BRANCH   4   6
ATOM      6  S   UNL d   1      45.561 -16.395  44.441  0.00  0.00    -0.041 SA
BRANCH   6   7
ATOM      7  C   UNL d   1      46.017 -15.808  44.827  0.00  0.00     0.039 C 
BRANCH   7   8
ATOM      8  C   UNL d   1      45.800 -15.033  44.790  0.00  0.00     0.007 A 
ATOM      9  C   UNL d   1      46.354 -14.452  44.591  0.00  0.00     0.001 A 
ATOM     10  C   UNL d   1      46.145 -13.655  44.550  0.00  0.00     0.000 A 
ATOM     11  C   UNL d   1      45.366 -13.433  44.711  0.00  0.00     0.000 A 
ATOM     12  C   UNL d   1      44.802 -14.026  44.914  0.00  0.00     0.000 A 
ATOM     13  C   UNL d   1      45.019 -14.809  44.951  0.00  0.00     0.001 A 
ENDBRANCH   7   8
ENDBRANCH   6   7
ENDBRANCH   4   6
BRANCH   3  14
ATOM     14  C   UNL d   1      46.373 -18.879  43.136  0.00  0.00     0.046 A 
ATOM     15  C   UNL d   1      46.455 -18.692  42.333  0.00  0.00     0.024 A 
ATOM     16  C   UNL d   1      46.591 -19.290  41.787  0.00  0.00     0.099 A 
ATOM     17  N   UNL d   1      46.647 -20.084  42.043  0.00  0.00    -0.242 NA
ATOM     18  C   UNL d   1      46.564 -20.238  42.827  0.00  0.00     0.099 A 
ATOM     19  C   UNL d   1      46.427 -19.647  43.385  0.00  0.00     0.024 A 
ENDBRANCH   3  14
TORSDOF 4
ENDMDL
