MODEL 1
REMARK VINA RESULT:      -7.3      0.000      0.000
REMARK  3 active torsions:
REMARK  status: ('A' for Active; 'I' for Inactive)
REMARK    1  A    between atoms: C_2  and  N_1 
REMARK    2  A    between atoms: N_8  and  C_3 
REMARK       I    between atoms: C_9  and  N_8 
REMARK    3  A    between atoms: C_10  and  C_9 
ROOT
ATOM      1  N   UNL d   1     -47.751  13.617  22.785  0.00  0.00    -0.189 N 
ATOM      2  C   UNL d   1     -47.056  13.197  22.942  0.00  0.00     0.171 A 
ATOM      3  N   UNL d   1     -47.552  14.397  22.627  0.00  0.00    -0.162 NA
ATOM      4  C   UNL d   1     -46.436  13.737  22.875  0.00  0.00     0.060 A 
ATOM      5  C   UNL d   1     -46.730  14.464  22.685  0.00  0.00     0.105 A 
ATOM      6  C   UNL d   1     -46.283  15.155  22.569  0.00  0.00     0.023 C 
ENDROOT
BRANCH   1   7
ATOM      7  C   UNL d   1     -48.531  13.328  22.781  0.00  0.00     0.197 A 
ATOM      8  N   UNL d   1     -48.965  13.220  23.473  0.00  0.00    -0.221 NA
ATOM      9  C   UNL d   1     -49.715  12.926  23.253  0.00  0.00     0.090 A 
ATOM     10  C   UNL d   1     -50.372  12.715  23.677  0.00  0.00     0.020 A 
ATOM     11  C   UNL d   1     -49.712  12.864  22.429  0.00  0.00     0.050 A 
ATOM     12  C   UNL d   1     -51.049  12.436  23.298  0.00  0.00     0.002 A 
ATOM     13  C   UNL d   1     -51.044  12.376  22.488  0.00  0.00     0.001 A 
ATOM     14  C   UNL d   1     -50.381  12.587  22.047  0.00  0.00     0.008 A 
ATOM     15  S   UNL d   1     -48.982  13.113  22.151  0.00  0.00    -0.047 SA
ENDBRANCH   1   7
BRANCH   2  16
ATOM     16  N   UNL d   1     -46.992  12.393  23.129  0.00  0.00    -0.189 NA
ATOM     17  C   UNL d   1     -46.260  12.082  23.301  0.00  0.00     0.281 C 
ATOM     18  O   UNL d   1     -45.593  12.565  23.288  0.00  0.00    -0.265 OA
BRANCH  17  19
ATOM     19  C   UNL d   1     -46.192  11.279  23.489  0.00  0.00     0.058 A 
ATOM     20  C   UNL d   1     -46.118  10.469  23.678  0.00  0.00     0.005 A 
ATOM     21  C   UNL d   1     -45.446  10.931  23.551  0.00  0.00     0.005 A 
ENDBRANCH  17  19
ENDBRANCH   2  16
TORSDOF 3
ENDMDL
MODEL 2
REMARK VINA RESULT:      -6.2      1.812      3.688
REMARK  3 active torsions:
REMARK  status: ('A' for Active; 'I' for Inactive)
REMARK    1  A    between atoms: C_2  and  N_1 
REMARK    2  A    between atoms: N_8  and  C_3 
REMARK       I    between atoms: C_9  and  N_8 
REMARK    3  A    between atoms: C_10  and  C_9 
ROOT
ATOM      1  N   UNL d   1     -48.591  14.360  22.950  0.00  0.00    -0.189 N 
ATOM      2  C   UNL d   1     -49.246  13.927  23.212  0.00  0.00     0.171 A 
ATOM      3  N   UNL d   1     -48.794  15.155  22.938  0.00  0.00    -0.162 NA
ATOM      4  C   UNL d   1     -49.845  14.475  23.358  0.00  0.00     0.060 A 
ATOM      5  C   UNL d   1     -49.578  15.220  23.195  0.00  0.00     0.105 A 
ATOM      6  C   UNL d   1     -50.015  15.922  23.271  0.00  0.00     0.023 C 
ENDROOT
BRANCH   1   7
ATOM      7  C   UNL d   1     -47.844  14.070  22.728  0.00  0.00     0.197 A 
ATOM      8  N   UNL d   1     -47.194  14.093  23.234  0.00  0.00    -0.221 NA
ATOM      9  C   UNL d   1     -46.548  13.757  22.826  0.00  0.00     0.090 A 
ATOM     10  C   UNL d   1     -45.774  13.626  23.027  0.00  0.00     0.020 A 
ATOM     11  C   UNL d   1     -46.828  13.538  22.080  0.00  0.00     0.050 A 
ATOM     12  C   UNL d   1     -45.253  13.274  22.494  0.00  0.00     0.002 A 
ATOM     13  C   UNL d   1     -45.530  13.060  21.761  0.00  0.00     0.001 A 
ATOM     14  C   UNL d   1     -46.315  13.189  21.547  0.00  0.00     0.008 A 
ATOM     15  S   UNL d   1     -47.623  13.735  22.031  0.00  0.00    -0.047 SA
ENDBRANCH   1   7
BRANCH   2  16
ATOM     16  N   UNL d   1     -49.292  13.107  23.309  0.00  0.00    -0.189 NA
ATOM     17  C   UNL d   1     -50.008  12.770  23.501  0.00  0.00     0.281 C 
ATOM     18  O   UNL d   1     -50.675  13.244  23.596  0.00  0.00    -0.265 OA
BRANCH  17  19
ATOM     19  C   UNL d   1     -50.060  11.950  23.600  0.00  0.00     0.058 A 
ATOM     20  C   UNL d   1     -50.116  11.122  23.698  0.00  0.00     0.005 A 
ATOM     21  C   UNL d   1     -50.779  11.563  23.479  0.00  0.00     0.005 A 
ENDBRANCH  17  19
ENDBRANCH   2  16
TORSDOF 3
ENDMDL
MODEL 3
REMARK VINA RESULT:      -6.0      8.601      9.765
REMARK  3 active torsions:
REMARK  status: ('A' for Active; 'I' for Inactive)
REMARK    1  A    between atoms: C_2  and  N_1 
REMARK    2  A    between atoms: N_8  and  C_3 
REMARK       I    between atoms: C_9  and  N_8 
REMARK    3  A    between atoms: C_10  and  C_9 
ROOT
ATOM      1  N   UNL d   1     -40.331  15.246  18.393  0.00  0.00    -0.189 N 
ATOM      2  C   UNL d   1     -40.021  14.725  17.829  0.00  0.00     0.171 A 
ATOM      3  N   UNL d   1     -40.860  15.748  18.018  0.00  0.00    -0.162 NA
ATOM      4  C   UNL d   1     -40.373  14.923  17.110  0.00  0.00     0.060 A 
ATOM      5  C   UNL d   1     -40.881  15.541  17.217  0.00  0.00     0.105 A 
ATOM      6  C   UNL d   1     -41.341  15.902  16.627  0.00  0.00     0.023 C 
ENDROOT
BRANCH   1   7
ATOM      7  C   UNL d   1     -40.157  15.279  19.205  0.00  0.00     0.197 A 
ATOM      8  N   UNL d   1     -40.495  14.762  19.751  0.00  0.00    -0.221 NA
ATOM      9  C   UNL d   1     -40.192  14.961  20.503  0.00  0.00     0.090 A 
ATOM     10  C   UNL d   1     -40.314  14.659  21.245  0.00  0.00     0.020 A 
ATOM     11  C   UNL d   1     -39.677  15.596  20.390  0.00  0.00     0.050 A 
ATOM     12  C   UNL d   1     -39.927  14.979  21.900  0.00  0.00     0.002 A 
ATOM     13  C   UNL d   1     -39.420  15.604  21.786  0.00  0.00     0.001 A 
ATOM     14  C   UNL d   1     -39.290  15.918  21.036  0.00  0.00     0.008 A 
ATOM     15  S   UNL d   1     -39.663  15.783  19.591  0.00  0.00    -0.047 SA
ENDBRANCH   1   7
BRANCH   2  16
ATOM     16  N   UNL d   1     -39.468  14.123  17.960  0.00  0.00    -0.189 NA
ATOM     17  C   UNL d   1     -39.052  13.823  17.327  0.00  0.00     0.281 C 
ATOM     18  O   UNL d   1     -39.182  14.118  16.570  0.00  0.00    -0.265 OA
BRANCH  17  19
ATOM     19  C   UNL d   1     -38.498  13.222  17.453  0.00  0.00     0.058 A 
ATOM     20  C   UNL d   1     -37.940  12.612  17.576  0.00  0.00     0.005 A 
ATOM     21  C   UNL d   1     -38.477  12.567  16.951  0.00  0.00     0.005 A 
ENDBRANCH  17  19
ENDBRANCH   2  16
TORSDOF 3
ENDMDL
MODEL 4
REMARK VINA RESULT:      -5.2      1.412      3.636
REMARK  3 active torsions:
REMARK  status: ('A' for Active; 'I' for Inactive)
REMARK    1  A    between atoms: C_2  and  N_1 
REMARK    2  A    between atoms: N_8  and  C_3 
REMARK       I    between atoms: C_9  and  N_8 
REMARK    3  A    between atoms: C_10  and  C_9 
ROOT
ATOM      1  N   UNL d   1     -47.650  13.772  22.900  0.00  0.00    -0.189 N 
ATOM      2  C   UNL d   1     -48.466  13.676  23.001  0.00  0.00     0.171 A 
ATOM      3  N   UNL d   1     -47.502  14.558  22.719  0.00  0.00    -0.162 NA
ATOM      4  C   UNL d   1     -48.805  14.418  22.878  0.00  0.00     0.060 A 
ATOM      5  C   UNL d   1     -48.227  14.955  22.706  0.00  0.00     0.105 A 
ATOM      6  C   UNL d   1     -48.344  15.762  22.546  0.00  0.00     0.023 C 
ENDROOT
BRANCH   1   7
ATOM      7  C   UNL d   1     -47.058  13.192  22.965  0.00  0.00     0.197 A 
ATOM      8  N   UNL d   1     -47.141  12.527  23.445  0.00  0.00    -0.221 NA
ATOM      9  C   UNL d   1     -46.443  12.076  23.369  0.00  0.00     0.090 A 
ATOM     10  C   UNL d   1     -46.198  11.377  23.698  0.00  0.00     0.020 A 
ATOM     11  C   UNL d   1     -45.955  12.483  22.842  0.00  0.00     0.050 A 
ATOM     12  C   UNL d   1     -45.460  11.058  23.513  0.00  0.00     0.002 A 
ATOM     13  C   UNL d   1     -44.982  11.460  22.994  0.00  0.00     0.001 A 
ATOM     14  C   UNL d   1     -45.221  12.172  22.654  0.00  0.00     0.008 A 
ATOM     15  S   UNL d   1     -46.341  13.164  22.600  0.00  0.00    -0.047 SA
ENDBRANCH   1   7
BRANCH   2  16
ATOM     16  N   UNL d   1     -48.864  12.976  23.190  0.00  0.00    -0.189 NA
ATOM     17  C   UNL d   1     -49.673  12.943  23.099  0.00  0.00     0.281 C 
ATOM     18  O   UNL d   1     -50.085  13.601  22.823  0.00  0.00    -0.265 OA
BRANCH  17  19
ATOM     19  C   UNL d   1     -50.076  12.245  23.286  0.00  0.00     0.058 A 
ATOM     20  C   UNL d   1     -50.487  11.542  23.475  0.00  0.00     0.005 A 
ATOM     21  C   UNL d   1     -50.900  12.245  23.344  0.00  0.00     0.005 A 
ENDBRANCH  17  19
ENDBRANCH   2  16
TORSDOF 3
ENDMDL
MODEL 5
REMARK VINA RESULT:      -5.0      9.077     10.736
REMARK  3 active torsions:
REMARK  status: ('A' for Active; 'I' for Inactive)
REMARK    1  A    between atoms: C_2  and  N_1 
REMARK    2  A    between atoms: N_8  and  C_3 
REMARK       I    between atoms: C_9  and  N_8 
REMARK    3  A    between atoms: C_10  and  C_9 
ROOT
ATOM      1  N   UNL d   1     -38.815  13.550  18.273  0.00  0.00    -0.189 N 
ATOM      2  C   UNL d   1     -38.500  13.713  17.525  0.00  0.00     0.171 A 
ATOM      3  N   UNL d   1     -38.668  12.764  18.451  0.00  0.00    -0.162 NA
ATOM      4  C   UNL d   1     -38.160  13.010  17.258  0.00  0.00     0.060 A 
ATOM      5  C   UNL d   1     -38.259  12.432  17.813  0.00  0.00     0.105 A 
ATOM      6  C   UNL d   1     -37.995  11.647  17.751  0.00  0.00     0.023 C 
ENDROOT
BRANCH   1   7
ATOM      7  C   UNL d   1     -39.217  14.072  18.780  0.00  0.00     0.197 A 
ATOM      8  N   UNL d   1     -40.038  14.153  18.770  0.00  0.00    -0.221 NA
ATOM      9  C   UNL d   1     -40.239  14.720  19.349  0.00  0.00     0.090 A 
ATOM     10  C   UNL d   1     -40.945  15.031  19.596  0.00  0.00     0.020 A 
ATOM     11  C   UNL d   1     -39.531  14.967  19.695  0.00  0.00     0.050 A 
ATOM     12  C   UNL d   1     -40.972  15.597  20.195  0.00  0.00     0.002 A 
ATOM     13  C   UNL d   1     -40.274  15.838  20.533  0.00  0.00     0.001 A 
ATOM     14  C   UNL d   1     -39.550  15.529  20.290  0.00  0.00     0.008 A 
ATOM     15  S   UNL d   1     -38.912  14.564  19.339  0.00  0.00    -0.047 SA
ENDBRANCH   1   7
BRANCH   2  16
ATOM     16  N   UNL d   1     -38.520  14.436  17.124  0.00  0.00    -0.189 NA
ATOM     17  C   UNL d   1     -38.239  14.475  16.361  0.00  0.00     0.281 C 
ATOM     18  O   UNL d   1     -37.940  13.799  15.997  0.00  0.00    -0.265 OA
BRANCH  17  19
ATOM     19  C   UNL d   1     -38.257  15.195  15.956  0.00  0.00     0.058 A 
ATOM     20  C   UNL d   1     -38.273  15.922  15.543  0.00  0.00     0.005 A 
ATOM     21  C   UNL d   1     -38.010  15.235  15.169  0.00  0.00     0.005 A 
ENDBRANCH  17  19
ENDBRANCH   2  16
TORSDOF 3
ENDMDL
MODEL 6
REMARK VINA RESULT:      -4.9      8.407     10.311
REMARK  3 active torsions:
REMARK  status: ('A' for Active; 'I' for Inactive)
REMARK    1  A    between atoms: C_2  and  N_1 
REMARK    2  A    between atoms: N_8  and  C_3 
REMARK       I    between atoms: C_9  and  N_8 
REMARK    3  A    between atoms: C_10  and  C_9 
ROOT
ATOM      1  N   UNL d   1     -38.550  13.988  19.911  0.00  0.00    -0.189 N 
ATOM      2  C   UNL d   1     -39.095  14.269  20.466  0.00  0.00     0.171 A 
ATOM      3  N   UNL d   1     -38.052  13.453  20.284  0.00  0.00    -0.162 NA
ATOM      4  C   UNL d   1     -38.916  13.894  21.179  0.00  0.00     0.060 A 
ATOM      5  C   UNL d   1     -38.287  13.399  21.075  0.00  0.00     0.105 A 
ATOM      6  C   UNL d   1     -37.940  12.923  21.661  0.00  0.00     0.023 C 
ENDROOT
BRANCH   1   7
ATOM      7  C   UNL d   1     -38.490  14.193  19.107  0.00  0.00     0.197 A 
ATOM      8  N   UNL d   1     -38.817  13.729  18.509  0.00  0.00    -0.221 NA
ATOM      9  C   UNL d   1     -38.648  14.105  17.782  0.00  0.00     0.090 A 
ATOM     10  C   UNL d   1     -38.820  13.922  17.012  0.00  0.00     0.020 A 
ATOM     11  C   UNL d   1     -38.222  14.789  17.964  0.00  0.00     0.050 A 
ATOM     12  C   UNL d   1     -38.573  14.412  16.396  0.00  0.00     0.002 A 
ATOM     13  C   UNL d   1     -38.154  15.083  16.577  0.00  0.00     0.001 A 
ATOM     14  C   UNL d   1     -37.974  15.279  17.357  0.00  0.00     0.008 A 
ATOM     15  S   UNL d   1     -38.131  14.832  18.778  0.00  0.00    -0.047 SA
ENDBRANCH   1   7
BRANCH   2  16
ATOM     16  N   UNL d   1     -39.700  14.818  20.335  0.00  0.00    -0.189 NA
ATOM     17  C   UNL d   1     -40.344  14.825  20.833  0.00  0.00     0.281 C 
ATOM     18  O   UNL d   1     -40.389  14.291  21.458  0.00  0.00    -0.265 OA
BRANCH  17  19
ATOM     19  C   UNL d   1     -40.952  15.372  20.706  0.00  0.00     0.058 A 
ATOM     20  C   UNL d   1     -41.568  15.922  20.579  0.00  0.00     0.005 A 
ATOM     21  C   UNL d   1     -41.715  15.213  20.976  0.00  0.00     0.005 A 
ENDBRANCH  17  19
ENDBRANCH   2  16
TORSDOF 3
ENDMDL
MODEL 7
REMARK VINA RESULT:      -4.7      7.437      9.221
REMARK  3 active torsions:
REMARK  status: ('A' for Active; 'I' for Inactive)
REMARK    1  A    between atoms: C_2  and  N_1 
REMARK    2  A    between atoms: N_8  and  C_3 
REMARK       I    between atoms: C_9  and  N_8 
REMARK    3  A    between atoms: C_10  and  C_9 
ROOT
ATOM      1  N   UNL d   1     -40.800  14.341  19.886  0.00  0.00    -0.189 N 
ATOM      2  C   UNL d   1     -40.422  14.531  20.597  0.00  0.00     0.171 A 
ATOM      3  N   UNL d   1     -41.454  13.876  20.057  0.00  0.00    -0.162 NA
ATOM      4  C   UNL d   1     -40.860  14.172  21.197  0.00  0.00     0.060 A 
ATOM      5  C   UNL d   1     -41.485  13.775  20.877  0.00  0.00     0.105 A 
ATOM      6  C   UNL d   1     -42.056  13.343  21.299  0.00  0.00     0.023 C 
ENDROOT
BRANCH   1   7
ATOM      7  C   UNL d   1     -40.581  14.566  19.116  0.00  0.00     0.197 A 
ATOM      8  N   UNL d   1     -40.875  15.246  18.754  0.00  0.00    -0.221 NA
ATOM      9  C   UNL d   1     -40.534  15.291  17.993  0.00  0.00     0.090 A 
ATOM     10  C   UNL d   1     -40.606  15.822  17.386  0.00  0.00     0.020 A 
ATOM     11  C   UNL d   1     -40.041  14.633  17.916  0.00  0.00     0.050 A 
ATOM     12  C   UNL d   1     -40.189  15.718  16.682  0.00  0.00     0.002 A 
ATOM     13  C   UNL d   1     -39.705  15.070  16.608  0.00  0.00     0.001 A 
ATOM     14  C   UNL d   1     -39.625  14.524  17.220  0.00  0.00     0.008 A 
ATOM     15  S   UNL d   1     -40.077  14.196  18.610  0.00  0.00    -0.047 SA
ENDBRANCH   1   7
BRANCH   2  16
ATOM     16  N   UNL d   1     -39.739  14.989  20.690  0.00  0.00    -0.189 NA
ATOM     17  C   UNL d   1     -39.368  15.006  21.414  0.00  0.00     0.281 C 
ATOM     18  O   UNL d   1     -39.671  14.570  22.044  0.00  0.00    -0.265 OA
BRANCH  17  19
ATOM     19  C   UNL d   1     -38.685  15.462  21.511  0.00  0.00     0.058 A 
ATOM     20  C   UNL d   1     -37.995  15.922  21.614  0.00  0.00     0.005 A 
ATOM     21  C   UNL d   1     -38.228  15.384  22.195  0.00  0.00     0.005 A 
ENDBRANCH  17  19
ENDBRANCH   2  16
TORSDOF 3
ENDMDL
MODEL 8
REMARK VINA RESULT:      -4.5      7.187      8.896
REMARK  3 active torsions:
REMARK  status: ('A' for Active; 'I' for Inactive)
REMARK    1  A    between atoms: C_2  and  N_1 
REMARK    2  A    between atoms: N_8  and  C_3 
REMARK       I    between atoms: C_9  and  N_8 
REMARK    3  A    between atoms: C_10  and  C_9 
ROOT
ATOM      1  N   UNL d   1     -39.939  15.405  19.976  0.00  0.00    -0.189 N 
ATOM      2  C   UNL d   1     -40.379  15.097  20.606  0.00  0.00     0.171 A 
ATOM      3  N   UNL d   1     -39.257  15.746  20.278  0.00  0.00    -0.162 NA
ATOM      4  C   UNL d   1     -39.949  15.258  21.291  0.00  0.00     0.060 A 
ATOM      5  C   UNL d   1     -39.270  15.651  21.100  0.00  0.00     0.105 A 
ATOM      6  C   UNL d   1     -38.690  15.910  21.635  0.00  0.00     0.023 C 
ENDROOT
BRANCH   1   7
ATOM      7  C   UNL d   1     -40.129  15.389  19.166  0.00  0.00     0.197 A 
ATOM      8  N   UNL d   1     -39.808  14.834  18.649  0.00  0.00    -0.221 NA
ATOM      9  C   UNL d   1     -40.123  14.987  17.891  0.00  0.00     0.090 A 
ATOM     10  C   UNL d   1     -40.019  14.637  17.168  0.00  0.00     0.020 A 
ATOM     11  C   UNL d   1     -40.628  15.635  17.973  0.00  0.00     0.050 A 
ATOM     12  C   UNL d   1     -40.415  14.919  16.501  0.00  0.00     0.002 A 
ATOM     13  C   UNL d   1     -40.912  15.556  16.584  0.00  0.00     0.001 A 
ATOM     14  C   UNL d   1     -41.024  15.919  17.315  0.00  0.00     0.008 A 
ATOM     15  S   UNL d   1     -40.624  15.873  18.758  0.00  0.00    -0.047 SA
ENDBRANCH   1   7
BRANCH   2  16
ATOM     16  N   UNL d   1     -41.105  14.704  20.559  0.00  0.00    -0.189 NA
ATOM     17  C   UNL d   1     -41.263  14.097  21.079  0.00  0.00     0.281 C 
ATOM     18  O   UNL d   1     -40.702  13.881  21.643  0.00  0.00    -0.265 OA
BRANCH  17  19
ATOM     19  C   UNL d   1     -41.988  13.702  21.037  0.00  0.00     0.058 A 
ATOM     20  C   UNL d   1     -42.719  13.299  20.996  0.00  0.00     0.005 A 
ATOM     21  C   UNL d   1     -42.091  12.983  21.430  0.00  0.00     0.005 A 
ENDBRANCH  17  19
ENDBRANCH   2  16
TORSDOF 3
ENDMDL
