MODEL 1
REMARK VINA RESULT:      41.5      0.000      0.000
REMARK  6 active torsions:
REMARK  status: ('A' for Active; 'I' for Inactive)
REMARK    1  A    between atoms: N_2  and  S_1 
REMARK    2  A    between atoms: C_6  and  S_1 
REMARK    3  A    between atoms: C_3  and  N_10 
REMARK    4  A    between atoms: C_7  and  C_5 
REMARK       I    between atoms: N_10  and  C_7 
REMARK    5  A    between atoms: C_15  and  C_8 
REMARK    6  A    between atoms: O_27  and  C_24 
ROOT
ATOM      1  C   UNL d   1      44.355 -16.690  37.994  0.00  0.00     0.299 C 
ATOM      2  N   UNL d   1      44.217 -16.965  38.760  0.00  0.00    -0.164 NA
ATOM      3  O   UNL d   1      45.063 -16.879  37.616  0.00  0.00    -0.263 OA
ENDROOT
BRANCH   1   4
ATOM      4  C   UNL d   1      43.795 -16.237  37.612  0.00  0.00     0.133 A 
ATOM      5  N   UNL d   1      43.948 -15.567  37.144  0.00  0.00    -0.226 N 
ATOM      6  C   UNL d   1      43.215 -15.282  36.867  0.00  0.00     0.092 A 
ATOM      7  C   UNL d   1      42.627 -15.770  37.163  0.00  0.00     0.021 A 
ATOM      8  C   UNL d   1      42.980 -16.359  37.622  0.00  0.00     0.025 A 
BRANCH   5   9
ATOM      9  S   UNL d   1      44.690 -15.243  36.982  0.00  0.00     0.277 S 
ATOM     10  O   UNL d   1      44.794 -15.750  36.335  0.00  0.00    -0.199 OA
ATOM     11  O   UNL d   1      44.582 -14.743  37.624  0.00  0.00    -0.199 OA
BRANCH   9  12
ATOM     12  C   UNL d   1      45.423 -14.896  36.853  0.00  0.00     0.133 A 
ATOM     13  S   UNL d   1      46.001 -15.159  36.330  0.00  0.00    -0.074 SA
ATOM     14  C   UNL d   1      46.647 -14.645  36.379  0.00  0.00     0.036 A 
ATOM     15  C   UNL d   1      46.462 -14.063  36.936  0.00  0.00     0.008 A 
ATOM     16  C   UNL d   1      45.707 -14.217  37.228  0.00  0.00     0.020 A 
ENDBRANCH   9  12
ENDBRANCH   5   9
ENDBRANCH   1   4
BRANCH   2  17
ATOM     17  C   UNL d   1      44.783 -17.424  39.148  0.00  0.00     0.297 A 
ATOM     18  O   UNL d   1      44.864 -17.496  39.965  0.00  0.00    -0.253 OA
ATOM     19  C   UNL d   1      45.496 -18.007  40.116  0.00  0.00     0.206 A 
ATOM     20  N   UNL d   1      45.803 -18.250  39.391  0.00  0.00    -0.119 NA
ATOM     21  N   UNL d   1      45.358 -17.887  38.791  0.00  0.00    -0.101 NA
BRANCH  19  22
ATOM     22  C   UNL d   1      45.764 -18.228  40.852  0.00  0.00     0.043 A 
ATOM     23  C   UNL d   1      46.249 -18.890  40.941  0.00  0.00     0.006 A 
ATOM     24  C   UNL d   1      46.518 -19.107  41.697  0.00  0.00     0.024 A 
ATOM     25  C   UNL d   1      46.302 -18.666  42.355  0.00  0.00     0.094 A 
ATOM     26  C   UNL d   1      45.818 -18.006  42.262  0.00  0.00     0.024 A 
ATOM     27  C   UNL d   1      45.549 -17.785  41.521  0.00  0.00     0.006 A 
BRANCH  25  28
ATOM     28  O   UNL d   1      46.567 -18.881  43.102  0.00  0.00    -0.328 OA
ATOM     29  C   UNL d   1      46.444 -19.652  43.381  0.00  0.00     0.181 C 
ENDBRANCH  25  28
ENDBRANCH  19  22
ENDBRANCH   2  17
TORSDOF 6
ENDMDL
