MODEL 1
REMARK VINA RESULT:      21.9      0.000      0.000
REMARK  4 active torsions:
REMARK  status: ('A' for Active; 'I' for Inactive)
REMARK    1  A    between atoms: S_6  and  C_1 
REMARK    2  A    between atoms: C_14  and  N_2 
REMARK    3  A    between atoms: C_7  and  S_6 
REMARK    4  A    between atoms: O_18  and  C_16 
ROOT
ATOM      1  C   UNL d   1      45.729 -16.244  44.836  0.00  0.00     0.114 A 
ATOM      2  N   UNL d   1      46.195 -15.575  44.710  0.00  0.00    -0.239 NA
ATOM      3  C   UNL d   1      45.827 -14.844  44.668  0.00  0.00     0.084 A 
ATOM      4  C   UNL d   1      45.025 -14.778  44.747  0.00  0.00     0.018 A 
ATOM      5  C   UNL d   1      44.559 -15.441  44.872  0.00  0.00     0.004 A 
ATOM      6  C   UNL d   1      46.293 -14.170  44.541  0.00  0.00     0.043 A 
ATOM      7  C   UNL d   1      44.926 -16.178  44.915  0.00  0.00     0.026 A 
ATOM      8  C   UNL d   1      44.658 -14.035  44.703  0.00  0.00     0.004 A 
ATOM      9  C   UNL d   1      45.926 -13.437  44.498  0.00  0.00     0.096 A 
ATOM     10  C   UNL d   1      45.123 -13.371  44.578  0.00  0.00     0.024 A 
ATOM     11  C   UNL d   1      43.747 -15.374  44.952  0.00  0.00     0.000 C 
ENDROOT
BRANCH   1  12
ATOM     12  S   UNL d   1      45.998 -17.049  44.897  0.00  0.00    -0.028 SA
BRANCH  12  13
ATOM     13  C   UNL d   1      46.126 -17.094  44.031  0.00  0.00     0.220 A 
ATOM     14  N   UNL d   1      46.282 -17.788  43.569  0.00  0.00    -0.186 N 
ATOM     15  N   UNL d   1      46.359 -17.543  42.790  0.00  0.00    -0.038 NA
ATOM     16  N   UNL d   1      46.253 -16.698  42.750  0.00  0.00    -0.022 NA
ATOM     17  N   UNL d   1      46.111 -16.439  43.522  0.00  0.00    -0.101 NA
BRANCH  14  18
ATOM     18  C   UNL d   1      46.344 -18.572  43.857  0.00  0.00     0.087 A 
ATOM     19  C   UNL d   1      46.245 -19.207  43.308  0.00  0.00     0.019 A 
ATOM     20  C   UNL d   1      46.304 -20.029  43.577  0.00  0.00     0.002 A 
ATOM     21  C   UNL d   1      46.461 -20.172  44.387  0.00  0.00     0.000 A 
ATOM     22  C   UNL d   1      46.564 -19.527  44.955  0.00  0.00     0.002 A 
ATOM     23  C   UNL d   1      46.497 -18.736  44.647  0.00  0.00     0.019 A 
ENDBRANCH  14  18
ENDBRANCH  12  13
ENDBRANCH   1  12
BRANCH   9  24
ATOM     24  O   UNL d   1      46.391 -12.774  44.373  0.00  0.00    -0.328 OA
ATOM     25  C   UNL d   1      46.331 -12.134  44.868  0.00  0.00     0.181 C 
ENDBRANCH   9  24
TORSDOF 4
ENDMDL
