MODEL 1
REMARK VINA RESULT:      17.7      0.000      0.000
REMARK  2 active torsions:
REMARK  status: ('A' for Active; 'I' for Inactive)
REMARK    1  A    between atoms: C_6  and  C_3 
REMARK    2  A    between atoms: C_9  and  C_6 
ROOT
ATOM      1  C   UNL d   1     -57.829 -98.758 -45.169  0.00  0.00     0.011 C 
ENDROOT
BRANCH   1   2
ATOM      2  C   UNL d   1     -58.520 -98.782 -44.698  0.00  0.00     0.092 A 
ATOM      3  C   UNL d   1     -59.282 -98.821 -44.933  0.00  0.00     0.288 A 
ATOM      4  N   UNL d   1     -59.753 -98.832 -44.288  0.00  0.00    -0.163 NA
ATOM      5  O   UNL d   1     -59.536 -98.846 -45.757  0.00  0.00    -0.265 OA
ATOM      6  C   UNL d   1     -59.234 -98.797 -43.628  0.00  0.00     0.313 A 
ATOM      7  S   UNL d   1     -58.485 -98.767 -43.922  0.00  0.00    -0.021 SA
ATOM      8  O   UNL d   1     -59.478 -98.794 -42.819  0.00  0.00    -0.258 OA
ENDBRANCH   1   2
BRANCH   1   9
ATOM      9  C   UNL d   1     -57.078 -98.969 -44.897  0.00  0.00     0.001 A 
ATOM     10  C   UNL d   1     -56.944 -99.363 -44.185  0.00  0.00     0.001 A 
ATOM     11  C   UNL d   1     -56.197 -99.551 -43.954  0.00  0.00     0.007 A 
ATOM     12  C   UNL d   1     -55.531 -99.349 -44.439  0.00  0.00     0.035 A 
ATOM     13  C   UNL d   1     -55.666 -98.955 -45.151  0.00  0.00     0.007 A 
ATOM     14 BR   UNL d   1     -54.757 -99.535 -44.217  0.00  0.00    -0.049 Br
ATOM     15  C   UNL d   1     -56.449 -98.760 -45.387  0.00  0.00     0.001 A 
ENDBRANCH   1   9
TORSDOF 2
ENDMDL
MODEL 2
REMARK VINA RESULT:      18.1      2.687      3.423
REMARK  2 active torsions:
REMARK  status: ('A' for Active; 'I' for Inactive)
REMARK    1  A    between atoms: C_6  and  C_3 
REMARK    2  A    between atoms: C_9  and  C_6 
ROOT
ATOM      1  C   UNL d   1     -56.508 -98.755 -44.754  0.00  0.00     0.011 C 
ENDROOT
BRANCH   1   2
ATOM      2  C   UNL d   1     -55.946 -99.364 -44.632  0.00  0.00     0.092 A 
ATOM      3  C   UNL d   1     -55.198 -99.413 -44.905  0.00  0.00     0.288 A 
ATOM      4  N   UNL d   1     -54.871-100.095 -44.646  0.00  0.00    -0.163 NA
ATOM      5  O   UNL d   1     -54.820 -98.816 -45.399  0.00  0.00    -0.265 OA
ATOM      6  C   UNL d   1     -55.468-100.473 -44.190  0.00  0.00     0.313 A 
ATOM      7  S   UNL d   1     -56.112 -99.992 -44.205  0.00  0.00    -0.021 SA
ATOM      8  O   UNL d   1     -55.380-101.217 -43.799  0.00  0.00    -0.258 OA
ENDBRANCH   1   2
BRANCH   1   9
ATOM      9  C   UNL d   1     -57.267 -98.756 -44.428  0.00  0.00     0.001 A 
ATOM     10  C   UNL d   1     -57.417 -98.756 -43.617  0.00  0.00     0.001 A 
ATOM     11  C   UNL d   1     -58.171 -98.757 -43.339  0.00  0.00     0.007 A 
ATOM     12  C   UNL d   1     -58.829 -98.758 -43.874  0.00  0.00     0.035 A 
ATOM     13  C   UNL d   1     -58.679 -98.758 -44.685  0.00  0.00     0.007 A 
ATOM     14 BR   UNL d   1     -59.610 -98.759 -43.605  0.00  0.00    -0.049 Br
ATOM     15  C   UNL d   1     -57.888 -98.757 -44.970  0.00  0.00     0.001 A 
ENDBRANCH   1   9
TORSDOF 2
ENDMDL
