MODEL 1
REMARK VINA RESULT:      -7.4      0.000      0.000
REMARK  5 active torsions:
REMARK  status: ('A' for Active; 'I' for Inactive)
REMARK    1  A    between atoms: N_10  and  C_3 
REMARK    2  A    between atoms: N_11  and  C_6 
REMARK    3  A    between atoms: C_12  and  N_10 
REMARK    4  A    between atoms: C_13  and  N_11 
REMARK    5  A    between atoms: C_21  and  C_13 
ROOT
ATOM      1  C   UNL d   1     -46.275  13.708  22.577  0.00  0.00     0.187 A 
ATOM      2  C   UNL d   1     -46.517  12.961  22.647  0.00  0.00     0.094 A 
ATOM      3  C   UNL d   1     -47.237  12.803  22.933  0.00  0.00     0.185 A 
ATOM      4  N   UNL d   1     -46.745  14.297  22.789  0.00  0.00    -0.040 NA
ATOM      5  N   UNL d   1     -47.703  13.399  23.144  0.00  0.00    -0.040 NA
ATOM      6  C   UNL d   1     -47.458  14.145  23.072  0.00  0.00     0.753 A 
ATOM      7  N   UNL d   1     -45.079  13.266  22.076  0.00  0.00    -0.162 NA
ATOM      8  N   UNL d   1     -45.556  13.866  22.291  0.00  0.00    -0.208 N 
ATOM      9  C   UNL d   1     -45.324  12.520  22.148  0.00  0.00     0.127 A 
ATOM     10  C   UNL d   1     -45.312  14.608  22.220  0.00  0.00     0.123 C 
ENDROOT
BRANCH   3  11
ATOM     11  N   UNL d   1     -47.499  12.030  23.011  0.00  0.00    -0.226 NA
BRANCH  11  12
ATOM     12  C   UNL d   1     -48.303  11.860  22.994  0.00  0.00     0.083 A 
ATOM     13  C   UNL d   1     -48.704  11.772  22.271  0.00  0.00     0.021 A 
ATOM     14  C   UNL d   1     -49.511  11.602  22.251  0.00  0.00     0.031 A 
ATOM     15  C   UNL d   1     -49.928  11.518  22.966  0.00  0.00     0.140 A 
ATOM     16  C   UNL d   1     -49.536  11.605  23.683  0.00  0.00     0.031 A 
ATOM     17  F   UNL d   1     -50.732  11.349  22.958  0.00  0.00    -0.204 F 
ATOM     18  C   UNL d   1     -48.722  11.776  23.698  0.00  0.00     0.021 A 
ENDBRANCH  11  12
ENDBRANCH   3  11
BRANCH   6  19
ATOM     19  N   UNL d   1     -47.959  14.767  23.298  0.00  0.00    -0.058 NA
BRANCH  19  20
ATOM     20  C   UNL d   1     -48.583  14.997  22.798  0.00  0.00     0.118 C 
BRANCH  20  21
ATOM     21  C   UNL d   1     -49.366  15.237  22.909  0.00  0.00     0.020 A 
ATOM     22  C   UNL d   1     -49.590  15.646  23.594  0.00  0.00     0.002 A 
ATOM     23  C   UNL d   1     -50.382  15.881  23.692  0.00  0.00     0.000 A 
ATOM     24  C   UNL d   1     -50.940  15.708  23.115  0.00  0.00     0.000 A 
ATOM     25  C   UNL d   1     -50.720  15.303  22.436  0.00  0.00     0.000 A 
ATOM     26  C   UNL d   1     -49.934  15.067  22.334  0.00  0.00     0.002 A 
ENDBRANCH  20  21
ENDBRANCH  19  20
ENDBRANCH   6  19
TORSDOF 5
ENDMDL
MODEL 2
REMARK VINA RESULT:      -5.9      1.737      3.300
REMARK  5 active torsions:
REMARK  status: ('A' for Active; 'I' for Inactive)
REMARK    1  A    between atoms: N_10  and  C_3 
REMARK    2  A    between atoms: N_11  and  C_6 
REMARK    3  A    between atoms: C_12  and  N_10 
REMARK    4  A    between atoms: C_13  and  N_11 
REMARK    5  A    between atoms: C_21  and  C_13 
ROOT
ATOM      1  C   UNL d   1     -47.785  11.945  23.281  0.00  0.00     0.187 A 
ATOM      2  C   UNL d   1     -47.013  12.045  23.406  0.00  0.00     0.094 A 
ATOM      3  C   UNL d   1     -46.687  12.760  23.323  0.00  0.00     0.185 A 
ATOM      4  N   UNL d   1     -48.233  12.553  23.074  0.00  0.00    -0.040 NA
ATOM      5  N   UNL d   1     -47.143  13.366  23.116  0.00  0.00    -0.040 NA
ATOM      6  C   UNL d   1     -47.914  13.263  22.992  0.00  0.00     0.753 A 
ATOM      7  N   UNL d   1     -47.654  10.613  23.573  0.00  0.00    -0.162 NA
ATOM      8  N   UNL d   1     -48.111  11.231  23.363  0.00  0.00    -0.208 N 
ATOM      9  C   UNL d   1     -46.883  10.716  23.697  0.00  0.00     0.127 A 
ATOM     10  C   UNL d   1     -48.879  11.128  23.240  0.00  0.00     0.123 C 
ENDROOT
BRANCH   3  11
ATOM     11  N   UNL d   1     -45.885  12.875  23.450  0.00  0.00    -0.226 NA
BRANCH  11  12
ATOM     12  C   UNL d   1     -45.360  12.875  22.818  0.00  0.00     0.083 A 
ATOM     13  C   UNL d   1     -44.886  12.211  22.658  0.00  0.00     0.021 A 
ATOM     14  C   UNL d   1     -44.358  12.209  22.024  0.00  0.00     0.031 A 
ATOM     15  C   UNL d   1     -44.301  12.882  21.538  0.00  0.00     0.140 A 
ATOM     16  C   UNL d   1     -44.768  13.541  21.692  0.00  0.00     0.031 A 
ATOM     17  F   UNL d   1     -43.779  12.890  20.904  0.00  0.00    -0.204 F 
ATOM     18  C   UNL d   1     -45.298  13.538  22.333  0.00  0.00     0.021 A 
ENDBRANCH  11  12
ENDBRANCH   3  11
BRANCH   6  19
ATOM     19  N   UNL d   1     -48.387  13.910  22.773  0.00  0.00    -0.058 NA
BRANCH  19  20
ATOM     20  C   UNL d   1     -49.059  14.101  23.224  0.00  0.00     0.118 C 
BRANCH  20  21
ATOM     21  C   UNL d   1     -49.660  14.665  23.170  0.00  0.00     0.020 A 
ATOM     22  C   UNL d   1     -50.295  14.558  22.647  0.00  0.00     0.002 A 
ATOM     23  C   UNL d   1     -50.893  15.136  22.604  0.00  0.00     0.000 A 
ATOM     24  C   UNL d   1     -50.856  15.807  23.075  0.00  0.00     0.000 A 
ATOM     25  C   UNL d   1     -50.229  15.914  23.593  0.00  0.00     0.000 A 
ATOM     26  C   UNL d   1     -49.632  15.344  23.640  0.00  0.00     0.002 A 
ENDBRANCH  20  21
ENDBRANCH  19  20
ENDBRANCH   6  19
TORSDOF 5
ENDMDL
MODEL 3
REMARK VINA RESULT:      -5.9      1.194      3.051
REMARK  5 active torsions:
REMARK  status: ('A' for Active; 'I' for Inactive)
REMARK    1  A    between atoms: N_10  and  C_3 
REMARK    2  A    between atoms: N_11  and  C_6 
REMARK    3  A    between atoms: C_12  and  N_10 
REMARK    4  A    between atoms: C_13  and  N_11 
REMARK    5  A    between atoms: C_21  and  C_13 
ROOT
ATOM      1  C   UNL d   1     -46.035  12.862  22.782  0.00  0.00     0.187 A 
ATOM      2  C   UNL d   1     -46.180  13.633  22.717  0.00  0.00     0.094 A 
ATOM      3  C   UNL d   1     -46.874  13.928  22.954  0.00  0.00     0.185 A 
ATOM      4  N   UNL d   1     -46.576  12.381  23.081  0.00  0.00    -0.040 NA
ATOM      5  N   UNL d   1     -47.413  13.440  23.253  0.00  0.00    -0.040 NA
ATOM      6  C   UNL d   1     -47.265  12.669  23.317  0.00  0.00     0.753 A 
ATOM      7  N   UNL d   1     -44.791  13.056  22.241  0.00  0.00    -0.162 NA
ATOM      8  N   UNL d   1     -45.341  12.567  22.546  0.00  0.00    -0.208 N 
ATOM      9  C   UNL d   1     -44.940  13.827  22.178  0.00  0.00     0.127 A 
ATOM     10  C   UNL d   1     -45.194  11.799  22.609  0.00  0.00     0.123 C 
ENDROOT
BRANCH   3  11
ATOM     11  N   UNL d   1     -47.036  14.729  22.890  0.00  0.00    -0.226 NA
BRANCH  11  12
ATOM     12  C   UNL d   1     -47.796  14.987  22.715  0.00  0.00     0.083 A 
ATOM     13  C   UNL d   1     -48.319  15.217  23.319  0.00  0.00     0.021 A 
ATOM     14  C   UNL d   1     -49.083  15.476  23.144  0.00  0.00     0.031 A 
ATOM     15  C   UNL d   1     -49.332  15.506  22.351  0.00  0.00     0.140 A 
ATOM     16  C   UNL d   1     -48.820  15.279  21.750  0.00  0.00     0.031 A 
ATOM     17  F   UNL d   1     -50.091  15.762  22.167  0.00  0.00    -0.204 F 
ATOM     18  C   UNL d   1     -48.050  15.019  21.931  0.00  0.00     0.021 A 
ENDBRANCH  11  12
ENDBRANCH   3  11
BRANCH   6  19
ATOM     19  N   UNL d   1     -47.842  12.163  23.635  0.00  0.00    -0.058 NA
BRANCH  19  20
ATOM     20  C   UNL d   1     -48.384  11.786  23.129  0.00  0.00     0.118 C 
BRANCH  20  21
ATOM     21  C   UNL d   1     -49.204  11.802  23.033  0.00  0.00     0.020 A 
ATOM     22  C   UNL d   1     -49.542  11.827  22.276  0.00  0.00     0.002 A 
ATOM     23  C   UNL d   1     -50.370  11.843  22.196  0.00  0.00     0.000 A 
ATOM     24  C   UNL d   1     -50.851  11.834  22.861  0.00  0.00     0.000 A 
ATOM     25  C   UNL d   1     -50.519  11.809  23.611  0.00  0.00     0.000 A 
ATOM     26  C   UNL d   1     -49.697  11.794  23.697  0.00  0.00     0.002 A 
ENDBRANCH  20  21
ENDBRANCH  19  20
ENDBRANCH   6  19
TORSDOF 5
ENDMDL
MODEL 4
REMARK VINA RESULT:      -5.1      1.646      4.475
REMARK  5 active torsions:
REMARK  status: ('A' for Active; 'I' for Inactive)
REMARK    1  A    between atoms: N_10  and  C_3 
REMARK    2  A    between atoms: N_11  and  C_6 
REMARK    3  A    between atoms: C_12  and  N_10 
REMARK    4  A    between atoms: C_13  and  N_11 
REMARK    5  A    between atoms: C_21  and  C_13 
ROOT
ATOM      1  C   UNL d   1     -47.573  11.814  23.449  0.00  0.00     0.187 A 
ATOM      2  C   UNL d   1     -48.087  12.404  23.541  0.00  0.00     0.094 A 
ATOM      3  C   UNL d   1     -47.839  13.154  23.510  0.00  0.00     0.185 A 
ATOM      4  N   UNL d   1     -46.815  11.965  23.326  0.00  0.00    -0.040 NA
ATOM      5  N   UNL d   1     -47.076  13.299  23.386  0.00  0.00    -0.040 NA
ATOM      6  C   UNL d   1     -46.565  12.706  23.294  0.00  0.00     0.753 A 
ATOM      7  N   UNL d   1     -48.592  10.911  23.606  0.00  0.00    -0.162 NA
ATOM      8  N   UNL d   1     -47.820  11.064  23.481  0.00  0.00    -0.208 N 
ATOM      9  C   UNL d   1     -49.103  11.504  23.698  0.00  0.00     0.127 A 
ATOM     10  C   UNL d   1     -47.312  10.474  23.389  0.00  0.00     0.123 C 
ENDROOT
BRANCH   3  11
ATOM     11  N   UNL d   1     -48.365  13.776  23.604  0.00  0.00    -0.226 NA
BRANCH  11  12
ATOM     12  C   UNL d   1     -48.496  14.305  22.990  0.00  0.00     0.083 A 
ATOM     13  C   UNL d   1     -49.035  14.127  22.382  0.00  0.00     0.021 A 
ATOM     14  C   UNL d   1     -49.169  14.657  21.764  0.00  0.00     0.031 A 
ATOM     15  C   UNL d   1     -48.757  15.380  21.750  0.00  0.00     0.140 A 
ATOM     16  C   UNL d   1     -48.224  15.561  22.349  0.00  0.00     0.031 A 
ATOM     17  F   UNL d   1     -48.883  15.915  21.139  0.00  0.00    -0.204 F 
ATOM     18  C   UNL d   1     -48.093  15.023  22.970  0.00  0.00     0.021 A 
ENDBRANCH  11  12
ENDBRANCH   3  11
BRANCH   6  19
ATOM     19  N   UNL d   1     -45.762  12.871  23.163  0.00  0.00    -0.058 NA
BRANCH  19  20
ATOM     20  C   UNL d   1     -45.430  12.736  22.413  0.00  0.00     0.118 C 
BRANCH  20  21
ATOM     21  C   UNL d   1     -44.663  12.718  22.106  0.00  0.00     0.020 A 
ATOM     22  C   UNL d   1     -44.122  12.140  22.352  0.00  0.00     0.002 A 
ATOM     23  C   UNL d   1     -43.353  12.135  22.034  0.00  0.00     0.000 A 
ATOM     24  C   UNL d   1     -43.130  12.698  21.480  0.00  0.00     0.000 A 
ATOM     25  C   UNL d   1     -43.664  13.271  21.235  0.00  0.00     0.000 A 
ATOM     26  C   UNL d   1     -44.429  13.281  21.548  0.00  0.00     0.002 A 
ENDBRANCH  20  21
ENDBRANCH  19  20
ENDBRANCH   6  19
TORSDOF 5
ENDMDL
