MODEL 1
REMARK VINA RESULT:      48.2      0.000      0.000
REMARK  3 active torsions:
REMARK  status: ('A' for Active; 'I' for Inactive)
REMARK       I    between atoms: N_3  and  C_8 
REMARK    1  A    between atoms: S_12  and  C_6 
REMARK    2  A    between atoms: C_8  and  C_14 
REMARK    3  A    between atoms: C_14  and  S_12 
ROOT
ATOM      1  S   UNL d   1      13.961  13.272  -1.236  0.00  0.00    -0.060 SA
ENDROOT
BRANCH   1   2
ATOM      2  C   UNL d   1      14.621  13.556  -0.836  0.00  0.00     0.137 A 
ATOM      3  C   UNL d   1      14.798  14.354  -0.843  0.00  0.00     0.141 A 
ATOM      4  O   UNL d   1      14.428  14.999  -1.196  0.00  0.00    -0.303 OA
ATOM      5  C   UNL d   1      15.460  14.626  -0.439  0.00  0.00     0.110 A 
ATOM      6  C   UNL d   1      14.865  15.667  -1.007  0.00  0.00     0.102 A 
ATOM      7  C   UNL d   1      14.767  16.469  -1.201  0.00  0.00     0.025 A 
ATOM      8  C   UNL d   1      15.499  15.438  -0.542  0.00  0.00     0.043 A 
ATOM      9  C   UNL d   1      15.302  17.027  -0.928  0.00  0.00     0.002 A 
ATOM     10  C   UNL d   1      15.936  16.797  -0.463  0.00  0.00     0.000 A 
ATOM     11  C   UNL d   1      16.038  16.003  -0.268  0.00  0.00     0.004 A 
ATOM     12  N   UNL d   1      15.943  14.103  -0.030  0.00  0.00    -0.222 NA
ATOM     13  C   UNL d   1      15.765  13.306  -0.024  0.00  0.00     0.200 A 
ATOM     14  N   UNL d   1      15.105  13.021  -0.424  0.00  0.00    -0.215 NA
ENDBRANCH   1   2
BRANCH   1  15
ATOM     15  C   UNL d   1      13.964  13.218  -2.048  0.00  0.00     0.098 C 
BRANCH  15  16
ATOM     16  C   UNL d   1      13.784  12.501  -2.427  0.00  0.00     0.271 C 
ATOM     17  N   UNL d   1      13.481  12.500  -3.198  0.00  0.00    -0.273 N 
ATOM     18  C   UNL d   1      13.358  13.207  -3.592  0.00  0.00     0.067 A 
ATOM     19  C   UNL d   1      13.301  11.779  -3.576  0.00  0.00     0.083 A 
ATOM     20  C   UNL d   1      13.057  13.210  -4.361  0.00  0.00     0.016 A 
ATOM     21  C   UNL d   1      13.537  13.921  -3.217  0.00  0.00     0.018 A 
ATOM     22  C   UNL d   1      12.929  13.924  -4.767  0.00  0.00     0.001 A 
ATOM     23  C   UNL d   1      12.878  12.496  -4.736  0.00  0.00     0.003 A 
ATOM     24  C   UNL d   1      13.112  14.636  -4.382  0.00  0.00     0.000 A 
ATOM     25  C   UNL d   1      13.413  14.637  -3.615  0.00  0.00     0.002 A 
ATOM     26  C   UNL d   1      13.000  11.787  -4.346  0.00  0.00     0.019 A 
ATOM     27  O   UNL d   1      13.908  11.786  -2.029  0.00  0.00    -0.266 OA
ENDBRANCH  15  16
ENDBRANCH   1  15
TORSDOF 3
ENDMDL
