MODEL 1
REMARK VINA RESULT:      42.7      0.000      0.000
REMARK  2 active torsions:
REMARK  status: ('A' for Active; 'I' for Inactive)
REMARK    1  A    between atoms: N_2  and  S_1 
REMARK    2  A    between atoms: C_4  and  S_1 
ROOT
ATOM      1  N   UNL d   1      13.690  13.925  -3.395  0.00  0.00    -0.231 N 
ATOM      2  C   UNL d   1      13.444  13.217  -3.754  0.00  0.00     0.075 A 
ATOM      3  C   UNL d   1      13.004  13.221  -4.457  0.00  0.00     0.017 A 
ATOM      4  C   UNL d   1      13.485  14.652  -3.758  0.00  0.00     0.092 A 
ATOM      5  C   UNL d   1      13.649  12.489  -3.391  0.00  0.00     0.018 A 
ATOM      6  C   UNL d   1      13.045  14.656  -4.462  0.00  0.00     0.020 A 
ATOM      7  C   UNL d   1      12.809  13.934  -4.804  0.00  0.00     0.003 A 
ATOM      8  C   UNL d   1      12.769  12.503  -4.800  0.00  0.00     0.002 A 
ATOM      9  C   UNL d   1      13.409  11.781  -3.741  0.00  0.00     0.002 A 
ATOM     10  C   UNL d   1      12.969  11.785  -4.446  0.00  0.00     0.000 A 
ENDROOT
BRANCH   1  11
ATOM     11  S   UNL d   1      14.130  13.911  -2.691  0.00  0.00     0.271 S 
ATOM     12  O   UNL d   1      14.215  13.142  -2.715  0.00  0.00    -0.200 OA
ATOM     13  O   UNL d   1      14.064  14.737  -2.623  0.00  0.00    -0.200 OA
BRANCH  11  14
ATOM     14  C   UNL d   1      14.540  13.895  -2.035  0.00  0.00     0.104 A 
ATOM     15  C   UNL d   1      14.856  14.547  -1.758  0.00  0.00     0.015 A 
ATOM     16  C   UNL d   1      15.266  14.526  -1.102  0.00  0.00     0.022 A 
ATOM     17  C   UNL d   1      15.361  13.857  -0.721  0.00  0.00     0.103 A 
ATOM     18  C   UNL d   1      15.040  13.205  -1.006  0.00  0.00     0.022 A 
ATOM     19  N   UNL d   1      15.785  13.830  -0.041  0.00  0.00    -0.148 N 
ATOM     20  C   UNL d   1      14.634  13.222  -1.655  0.00  0.00     0.015 A 
ENDBRANCH  11  14
ENDBRANCH   1  11
TORSDOF 2
ENDMDL
