MODEL 1
REMARK VINA RESULT:     106.3      0.000      0.000
REMARK  4 active torsions:
REMARK  status: ('A' for Active; 'I' for Inactive)
REMARK    1  A    between atoms: N_9  and  C_3 
REMARK    2  A    between atoms: C_12  and  C_5 
REMARK    3  A    between atoms: C_15  and  N_11 
REMARK    4  A    between atoms: C_19  and  C_15 
ROOT
ATOM      1  N   UNL d   1     -56.403-100.336 -43.661  0.00  0.00    -0.196 N 
ATOM      2  C   UNL d   1     -56.628 -99.805 -44.250  0.00  0.00     0.167 A 
ATOM      3  C   UNL d   1     -55.617-100.374 -43.420  0.00  0.00     0.152 A 
ATOM      4  N   UNL d   1     -57.070-100.745 -43.423  0.00  0.00    -0.163 NA
ATOM      5  C   UNL d   1     -57.435 -99.887 -44.376  0.00  0.00     0.055 A 
ATOM      6  C   UNL d   1     -57.710-100.467 -43.867  0.00  0.00     0.104 A 
ATOM      7  N   UNL d   1     -56.068 -99.314 -44.599  0.00  0.00    -0.227 NA
ATOM      8  C   UNL d   1     -55.049 -99.880 -43.768  0.00  0.00     0.057 A 
ATOM      9  C   UNL d   1     -55.275 -99.350 -44.358  0.00  0.00     0.086 A 
ATOM     10  C   UNL d   1     -58.491-100.726 -43.807  0.00  0.00     0.023 C 
ATOM     11  C   UNL d   1     -54.714 -98.849 -44.715  0.00  0.00     0.021 C 
ENDROOT
BRANCH   3  12
ATOM     12  N   UNL d   1     -55.391-100.905 -42.830  0.00  0.00    -0.286 N 
ATOM     13  C   UNL d   1     -55.204-101.676 -43.019  0.00  0.00     0.101 A 
ATOM     14  C   UNL d   1     -54.978-102.207 -42.423  0.00  0.00     0.100 A 
ATOM     15  N   UNL d   1     -54.942-101.964 -41.660  0.00  0.00    -0.300 N 
ATOM     16  C   UNL d   1     -55.132-101.181 -41.465  0.00  0.00     0.100 A 
ATOM     17  C   UNL d   1     -55.354-100.659 -42.046  0.00  0.00     0.101 A 
BRANCH  15  18
ATOM     18  C   UNL d   1     -54.712-102.514 -41.078  0.00  0.00     0.080 C 
BRANCH  18  19
ATOM     19  C   UNL d   1     -54.724-102.295 -40.282  0.00  0.00     0.018 A 
ATOM     20  C   UNL d   1     -54.712-101.495 -40.072  0.00  0.00     0.002 A 
ATOM     21  C   UNL d   1     -54.724-101.288 -39.269  0.00  0.00     0.000 A 
ATOM     22  C   UNL d   1     -54.748-101.869 -38.702  0.00  0.00     0.000 A 
ATOM     23  C   UNL d   1     -54.760-102.651 -38.913  0.00  0.00     0.000 A 
ATOM     24  C   UNL d   1     -54.748-102.870 -39.709  0.00  0.00     0.002 A 
ENDBRANCH  18  19
ENDBRANCH  15  18
ENDBRANCH   3  12
BRANCH   5  25
ATOM     25  C   UNL d   1     -57.961 -99.509 -44.890  0.00  0.00     0.004 A 
ATOM     26  C   UNL d   1     -57.683 -99.158 -45.583  0.00  0.00     0.000 A 
ATOM     27  C   UNL d   1     -58.206 -98.782 -46.094  0.00  0.00     0.000 A 
ATOM     28  C   UNL d   1     -59.017 -98.756 -45.914  0.00  0.00     0.000 A 
ATOM     29  C   UNL d   1     -59.294 -99.107 -45.221  0.00  0.00     0.000 A 
ATOM     30  C   UNL d   1     -58.769 -99.485 -44.707  0.00  0.00     0.000 A 
ENDBRANCH   5  25
TORSDOF 4
ENDMDL
