MODEL 1
REMARK VINA RESULT:      -4.3      0.000      0.000
REMARK  5 active torsions:
REMARK  status: ('A' for Active; 'I' for Inactive)
REMARK    1  A    between atoms: C_3  and  C_1 
REMARK    2  A    between atoms: C_7  and  C_2 
REMARK       I    between atoms: N_5  and  C_3 
REMARK    3  A    between atoms: C_6  and  N_5 
REMARK    4  A    between atoms: N_10  and  C_6 
REMARK    5  A    between atoms: C_11  and  N_10 
ROOT
ATOM      1  C   UNL d   1      59.709  -0.603  29.440  0.00  0.00     0.103 A 
ATOM      2  C   UNL d   1      59.978  -1.345  29.193  0.00  0.00     0.116 A 
ATOM      3  N   UNL d   1      60.790  -1.288  29.079  0.00  0.00    -0.126 NA
ATOM      4  O   UNL d   1      61.025  -0.516  29.255  0.00  0.00    -0.211 OA
ATOM      5  C   UNL d   1      60.358  -0.107  29.473  0.00  0.00     0.131 A 
ATOM      6  C   UNL d   1      60.339   0.682  29.694  0.00  0.00     0.029 C 
ENDROOT
BRANCH   1   7
ATOM      7  C   UNL d   1      58.931  -0.422  29.613  0.00  0.00     0.285 C 
ATOM      8  N   UNL d   1      58.688  -0.248  30.373  0.00  0.00    -0.179 NA
ATOM      9  O   UNL d   1      58.374  -0.415  29.002  0.00  0.00    -0.265 OA
BRANCH   8  10
ATOM     10  C   UNL d   1      57.911  -0.067  30.546  0.00  0.00     0.224 C 
ATOM     11  S   UNL d   1      57.619   0.682  30.352  0.00  0.00    -0.037 SA
BRANCH  10  12
ATOM     12  N   UNL d   1      57.415  -0.613  30.909  0.00  0.00    -0.215 NA
BRANCH  12  13
ATOM     13  C   UNL d   1      57.107  -0.449  31.635  0.00  0.00     0.111 A 
ATOM     14  C   UNL d   1      56.617  -0.997  32.009  0.00  0.00     0.158 A 
ATOM     15  F   UNL d   1      56.444  -1.714  31.639  0.00  0.00    -0.203 F 
ATOM     16  C   UNL d   1      56.300  -0.829  32.754  0.00  0.00     0.031 A 
ATOM     17  C   UNL d   1      56.472  -0.116  33.124  0.00  0.00     0.002 A 
ATOM     18  C   UNL d   1      56.963   0.436  32.750  0.00  0.00     0.002 A 
ATOM     19  C   UNL d   1      57.280   0.268  32.005  0.00  0.00     0.021 A 
ENDBRANCH  12  13
ENDBRANCH  10  12
ENDBRANCH   8  10
ENDBRANCH   1   7
BRANCH   2  20
ATOM     20  C   UNL d   1      59.518  -2.016  29.080  0.00  0.00     0.031 A 
ATOM     21  C   UNL d   1      59.709  -2.714  29.466  0.00  0.00     0.059 A 
ATOM     22 CL   UNL d   1      60.360  -2.740  29.965  0.00  0.00    -0.082 Cl
ATOM     23  C   UNL d   1      59.249  -3.378  29.352  0.00  0.00     0.011 A 
ATOM     24  C   UNL d   1      58.591  -3.354  28.849  0.00  0.00     0.001 A 
ATOM     25  C   UNL d   1      58.406  -2.651  28.466  0.00  0.00     0.000 A 
ATOM     26  C   UNL d   1      58.865  -1.972  28.575  0.00  0.00     0.002 A 
ENDBRANCH   2  20
TORSDOF 5
ENDMDL
MODEL 2
REMARK VINA RESULT:      -1.6      1.316      2.235
REMARK  5 active torsions:
REMARK  status: ('A' for Active; 'I' for Inactive)
REMARK    1  A    between atoms: C_3  and  C_1 
REMARK    2  A    between atoms: C_7  and  C_2 
REMARK       I    between atoms: N_5  and  C_3 
REMARK    3  A    between atoms: C_6  and  N_5 
REMARK    4  A    between atoms: N_10  and  C_6 
REMARK    5  A    between atoms: C_11  and  N_10 
ROOT
ATOM      1  C   UNL d   1      58.760  -1.242  29.582  0.00  0.00     0.103 A 
ATOM      2  C   UNL d   1      59.533  -1.261  29.293  0.00  0.00     0.116 A 
ATOM      3  N   UNL d   1      59.715  -2.045  29.124  0.00  0.00    -0.126 NA
ATOM      4  O   UNL d   1      59.059  -2.510  29.307  0.00  0.00    -0.211 OA
ATOM      5  C   UNL d   1      58.481  -2.011  29.585  0.00  0.00     0.131 A 
ATOM      6  C   UNL d   1      57.735  -2.243  29.831  0.00  0.00     0.029 C 
ENDROOT
BRANCH   1   7
ATOM      7  C   UNL d   1      58.365  -0.566  29.817  0.00  0.00     0.285 C 
ATOM      8  N   UNL d   1      58.161  -0.435  30.597  0.00  0.00    -0.179 NA
ATOM      9  O   UNL d   1      58.166   0.000  29.248  0.00  0.00    -0.265 OA
BRANCH   8  10
ATOM     10  C   UNL d   1      57.766   0.241  30.831  0.00  0.00     0.224 C 
ATOM     11  S   UNL d   1      57.148   0.528  30.363  0.00  0.00    -0.037 SA
BRANCH  10  12
ATOM     12  N   UNL d   1      57.971   0.639  31.519  0.00  0.00    -0.215 NA
BRANCH  12  13
ATOM     13  C   UNL d   1      57.526   0.539  32.184  0.00  0.00     0.111 A 
ATOM     14  C   UNL d   1      57.884   0.556  32.927  0.00  0.00     0.158 A 
ATOM     15  F   UNL d   1      58.698   0.676  32.989  0.00  0.00    -0.203 F 
ATOM     16  C   UNL d   1      57.427   0.454  33.609  0.00  0.00     0.031 A 
ATOM     17  C   UNL d   1      56.617   0.334  33.549  0.00  0.00     0.002 A 
ATOM     18  C   UNL d   1      56.256   0.316  32.804  0.00  0.00     0.002 A 
ATOM     19  C   UNL d   1      56.712   0.419  32.122  0.00  0.00     0.021 A 
ENDBRANCH  12  13
ENDBRANCH  10  12
ENDBRANCH   8  10
ENDBRANCH   1   7
BRANCH   2  20
ATOM     20  C   UNL d   1      60.031  -0.615  29.193  0.00  0.00     0.031 A 
ATOM     21  C   UNL d   1      60.640  -0.479  29.726  0.00  0.00     0.059 A 
ATOM     22 CL   UNL d   1      60.751  -0.990  30.358  0.00  0.00    -0.082 Cl
ATOM     23  C   UNL d   1      61.132   0.164  29.622  0.00  0.00     0.011 A 
ATOM     24  C   UNL d   1      61.021   0.681  28.984  0.00  0.00     0.001 A 
ATOM     25  C   UNL d   1      60.408   0.537  28.455  0.00  0.00     0.000 A 
ATOM     26  C   UNL d   1      59.904  -0.111  28.551  0.00  0.00     0.002 A 
ENDBRANCH   2  20
TORSDOF 5
ENDMDL
