MODEL 1
REMARK VINA RESULT:      22.3      0.000      0.000
REMARK  1 active torsions:
REMARK  status: ('A' for Active; 'I' for Inactive)
REMARK    1  A    between atoms: C_7  and  C_4 
ROOT
ATOM      1  N   UNL d   1     -50.698  25.408  33.331  0.00  0.00    -0.211 NA
ATOM      2  C   UNL d   1     -50.307  26.145  33.322  0.00  0.00     0.140 A 
ATOM      3  C   UNL d   1     -50.750  26.841  33.320  0.00  0.00     0.051 A 
ATOM      4  C   UNL d   1     -51.530  25.385  33.338  0.00  0.00     0.183 A 
ATOM      5  C   UNL d   1     -51.579  26.814  33.326  0.00  0.00     0.104 A 
ATOM      6  O   UNL d   1     -51.964  26.085  33.335  0.00  0.00    -0.289 OA
ATOM      7  S   UNL d   1     -49.483  26.178  33.316  0.00  0.00    -0.057 SA
ATOM      8  C   UNL d   1     -50.364  27.582  33.310  0.00  0.00     0.004 A 
ATOM      9  C   UNL d   1     -52.013  27.504  33.323  0.00  0.00     0.025 A 
ATOM     10  C   UNL d   1     -50.810  28.277  33.308  0.00  0.00     0.000 A 
ATOM     11  C   UNL d   1     -51.631  28.237  33.314  0.00  0.00     0.002 A 
ENDROOT
BRANCH   4  12
ATOM     12  C   UNL d   1     -51.911  24.657  33.347  0.00  0.00     0.041 A 
ATOM     13  C   UNL d   1     -52.729  24.616  33.321  0.00  0.00     0.004 A 
ATOM     14  C   UNL d   1     -53.101  23.883  33.331  0.00  0.00     0.000 A 
ATOM     15  C   UNL d   1     -53.926  23.843  33.306  0.00  0.00     0.000 C 
ATOM     16  C   UNL d   1     -52.658  23.188  33.365  0.00  0.00     0.000 A 
ATOM     17  C   UNL d   1     -51.833  23.234  33.391  0.00  0.00     0.000 A 
ATOM     18  C   UNL d   1     -51.457  23.969  33.381  0.00  0.00     0.004 A 
ENDBRANCH   4  12
TORSDOF 1
ENDMDL
