MODEL 1
REMARK VINA RESULT:      14.9      0.000      0.000
REMARK  1 active torsions:
REMARK  status: ('A' for Active; 'I' for Inactive)
REMARK    1  A    between atoms: C_7  and  C_2 
ROOT
ATOM      1  N   UNL d   1      46.257 -18.206  42.474  0.00  0.00    -0.147 NA
ATOM      2  C   UNL d   1      46.218 -18.219  43.295  0.00  0.00     0.103 A 
ATOM      3  N   UNL d   1      46.398 -18.900  42.067  0.00  0.00    -0.137 NA
ATOM      4  C   UNL d   1      46.319 -18.923  43.717  0.00  0.00     0.022 A 
ATOM      5  C   UNL d   1      46.500 -19.606  42.481  0.00  0.00     0.157 A 
ATOM      6  C   UNL d   1      46.460 -19.617  43.310  0.00  0.00     0.031 A 
ATOM      7  S   UNL d   1      46.647 -20.328  42.058  0.00  0.00    -0.056 SA
ATOM      8  C   UNL d   1      46.281 -18.938  44.542  0.00  0.00     0.002 A 
ATOM      9  C   UNL d   1      46.563 -20.325  43.728  0.00  0.00     0.002 A 
ATOM     10  C   UNL d   1      46.381 -19.636  44.955  0.00  0.00     0.000 A 
ATOM     11  C   UNL d   1      46.523 -20.330  44.548  0.00  0.00     0.000 A 
ENDROOT
BRANCH   2  12
ATOM     12  C   UNL d   1      46.071 -17.497  43.718  0.00  0.00     0.019 A 
ATOM     13  C   UNL d   1      45.884 -16.806  43.299  0.00  0.00     0.002 A 
ATOM     14  C   UNL d   1      45.742 -16.108  43.708  0.00  0.00     0.000 A 
ATOM     15  C   UNL d   1      45.787 -16.101  44.537  0.00  0.00     0.000 A 
ATOM     16  C   UNL d   1      45.973 -16.789  44.951  0.00  0.00     0.000 A 
ATOM     17  C   UNL d   1      45.642 -15.389  44.955  0.00  0.00     0.000 C 
ATOM     18  C   UNL d   1      46.115 -17.488  44.541  0.00  0.00     0.002 A 
ENDBRANCH   2  12
TORSDOF 1
ENDMDL
MODEL 2
REMARK VINA RESULT:      15.8      1.501      3.235
REMARK  1 active torsions:
REMARK  status: ('A' for Active; 'I' for Inactive)
REMARK    1  A    between atoms: C_7  and  C_2 
ROOT
ATOM      1  N   UNL d   1      46.171 -17.674  42.799  0.00  0.00    -0.147 NA
ATOM      2  C   UNL d   1      46.328 -18.480  42.811  0.00  0.00     0.103 A 
ATOM      3  N   UNL d   1      46.093 -17.268  43.504  0.00  0.00    -0.137 NA
ATOM      4  C   UNL d   1      46.409 -18.890  43.525  0.00  0.00     0.022 A 
ATOM      5  C   UNL d   1      46.173 -17.669  44.220  0.00  0.00     0.157 A 
ATOM      6  C   UNL d   1      46.332 -18.484  44.230  0.00  0.00     0.031 A 
ATOM      7  S   UNL d   1      46.093 -17.248  44.953  0.00  0.00    -0.056 SA
ATOM      8  C   UNL d   1      46.567 -19.700  43.540  0.00  0.00     0.002 A 
ATOM      9  C   UNL d   1      46.412 -18.889  44.949  0.00  0.00     0.002 A 
ATOM     10  C   UNL d   1      46.646 -20.100  44.248  0.00  0.00     0.000 A 
ATOM     11  C   UNL d   1      46.569 -19.695  44.953  0.00  0.00     0.000 A 
ENDROOT
BRANCH   2  12
ATOM     12  C   UNL d   1      46.408 -18.902  42.079  0.00  0.00     0.019 A 
ATOM     13  C   UNL d   1      46.331 -19.728  42.070  0.00  0.00     0.002 A 
ATOM     14  C   UNL d   1      46.409 -20.136  41.360  0.00  0.00     0.000 A 
ATOM     15  C   UNL d   1      46.563 -19.718  40.660  0.00  0.00     0.000 A 
ATOM     16  C   UNL d   1      46.639 -18.897  40.672  0.00  0.00     0.000 A 
ATOM     17  C   UNL d   1      46.642 -20.134  39.937  0.00  0.00     0.000 C 
ATOM     18  C   UNL d   1      46.561 -18.489  41.382  0.00  0.00     0.002 A 
ENDBRANCH   2  12
TORSDOF 1
ENDMDL
