MODEL 1
REMARK VINA RESULT:      50.1      0.000      0.000
REMARK  2 active torsions:
REMARK  status: ('A' for Active; 'I' for Inactive)
REMARK    1  A    between atoms: C_12  and  C_4 
REMARK    2  A    between atoms: C_10  and  C_5 
ROOT
ATOM      1  N   UNL d   1     -51.308  25.533  33.413  0.00  0.00    -0.208 N 
ATOM      2  N   UNL d   1     -51.692  24.800  33.451  0.00  0.00    -0.163 NA
ATOM      3  C   UNL d   1     -51.887  26.123  33.415  0.00  0.00     0.088 A 
ATOM      4  C   UNL d   1     -50.514  25.730  33.376  0.00  0.00     0.183 A 
ATOM      5  C   UNL d   1     -52.503  24.935  33.477  0.00  0.00     0.109 A 
ATOM      6  O   UNL d   1     -50.293  26.522  33.342  0.00  0.00    -0.289 OA
ATOM      7  C   UNL d   1     -52.627  25.751  33.455  0.00  0.00     0.041 A 
ATOM      8  C   UNL d   1     -51.667  26.908  33.381  0.00  0.00     0.041 A 
ATOM      9  C   UNL d   1     -50.866  27.114  33.344  0.00  0.00     0.103 A 
ATOM     10  C   UNL d   1     -52.241  27.500  33.383  0.00  0.00     0.004 A 
ATOM     11  C   UNL d   1     -50.644  27.904  33.310  0.00  0.00     0.025 A 
ATOM     12  C   UNL d   1     -52.019  28.291  33.349  0.00  0.00     0.000 A 
ATOM     13  C   UNL d   1     -51.218  28.494  33.313  0.00  0.00     0.002 A 
ENDROOT
BRANCH   4  14
ATOM     14  C   UNL d   1     -49.939  25.139  33.374  0.00  0.00     0.041 A 
ATOM     15  C   UNL d   1     -50.167  24.359  33.317  0.00  0.00     0.004 A 
ATOM     16  C   UNL d   1     -49.590  23.759  33.315  0.00  0.00     0.000 A 
ATOM     17  C   UNL d   1     -48.785  23.961  33.370  0.00  0.00     0.000 A 
ATOM     18  C   UNL d   1     -48.568  24.758  33.428  0.00  0.00     0.000 A 
ATOM     19  C   UNL d   1     -49.141  25.348  33.430  0.00  0.00     0.004 A 
ENDBRANCH   4  14
BRANCH   5  20
ATOM     20  C   UNL d   1     -53.092  24.362  33.518  0.00  0.00     0.049 A 
ATOM     21  S   UNL d   1     -53.882  24.464  33.316  0.00  0.00    -0.085 SA
ATOM     22  C   UNL d   1     -54.272  23.749  33.441  0.00  0.00     0.035 A 
ATOM     23  C   UNL d   1     -53.720  23.200  33.724  0.00  0.00     0.007 A 
ATOM     24  C   UNL d   1     -52.992  23.571  33.773  0.00  0.00     0.009 A 
ENDBRANCH   5  20
TORSDOF 2
ENDMDL
