MODEL 1
REMARK VINA RESULT:      35.9      0.000      0.000
REMARK  4 active torsions:
REMARK  status: ('A' for Active; 'I' for Inactive)
REMARK    1  A    between atoms: C_6  and  C_1 
REMARK    2  A    between atoms: S_7  and  C_3 
REMARK    3  A    between atoms: C_17  and  S_7 
REMARK    4  A    between atoms: C_18  and  C_17 
ROOT
ATOM      1  C   UNL d   1      58.793  49.559  50.414  0.00  0.00     0.087 A 
ATOM      2  N   UNL d   1      58.635  49.706  49.614  0.00  0.00    -0.245 NA
ATOM      3  C   UNL d   1      58.077  49.386  50.791  0.00  0.00     0.049 A 
ATOM      4  C   UNL d   1      57.472  49.423  50.233  0.00  0.00     0.025 A 
ATOM      5  C   UNL d   1      57.820  49.622  49.503  0.00  0.00     0.082 A 
ATOM      6  C   UNL d   1      56.665  49.307  50.284  0.00  0.00     0.002 A 
ATOM      7  C   UNL d   1      57.348  49.701  48.831  0.00  0.00     0.019 A 
ATOM      8  C   UNL d   1      56.193  49.386  49.611  0.00  0.00     0.000 A 
ATOM      9  C   UNL d   1      56.535  49.582  48.889  0.00  0.00     0.002 A 
ENDROOT
BRANCH   1  10
ATOM     10  C   UNL d   1      59.542  49.592  50.727  0.00  0.00     0.018 A 
ATOM     11  C   UNL d   1      59.642  49.653  51.552  0.00  0.00     0.004 A 
ATOM     12  C   UNL d   1      60.402  49.686  51.869  0.00  0.00     0.030 A 
ATOM     13  C   UNL d   1      61.065  49.659  51.374  0.00  0.00     0.140 A 
ATOM     14  C   UNL d   1      60.968  49.599  50.552  0.00  0.00     0.030 A 
ATOM     15  F   UNL d   1      61.835  49.692  51.687  0.00  0.00    -0.204 F 
ATOM     16  C   UNL d   1      60.208  49.565  50.235  0.00  0.00     0.004 A 
ENDBRANCH   1  10
BRANCH   3  17
ATOM     17  S   UNL d   1      57.983  49.206  51.590  0.00  0.00    -0.083 SA
BRANCH  17  18
ATOM     18  C   UNL d   1      57.464  49.673  52.053  0.00  0.00     0.058 C 
BRANCH  18  19
ATOM     19  C   UNL d   1      57.394  49.506  52.866  0.00  0.00     0.129 C 
ATOM     20  N   UNL d   1      56.703  49.708  53.249  0.00  0.00    -0.146 N 
ENDBRANCH  18  19
ENDBRANCH  17  18
ENDBRANCH   3  17
TORSDOF 4
ENDMDL
