MODEL 1
REMARK VINA RESULT:      -4.7      0.000      0.000
REMARK  6 active torsions:
REMARK  status: ('A' for Active; 'I' for Inactive)
REMARK    1  A    between atoms: C_4  and  C_1 
REMARK    2  A    between atoms: C_13  and  N_3 
REMARK    3  A    between atoms: C_11  and  N_5 
REMARK    4  A    between atoms: C_16  and  C_13 
REMARK    5  A    between atoms: O_14  and  C_16 
REMARK    6  A    between atoms: C_15  and  O_14 
ROOT
ATOM      1  C   UNL d   1     -38.544  13.913  19.074  0.00  0.00     0.149 A 
ATOM      2  N   UNL d   1     -38.326  13.115  19.091  0.00  0.00    -0.227 NA
ATOM      3  N   UNL d   1     -38.573  14.157  18.273  0.00  0.00    -0.287 N 
ATOM      4  C   UNL d   1     -38.372  13.500  17.804  0.00  0.00     0.083 A 
ATOM      5  C   UNL d   1     -38.219  12.857  18.302  0.00  0.00     0.099 A 
ATOM      6  C   UNL d   1     -38.308  13.408  16.979  0.00  0.00     0.019 A 
ATOM      7  C   UNL d   1     -38.006  12.127  17.991  0.00  0.00     0.021 A 
ATOM      8  C   UNL d   1     -38.092  12.669  16.668  0.00  0.00     0.002 A 
ATOM      9  C   UNL d   1     -37.941  12.030  17.173  0.00  0.00     0.002 A 
ENDROOT
BRANCH   1  10
ATOM     10  C   UNL d   1     -38.704  14.391  19.726  0.00  0.00     0.057 A 
ATOM     11  C   UNL d   1     -39.444  14.543  20.046  0.00  0.00     0.081 A 
ATOM     12  N   UNL d   1     -39.341  15.050  20.695  0.00  0.00    -0.298 N 
ATOM     13  C   UNL d   1     -38.536  15.208  20.771  0.00  0.00     0.261 A 
ATOM     14  C   UNL d   1     -38.140  14.802  20.173  0.00  0.00     0.065 A 
ATOM     15  O   UNL d   1     -38.191  15.687  21.342  0.00  0.00    -0.267 OA
BRANCH  12  16
ATOM     16  C   UNL d   1     -39.943  15.344  21.177  0.00  0.00     0.071 C 
ATOM     17  C   UNL d   1     -40.469  15.903  20.874  0.00  0.00     0.023 C 
ATOM     18  C   UNL d   1     -40.491  15.556  21.747  0.00  0.00     0.023 C 
ATOM     19  C   UNL d   1     -40.015  15.079  21.949  0.00  0.00     0.023 C 
ENDBRANCH  12  16
ENDBRANCH   1  10
BRANCH   3  20
ATOM     20  C   UNL d   1     -38.765  14.907  18.002  0.00  0.00     0.108 C 
BRANCH  20  21
ATOM     21  C   UNL d   1     -39.330  15.001  17.404  0.00  0.00     0.142 C 
BRANCH  21  22
ATOM     22  O   UNL d   1     -39.655  15.736  17.252  0.00  0.00    -0.304 OA
BRANCH  22  23
ATOM     23  C   UNL d   1     -40.394  15.784  16.883  0.00  0.00     0.100 A 
ATOM     24  C   UNL d   1     -41.071  15.849  17.352  0.00  0.00     0.025 A 
ATOM     25  C   UNL d   1     -41.810  15.896  16.982  0.00  0.00     0.002 A 
ATOM     26  C   UNL d   1     -41.870  15.879  16.162  0.00  0.00     0.000 A 
ATOM     27  C   UNL d   1     -41.181  15.814  15.705  0.00  0.00     0.002 A 
ATOM     28  C   UNL d   1     -40.446  15.767  16.071  0.00  0.00     0.025 A 
ENDBRANCH  22  23
ENDBRANCH  21  22
ENDBRANCH  20  21
ENDBRANCH   3  20
TORSDOF 6
ENDMDL
MODEL 2
REMARK VINA RESULT:      -4.7      8.430     10.039
REMARK  6 active torsions:
REMARK  status: ('A' for Active; 'I' for Inactive)
REMARK    1  A    between atoms: C_4  and  C_1 
REMARK    2  A    between atoms: C_13  and  N_3 
REMARK    3  A    between atoms: C_11  and  N_5 
REMARK    4  A    between atoms: C_16  and  C_13 
REMARK    5  A    between atoms: O_14  and  C_16 
REMARK    6  A    between atoms: C_15  and  O_14 
ROOT
ATOM      1  C   UNL d   1     -47.372  12.410  22.936  0.00  0.00     0.149 A 
ATOM      2  N   UNL d   1     -47.446  11.676  23.310  0.00  0.00    -0.227 NA
ATOM      3  N   UNL d   1     -48.141  12.696  22.768  0.00  0.00    -0.287 N 
ATOM      4  C   UNL d   1     -48.684  12.128  23.044  0.00  0.00     0.083 A 
ATOM      5  C   UNL d   1     -48.262  11.499  23.378  0.00  0.00     0.099 A 
ATOM      6  C   UNL d   1     -49.516  12.107  23.031  0.00  0.00     0.019 A 
ATOM      7  C   UNL d   1     -48.656  10.853  23.698  0.00  0.00     0.021 A 
ATOM      8  C   UNL d   1     -49.911  11.452  23.356  0.00  0.00     0.002 A 
ATOM      9  C   UNL d   1     -49.482  10.827  23.688  0.00  0.00     0.002 A 
ENDROOT
BRANCH   1  10
ATOM     10  C   UNL d   1     -46.667  12.798  22.757  0.00  0.00     0.057 A 
ATOM     11  C   UNL d   1     -46.058  12.508  22.290  0.00  0.00     0.081 A 
ATOM     12  N   UNL d   1     -45.462  13.084  22.262  0.00  0.00    -0.298 N 
ATOM     13  C   UNL d   1     -45.707  13.728  22.714  0.00  0.00     0.261 A 
ATOM     14  C   UNL d   1     -46.452  13.554  23.021  0.00  0.00     0.065 A 
ATOM     15  O   UNL d   1     -45.284  14.421  22.836  0.00  0.00    -0.267 OA
BRANCH  12  16
ATOM     16  C   UNL d   1     -44.748  13.021  21.853  0.00  0.00     0.071 C 
ATOM     17  C   UNL d   1     -44.587  13.545  21.237  0.00  0.00     0.023 C 
ATOM     18  C   UNL d   1     -44.015  12.858  21.527  0.00  0.00     0.023 C 
ATOM     19  C   UNL d   1     -44.208  12.441  22.060  0.00  0.00     0.023 C 
ENDBRANCH  12  16
ENDBRANCH   1  10
BRANCH   3  20
ATOM     20  C   UNL d   1     -48.324  13.405  22.400  0.00  0.00     0.108 C 
BRANCH  20  21
ATOM     21  C   UNL d   1     -48.815  13.955  22.777  0.00  0.00     0.142 C 
BRANCH  21  22
ATOM     22  O   UNL d   1     -49.077  14.619  22.377  0.00  0.00    -0.304 OA
BRANCH  22  23
ATOM     23  C   UNL d   1     -49.710  15.054  22.686  0.00  0.00     0.100 A 
ATOM     24  C   UNL d   1     -49.601  15.472  23.389  0.00  0.00     0.025 A 
ATOM     25  C   UNL d   1     -50.234  15.907  23.698  0.00  0.00     0.002 A 
ATOM     26  C   UNL d   1     -50.960  15.922  23.311  0.00  0.00     0.000 A 
ATOM     27  C   UNL d   1     -51.054  15.496  22.605  0.00  0.00     0.002 A 
ATOM     28  C   UNL d   1     -50.425  15.064  22.297  0.00  0.00     0.025 A 
ENDBRANCH  22  23
ENDBRANCH  21  22
ENDBRANCH  20  21
ENDBRANCH   3  20
TORSDOF 6
ENDMDL
MODEL 3
REMARK VINA RESULT:      -4.6      1.280      3.377
REMARK  6 active torsions:
REMARK  status: ('A' for Active; 'I' for Inactive)
REMARK    1  A    between atoms: C_4  and  C_1 
REMARK    2  A    between atoms: C_13  and  N_3 
REMARK    3  A    between atoms: C_11  and  N_5 
REMARK    4  A    between atoms: C_16  and  C_13 
REMARK    5  A    between atoms: O_14  and  C_16 
REMARK    6  A    between atoms: C_15  and  O_14 
ROOT
ATOM      1  C   UNL d   1     -40.121  15.008  19.513  0.00  0.00     0.149 A 
ATOM      2  N   UNL d   1     -40.861  15.296  19.281  0.00  0.00    -0.227 NA
ATOM      3  N   UNL d   1     -39.625  14.993  18.838  0.00  0.00    -0.287 N 
ATOM      4  C   UNL d   1     -40.070  15.274  18.194  0.00  0.00     0.083 A 
ATOM      5  C   UNL d   1     -40.831  15.462  18.461  0.00  0.00     0.099 A 
ATOM      6  C   UNL d   1     -39.875  15.384  17.392  0.00  0.00     0.019 A 
ATOM      7  C   UNL d   1     -41.397  15.756  17.942  0.00  0.00     0.021 A 
ATOM      8  C   UNL d   1     -40.449  15.680  16.871  0.00  0.00     0.002 A 
ATOM      9  C   UNL d   1     -41.208  15.866  17.146  0.00  0.00     0.002 A 
ENDROOT
BRANCH   1  10
ATOM     10  C   UNL d   1     -39.903  14.775  20.273  0.00  0.00     0.057 A 
ATOM     11  C   UNL d   1     -39.287  15.084  20.718  0.00  0.00     0.081 A 
ATOM     12  N   UNL d   1     -39.273  14.684  21.445  0.00  0.00    -0.298 N 
ATOM     13  C   UNL d   1     -39.881  14.129  21.444  0.00  0.00     0.261 A 
ATOM     14  C   UNL d   1     -40.272  14.183  20.720  0.00  0.00     0.065 A 
ATOM     15  O   UNL d   1     -40.064  13.613  22.056  0.00  0.00    -0.267 OA
BRANCH  12  16
ATOM     16  C   UNL d   1     -38.740  14.821  22.060  0.00  0.00     0.071 C 
ATOM     17  C   UNL d   1     -38.274  14.200  22.338  0.00  0.00     0.023 C 
ATOM     18  C   UNL d   1     -38.255  15.080  22.666  0.00  0.00     0.023 C 
ATOM     19  C   UNL d   1     -38.677  15.569  22.388  0.00  0.00     0.023 C 
ENDBRANCH  12  16
ENDBRANCH   1  10
BRANCH   3  20
ATOM     20  C   UNL d   1     -38.843  14.746  18.818  0.00  0.00     0.108 C 
BRANCH  20  21
ATOM     21  C   UNL d   1     -38.595  14.200  18.247  0.00  0.00     0.142 C 
BRANCH  21  22
ATOM     22  O   UNL d   1     -37.964  13.700  18.397  0.00  0.00    -0.304 OA
BRANCH  22  23
ATOM     23  C   UNL d   1     -37.956  12.945  18.058  0.00  0.00     0.100 A 
ATOM     24  C   UNL d   1     -37.948  12.878  17.236  0.00  0.00     0.025 A 
ATOM     25  C   UNL d   1     -37.940  12.122  16.897  0.00  0.00     0.002 A 
ATOM     26  C   UNL d   1     -37.940  11.451  17.371  0.00  0.00     0.000 A 
ATOM     27  C   UNL d   1     -37.949  11.535  18.196  0.00  0.00     0.002 A 
ATOM     28  C   UNL d   1     -37.957  12.285  18.534  0.00  0.00     0.025 A 
ENDBRANCH  22  23
ENDBRANCH  21  22
ENDBRANCH  20  21
ENDBRANCH   3  20
TORSDOF 6
ENDMDL
MODEL 4
REMARK VINA RESULT:      -3.9      8.651     10.141
REMARK  6 active torsions:
REMARK  status: ('A' for Active; 'I' for Inactive)
REMARK    1  A    between atoms: C_4  and  C_1 
REMARK    2  A    between atoms: C_13  and  N_3 
REMARK    3  A    between atoms: C_11  and  N_5 
REMARK    4  A    between atoms: C_16  and  C_13 
REMARK    5  A    between atoms: O_14  and  C_16 
REMARK    6  A    between atoms: C_15  and  O_14 
ROOT
ATOM      1  C   UNL d   1     -47.105  12.634  22.599  0.00  0.00     0.149 A 
ATOM      2  N   UNL d   1     -46.437  12.313  22.229  0.00  0.00    -0.227 NA
ATOM      3  N   UNL d   1     -46.949  13.441  22.762  0.00  0.00    -0.287 N 
ATOM      4  C   UNL d   1     -46.182  13.608  22.488  0.00  0.00     0.083 A 
ATOM      5  C   UNL d   1     -45.862  12.918  22.159  0.00  0.00     0.099 A 
ATOM      6  C   UNL d   1     -45.731  14.308  22.496  0.00  0.00     0.019 A 
ATOM      7  C   UNL d   1     -45.105  12.917  21.842  0.00  0.00     0.021 A 
ATOM      8  C   UNL d   1     -44.966  14.302  22.174  0.00  0.00     0.002 A 
ATOM      9  C   UNL d   1     -44.653  13.609  21.848  0.00  0.00     0.002 A 
ENDROOT
BRANCH   1  10
ATOM     10  C   UNL d   1     -47.803  12.235  22.779  0.00  0.00     0.057 A 
ATOM     11  C   UNL d   1     -48.556  12.435  22.524  0.00  0.00     0.081 A 
ATOM     12  N   UNL d   1     -49.088  11.881  22.839  0.00  0.00    -0.298 N 
ATOM     13  C   UNL d   1     -48.658  11.341  23.288  0.00  0.00     0.261 A 
ATOM     14  C   UNL d   1     -47.863  11.558  23.252  0.00  0.00     0.065 A 
ATOM     15  O   UNL d   1     -48.967  10.700  23.698  0.00  0.00    -0.267 OA
BRANCH  12  16
ATOM     16  C   UNL d   1     -49.904  11.876  22.721  0.00  0.00     0.071 C 
ATOM     17  C   UNL d   1     -50.202  11.891  21.951  0.00  0.00     0.023 C 
ATOM     18  C   UNL d   1     -50.722  11.867  22.734  0.00  0.00     0.023 C 
ATOM     19  C   UNL d   1     -50.411  11.855  23.364  0.00  0.00     0.023 C 
ENDBRANCH  12  16
ENDBRANCH   1  10
BRANCH   3  20
ATOM     20  C   UNL d   1     -47.461  13.968  23.125  0.00  0.00     0.108 C 
BRANCH  20  21
ATOM     21  C   UNL d   1     -47.857  14.540  22.675  0.00  0.00     0.142 C 
BRANCH  21  22
ATOM     22  O   UNL d   1     -48.159  15.212  23.032  0.00  0.00    -0.304 OA
BRANCH  22  23
ATOM     23  C   UNL d   1     -48.975  15.351  23.006  0.00  0.00     0.100 A 
ATOM     24  C   UNL d   1     -49.338  15.458  22.272  0.00  0.00     0.025 A 
ATOM     25  C   UNL d   1     -50.153  15.597  22.246  0.00  0.00     0.002 A 
ATOM     26  C   UNL d   1     -50.595  15.630  22.939  0.00  0.00     0.000 A 
ATOM     27  C   UNL d   1     -50.216  15.521  23.669  0.00  0.00     0.002 A 
ATOM     28  C   UNL d   1     -49.405  15.382  23.696  0.00  0.00     0.025 A 
ENDBRANCH  22  23
ENDBRANCH  21  22
ENDBRANCH  20  21
ENDBRANCH   3  20
TORSDOF 6
ENDMDL
MODEL 5
REMARK VINA RESULT:      -3.6      1.891      3.930
REMARK  6 active torsions:
REMARK  status: ('A' for Active; 'I' for Inactive)
REMARK    1  A    between atoms: C_4  and  C_1 
REMARK    2  A    between atoms: C_13  and  N_3 
REMARK    3  A    between atoms: C_11  and  N_5 
REMARK    4  A    between atoms: C_16  and  C_13 
REMARK    5  A    between atoms: O_14  and  C_16 
REMARK    6  A    between atoms: C_15  and  O_14 
ROOT
ATOM      1  C   UNL d   1     -40.150  14.661  18.989  0.00  0.00     0.149 A 
ATOM      2  N   UNL d   1     -40.316  14.539  18.187  0.00  0.00    -0.227 NA
ATOM      3  N   UNL d   1     -39.331  14.822  19.064  0.00  0.00    -0.287 N 
ATOM      4  C   UNL d   1     -39.001  14.796  18.301  0.00  0.00     0.083 A 
ATOM      5  C   UNL d   1     -39.602  14.623  17.758  0.00  0.00     0.099 A 
ATOM      6  C   UNL d   1     -38.222  14.910  18.031  0.00  0.00     0.019 A 
ATOM      7  C   UNL d   1     -39.437  14.562  16.955  0.00  0.00     0.021 A 
ATOM      8  C   UNL d   1     -38.059  14.847  17.219  0.00  0.00     0.002 A 
ATOM      9  C   UNL d   1     -38.665  14.674  16.683  0.00  0.00     0.002 A 
ENDROOT
BRANCH   1  10
ATOM     10  C   UNL d   1     -40.691  14.632  19.610  0.00  0.00     0.057 A 
ATOM     11  C   UNL d   1     -41.002  13.954  19.952  0.00  0.00     0.081 A 
ATOM     12  N   UNL d   1     -41.522  14.188  20.554  0.00  0.00    -0.298 N 
ATOM     13  C   UNL d   1     -41.529  15.011  20.581  0.00  0.00     0.261 A 
ATOM     14  C   UNL d   1     -41.016  15.288  19.998  0.00  0.00     0.065 A 
ATOM     15  O   UNL d   1     -41.970  15.473  21.097  0.00  0.00    -0.267 OA
BRANCH  12  16
ATOM     16  C   UNL d   1     -41.955  13.681  21.041  0.00  0.00     0.071 C 
ATOM     17  C   UNL d   1     -41.607  13.384  21.727  0.00  0.00     0.023 C 
ATOM     18  C   UNL d   1     -42.480  13.194  21.436  0.00  0.00     0.023 C 
ATOM     19  C   UNL d   1     -42.723  13.478  20.841  0.00  0.00     0.023 C 
ENDBRANCH  12  16
ENDBRANCH   1  10
BRANCH   3  20
ATOM     20  C   UNL d   1     -38.931  14.976  19.762  0.00  0.00     0.108 C 
BRANCH  20  21
ATOM     21  C   UNL d   1     -38.451  14.394  20.104  0.00  0.00     0.142 C 
BRANCH  21  22
ATOM     22  O   UNL d   1     -37.940  14.583  20.713  0.00  0.00    -0.304 OA
BRANCH  22  23
ATOM     23  C   UNL d   1     -37.975  14.154  21.420  0.00  0.00     0.100 A 
ATOM     24  C   UNL d   1     -38.045  14.565  22.133  0.00  0.00     0.025 A 
ATOM     25  C   UNL d   1     -38.081  14.136  22.840  0.00  0.00     0.002 A 
ATOM     26  C   UNL d   1     -38.048  13.314  22.833  0.00  0.00     0.000 A 
ATOM     27  C   UNL d   1     -37.978  12.915  22.109  0.00  0.00     0.002 A 
ATOM     28  C   UNL d   1     -37.942  13.341  21.405  0.00  0.00     0.025 A 
ENDBRANCH  22  23
ENDBRANCH  21  22
ENDBRANCH  20  21
ENDBRANCH   3  20
TORSDOF 6
ENDMDL
MODEL 6
REMARK VINA RESULT:      -2.5      7.562      9.210
REMARK  6 active torsions:
REMARK  status: ('A' for Active; 'I' for Inactive)
REMARK    1  A    between atoms: C_4  and  C_1 
REMARK    2  A    between atoms: C_13  and  N_3 
REMARK    3  A    between atoms: C_11  and  N_5 
REMARK    4  A    between atoms: C_16  and  C_13 
REMARK    5  A    between atoms: O_14  and  C_16 
REMARK    6  A    between atoms: C_15  and  O_14 
ROOT
ATOM      1  C   UNL d   1     -47.678  12.629  22.866  0.00  0.00     0.149 A 
ATOM      2  N   UNL d   1     -47.976  11.896  23.107  0.00  0.00    -0.227 NA
ATOM      3  N   UNL d   1     -46.841  12.593  22.900  0.00  0.00    -0.287 N 
ATOM      4  C   UNL d   1     -46.634  11.831  23.164  0.00  0.00     0.083 A 
ATOM      5  C   UNL d   1     -47.329  11.399  23.293  0.00  0.00     0.099 A 
ATOM      6  C   UNL d   1     -45.894  11.476  23.304  0.00  0.00     0.019 A 
ATOM      7  C   UNL d   1     -47.295  10.621  23.558  0.00  0.00     0.021 A 
ATOM      8  C   UNL d   1     -45.865  10.691  23.571  0.00  0.00     0.002 A 
ATOM      9  C   UNL d   1     -46.563  10.264  23.698  0.00  0.00     0.002 A 
ENDROOT
BRANCH   1  10
ATOM     10  C   UNL d   1     -48.119  13.284  22.632  0.00  0.00     0.057 A 
ATOM     11  C   UNL d   1     -48.392  13.885  23.119  0.00  0.00     0.081 A 
ATOM     12  N   UNL d   1     -48.809  14.425  22.648  0.00  0.00    -0.298 N 
ATOM     13  C   UNL d   1     -48.792  14.153  21.870  0.00  0.00     0.261 A 
ATOM     14  C   UNL d   1     -48.366  13.447  21.858  0.00  0.00     0.065 A 
ATOM     15  O   UNL d   1     -49.138  14.521  21.223  0.00  0.00    -0.267 OA
BRANCH  12  16
ATOM     16  C   UNL d   1     -49.177  15.114  22.914  0.00  0.00     0.071 C 
ATOM     17  C   UNL d   1     -48.927  15.845  22.623  0.00  0.00     0.023 C 
ATOM     18  C   UNL d   1     -49.614  15.718  23.251  0.00  0.00     0.023 C 
ATOM     19  C   UNL d   1     -49.783  15.069  23.463  0.00  0.00     0.023 C 
ENDBRANCH  12  16
ENDBRANCH   1  10
BRANCH   3  20
ATOM     20  C   UNL d   1     -46.323  13.198  22.707  0.00  0.00     0.108 C 
BRANCH  20  21
ATOM     21  C   UNL d   1     -45.632  13.034  22.281  0.00  0.00     0.142 C 
BRANCH  21  22
ATOM     22  O   UNL d   1     -45.085  13.625  22.136  0.00  0.00    -0.304 OA
BRANCH  22  23
ATOM     23  C   UNL d   1     -44.351  13.425  21.808  0.00  0.00     0.100 A 
ATOM     24  C   UNL d   1     -43.843  14.031  21.571  0.00  0.00     0.025 A 
ATOM     25  C   UNL d   1     -43.109  13.831  21.243  0.00  0.00     0.002 A 
ATOM     26  C   UNL d   1     -42.891  13.043  21.154  0.00  0.00     0.000 A 
ATOM     27  C   UNL d   1     -43.413  12.446  21.396  0.00  0.00     0.002 A 
ATOM     28  C   UNL d   1     -44.142  12.643  21.723  0.00  0.00     0.025 A 
ENDBRANCH  22  23
ENDBRANCH  21  22
ENDBRANCH  20  21
ENDBRANCH   3  20
TORSDOF 6
ENDMDL
MODEL 7
REMARK VINA RESULT:      -2.3      8.904     10.355
REMARK  6 active torsions:
REMARK  status: ('A' for Active; 'I' for Inactive)
REMARK    1  A    between atoms: C_4  and  C_1 
REMARK    2  A    between atoms: C_13  and  N_3 
REMARK    3  A    between atoms: C_11  and  N_5 
REMARK    4  A    between atoms: C_16  and  C_13 
REMARK    5  A    between atoms: O_14  and  C_16 
REMARK    6  A    between atoms: C_15  and  O_14 
ROOT
ATOM      1  C   UNL d   1     -47.907  11.386  23.175  0.00  0.00     0.149 A 
ATOM      2  N   UNL d   1     -47.542  10.662  23.009  0.00  0.00    -0.227 NA
ATOM      3  N   UNL d   1     -47.322  11.913  23.462  0.00  0.00    -0.287 N 
ATOM      4  C   UNL d   1     -46.598  11.502  23.468  0.00  0.00     0.083 A 
ATOM      5  C   UNL d   1     -46.728  10.733  23.191  0.00  0.00     0.099 A 
ATOM      6  C   UNL d   1     -45.831  11.736  23.694  0.00  0.00     0.019 A 
ATOM      7  C   UNL d   1     -46.107  10.197  23.136  0.00  0.00     0.021 A 
ATOM      8  C   UNL d   1     -45.207  11.192  23.638  0.00  0.00     0.002 A 
ATOM      9  C   UNL d   1     -45.345  10.424  23.359  0.00  0.00     0.002 A 
ENDROOT
BRANCH   1  10
ATOM     10  C   UNL d   1     -48.706  11.564  23.078  0.00  0.00     0.057 A 
ATOM     11  C   UNL d   1     -49.052  11.893  22.411  0.00  0.00     0.081 A 
ATOM     12  N   UNL d   1     -49.864  11.974  22.559  0.00  0.00    -0.298 N 
ATOM     13  C   UNL d   1     -50.014  11.695  23.320  0.00  0.00     0.261 A 
ATOM     14  C   UNL d   1     -49.299  11.440  23.642  0.00  0.00     0.065 A 
ATOM     15  O   UNL d   1     -50.747  11.673  23.690  0.00  0.00    -0.267 OA
BRANCH  12  16
ATOM     16  C   UNL d   1     -50.422  12.283  22.035  0.00  0.00     0.071 C 
ATOM     17  C   UNL d   1     -51.001  12.798  22.317  0.00  0.00     0.023 C 
ATOM     18  C   UNL d   1     -50.913  12.519  21.424  0.00  0.00     0.023 C 
ATOM     19  C   UNL d   1     -50.397  12.077  21.243  0.00  0.00     0.023 C 
ENDBRANCH  12  16
ENDBRANCH   1  10
BRANCH   3  20
ATOM     20  C   UNL d   1     -47.443  12.690  23.693  0.00  0.00     0.108 C 
BRANCH  20  21
ATOM     21  C   UNL d   1     -47.173  13.312  23.217  0.00  0.00     0.142 C 
BRANCH  21  22
ATOM     22  O   UNL d   1     -47.285  14.089  23.448  0.00  0.00    -0.304 OA
BRANCH  22  23
ATOM     23  C   UNL d   1     -47.462  14.660  22.874  0.00  0.00     0.100 A 
ATOM     24  C   UNL d   1     -48.249  14.884  22.765  0.00  0.00     0.025 A 
ATOM     25  C   UNL d   1     -48.425  15.455  22.192  0.00  0.00     0.002 A 
ATOM     26  C   UNL d   1     -47.828  15.793  21.740  0.00  0.00     0.000 A 
ATOM     27  C   UNL d   1     -47.042  15.556  21.861  0.00  0.00     0.002 A 
ATOM     28  C   UNL d   1     -46.865  14.989  22.431  0.00  0.00     0.025 A 
ENDBRANCH  22  23
ENDBRANCH  21  22
ENDBRANCH  20  21
ENDBRANCH   3  20
TORSDOF 6
ENDMDL
MODEL 8
REMARK VINA RESULT:      -1.9      6.204      7.722
REMARK  6 active torsions:
REMARK  status: ('A' for Active; 'I' for Inactive)
REMARK    1  A    between atoms: C_4  and  C_1 
REMARK    2  A    between atoms: C_13  and  N_3 
REMARK    3  A    between atoms: C_11  and  N_5 
REMARK    4  A    between atoms: C_16  and  C_13 
REMARK    5  A    between atoms: O_14  and  C_16 
REMARK    6  A    between atoms: C_15  and  O_14 
ROOT
ATOM      1  C   UNL d   1     -45.654  12.241  22.886  0.00  0.00     0.149 A 
ATOM      2  N   UNL d   1     -45.741  11.586  23.384  0.00  0.00    -0.227 NA
ATOM      3  N   UNL d   1     -44.902  12.191  22.520  0.00  0.00    -0.287 N 
ATOM      4  C   UNL d   1     -44.534  11.500  22.800  0.00  0.00     0.083 A 
ATOM      5  C   UNL d   1     -45.045  11.124  23.331  0.00  0.00     0.099 A 
ATOM      6  C   UNL d   1     -43.790  11.164  22.635  0.00  0.00     0.019 A 
ATOM      7  C   UNL d   1     -44.827  10.422  23.698  0.00  0.00     0.021 A 
ATOM      8  C   UNL d   1     -43.573  10.455  23.007  0.00  0.00     0.002 A 
ATOM      9  C   UNL d   1     -44.090  10.085  23.538  0.00  0.00     0.002 A 
ENDROOT
BRANCH   1  10
ATOM     10  C   UNL d   1     -46.206  12.841  22.766  0.00  0.00     0.057 A 
ATOM     11  C   UNL d   1     -46.960  12.754  22.454  0.00  0.00     0.081 A 
ATOM     12  N   UNL d   1     -47.317  13.502  22.436  0.00  0.00    -0.298 N 
ATOM     13  C   UNL d   1     -46.780  14.049  22.738  0.00  0.00     0.261 A 
ATOM     14  C   UNL d   1     -46.092  13.643  22.943  0.00  0.00     0.065 A 
ATOM     15  O   UNL d   1     -46.909  14.856  22.820  0.00  0.00    -0.267 OA
BRANCH  12  16
ATOM     16  C   UNL d   1     -48.078  13.666  22.163  0.00  0.00     0.071 C 
ATOM     17  C   UNL d   1     -48.598  14.089  22.643  0.00  0.00     0.023 C 
ATOM     18  C   UNL d   1     -48.797  13.765  21.784  0.00  0.00     0.023 C 
ATOM     19  C   UNL d   1     -48.311  13.410  21.420  0.00  0.00     0.023 C 
ENDBRANCH  12  16
ENDBRANCH   1  10
BRANCH   3  20
ATOM     20  C   UNL d   1     -44.589  12.727  21.984  0.00  0.00     0.108 C 
BRANCH  20  21
ATOM     21  C   UNL d   1     -43.770  12.770  21.870  0.00  0.00     0.142 C 
BRANCH  21  22
ATOM     22  O   UNL d   1     -43.464  13.029  21.157  0.00  0.00    -0.304 OA
BRANCH  22  23
ATOM     23  C   UNL d   1     -42.743  13.437  21.150  0.00  0.00     0.100 A 
ATOM     24  C   UNL d   1     -42.752  14.262  21.156  0.00  0.00     0.025 A 
ATOM     25  C   UNL d   1     -42.031  14.669  21.149  0.00  0.00     0.002 A 
ATOM     26  C   UNL d   1     -41.319  14.259  21.136  0.00  0.00     0.000 A 
ATOM     27  C   UNL d   1     -41.326  13.430  21.129  0.00  0.00     0.002 A 
ATOM     28  C   UNL d   1     -42.042  13.024  21.136  0.00  0.00     0.025 A 
ENDBRANCH  22  23
ENDBRANCH  21  22
ENDBRANCH  20  21
ENDBRANCH   3  20
TORSDOF 6
ENDMDL
