MODEL 1
REMARK VINA RESULT:      -2.5      0.000      0.000
REMARK  4 active torsions:
REMARK  status: ('A' for Active; 'I' for Inactive)
REMARK    1  A    between atoms: S_2  and  N_1 
REMARK    2  A    between atoms: C_6  and  S_2 
REMARK    3  A    between atoms: C_10  and  C_6 
REMARK    4  A    between atoms: C_11  and  C_10 
ROOT
ATOM      1  S   UNL d   1      31.316  17.057 -24.214  0.00  0.00     0.287 S 
ATOM      2  O   UNL d   1      31.133  17.179 -25.012  0.00  0.00    -0.198 OA
ATOM      3  O   UNL d   1      31.484  16.928 -23.423  0.00  0.00    -0.198 OA
ENDROOT
BRANCH   1   4
ATOM      4  N   UNL d   1      32.002  17.500 -24.283  0.00  0.00    -0.152 N 
ATOM      5  N   UNL d   1      32.101  18.276 -24.006  0.00  0.00    -0.155 NA
ATOM      6  C   UNL d   1      32.876  18.508 -24.191  0.00  0.00     0.104 A 
ATOM      7  C   UNL d   1      33.217  19.239 -24.019  0.00  0.00     0.022 C 
ATOM      8  C   UNL d   1      33.241  17.874 -24.578  0.00  0.00     0.041 A 
ATOM      9  C   UNL d   1      32.703  17.253 -24.635  0.00  0.00     0.096 A 
ATOM     10  C   UNL d   1      32.842  16.521 -24.980  0.00  0.00     0.022 C 
ENDBRANCH   1   4
BRANCH   1  11
ATOM     11  C   UNL d   1      30.627  16.606 -24.126  0.00  0.00     0.117 C 
BRANCH  11  12
ATOM     12  C   UNL d   1      29.889  16.942 -24.308  0.00  0.00     0.014 C 
BRANCH  12  13
ATOM     13  C   UNL d   1      29.194  16.567 -24.077  0.00  0.00     0.001 A 
ATOM     14  C   UNL d   1      29.016  15.828 -24.369  0.00  0.00     0.000 A 
ATOM     15  C   UNL d   1      28.320  15.453 -24.137  0.00  0.00     0.000 A 
ATOM     16  C   UNL d   1      27.805  15.825 -23.610  0.00  0.00     0.000 A 
ATOM     17  C   UNL d   1      27.992  16.573 -23.317  0.00  0.00     0.000 A 
ATOM     18  C   UNL d   1      28.687  16.949 -23.549  0.00  0.00     0.000 A 
ENDBRANCH  12  13
ENDBRANCH  11  12
ENDBRANCH   1  11
TORSDOF 4
ENDMDL
MODEL 2
REMARK VINA RESULT:      -2.2      1.872      4.384
REMARK  4 active torsions:
REMARK  status: ('A' for Active; 'I' for Inactive)
REMARK    1  A    between atoms: S_2  and  N_1 
REMARK    2  A    between atoms: C_6  and  S_2 
REMARK    3  A    between atoms: C_10  and  C_6 
REMARK    4  A    between atoms: C_11  and  C_10 
ROOT
ATOM      1  S   UNL d   1      32.590  18.051 -23.538  0.00  0.00     0.287 S 
ATOM      2  O   UNL d   1      33.213  17.687 -23.134  0.00  0.00    -0.198 OA
ATOM      3  O   UNL d   1      31.977  18.425 -23.934  0.00  0.00    -0.198 OA
ENDROOT
BRANCH   1   4
ATOM      4  N   UNL d   1      32.299  17.325 -23.785  0.00  0.00    -0.152 N 
ATOM      5  N   UNL d   1      31.696  16.897 -23.409  0.00  0.00    -0.155 NA
ATOM      6  C   UNL d   1      31.580  16.200 -23.842  0.00  0.00     0.104 A 
ATOM      7  C   UNL d   1      31.032  15.607 -23.669  0.00  0.00     0.022 C 
ATOM      8  C   UNL d   1      32.112  16.208 -24.477  0.00  0.00     0.041 A 
ATOM      9  C   UNL d   1      32.555  16.900 -24.442  0.00  0.00     0.096 A 
ATOM     10  C   UNL d   1      33.145  17.126 -24.967  0.00  0.00     0.022 C 
ENDBRANCH   1   4
BRANCH   1  11
ATOM     11  C   UNL d   1      32.868  18.793 -23.299  0.00  0.00     0.117 C 
BRANCH  11  12
ATOM     12  C   UNL d   1      32.891  18.982 -22.491  0.00  0.00     0.014 C 
BRANCH  12  13
ATOM     13  C   UNL d   1      33.008  19.761 -22.251  0.00  0.00     0.001 A 
ATOM     14  C   UNL d   1      33.056  19.939 -21.458  0.00  0.00     0.000 A 
ATOM     15  C   UNL d   1      33.173  20.718 -21.218  0.00  0.00     0.000 A 
ATOM     16  C   UNL d   1      33.241  21.318 -21.781  0.00  0.00     0.000 A 
ATOM     17  C   UNL d   1      33.191  21.132 -22.583  0.00  0.00     0.000 A 
ATOM     18  C   UNL d   1      33.074  20.352 -22.823  0.00  0.00     0.000 A 
ENDBRANCH  12  13
ENDBRANCH  11  12
ENDBRANCH   1  11
TORSDOF 4
ENDMDL
MODEL 3
REMARK VINA RESULT:      -2.1      1.319      4.143
REMARK  4 active torsions:
REMARK  status: ('A' for Active; 'I' for Inactive)
REMARK    1  A    between atoms: S_2  and  N_1 
REMARK    2  A    between atoms: C_6  and  S_2 
REMARK    3  A    between atoms: C_10  and  C_6 
REMARK    4  A    between atoms: C_11  and  C_10 
ROOT
ATOM      1  S   UNL d   1      30.039  16.767 -24.280  0.00  0.00     0.287 S 
ATOM      2  O   UNL d   1      30.425  16.187 -23.834  0.00  0.00    -0.198 OA
ATOM      3  O   UNL d   1      29.670  17.348 -24.726  0.00  0.00    -0.198 OA
ENDROOT
BRANCH   1   4
ATOM      4  N   UNL d   1      29.304  16.480 -24.056  0.00  0.00    -0.152 N 
ATOM      5  N   UNL d   1      28.858  16.753 -23.412  0.00  0.00    -0.155 NA
ATOM      6  C   UNL d   1      28.158  16.310 -23.390  0.00  0.00     0.104 A 
ATOM      7  C   UNL d   1      27.549  16.393 -22.839  0.00  0.00     0.022 C 
ATOM      8  C   UNL d   1      28.182  15.772 -24.018  0.00  0.00     0.041 A 
ATOM      9  C   UNL d   1      28.888  15.876 -24.429  0.00  0.00     0.096 A 
ATOM     10  C   UNL d   1      29.131  15.454 -25.090  0.00  0.00     0.022 C 
ENDBRANCH   1   4
BRANCH   1  11
ATOM     11  C   UNL d   1      30.772  17.072 -24.517  0.00  0.00     0.117 C 
BRANCH  11  12
ATOM     12  C   UNL d   1      31.297  17.370 -23.947  0.00  0.00     0.014 C 
BRANCH  12  13
ATOM     13  C   UNL d   1      31.945  17.823 -24.177  0.00  0.00     0.001 A 
ATOM     14  C   UNL d   1      32.176  18.459 -23.725  0.00  0.00     0.000 A 
ATOM     15  C   UNL d   1      32.824  18.912 -23.956  0.00  0.00     0.000 A 
ATOM     16  C   UNL d   1      33.239  18.720 -24.643  0.00  0.00     0.000 A 
ATOM     17  C   UNL d   1      33.000  18.074 -25.097  0.00  0.00     0.000 A 
ATOM     18  C   UNL d   1      32.351  17.621 -24.866  0.00  0.00     0.000 A 
ENDBRANCH  12  13
ENDBRANCH  11  12
ENDBRANCH   1  11
TORSDOF 4
ENDMDL
MODEL 4
REMARK VINA RESULT:      -1.4      2.524      3.522
REMARK  4 active torsions:
REMARK  status: ('A' for Active; 'I' for Inactive)
REMARK    1  A    between atoms: S_2  and  N_1 
REMARK    2  A    between atoms: C_6  and  S_2 
REMARK    3  A    between atoms: C_10  and  C_6 
REMARK    4  A    between atoms: C_11  and  C_10 
ROOT
ATOM      1  S   UNL d   1      33.069  18.895 -23.009  0.00  0.00     0.287 S 
ATOM      2  O   UNL d   1      33.237  18.420 -22.353  0.00  0.00    -0.198 OA
ATOM      3  O   UNL d   1      32.901  19.353 -23.668  0.00  0.00    -0.198 OA
ENDROOT
BRANCH   1   4
ATOM      4  N   UNL d   1      33.125  19.576 -22.556  0.00  0.00    -0.152 N 
ATOM      5  N   UNL d   1      33.112  19.603 -21.727  0.00  0.00    -0.155 NA
ATOM      6  C   UNL d   1      33.184  20.398 -21.504  0.00  0.00     0.104 A 
ATOM      7  C   UNL d   1      33.197  20.685 -20.730  0.00  0.00     0.022 C 
ATOM      8  C   UNL d   1      33.241  20.848 -22.196  0.00  0.00     0.041 A 
ATOM      9  C   UNL d   1      33.205  20.342 -22.844  0.00  0.00     0.096 A 
ATOM     10  C   UNL d   1      33.241  20.563 -23.634  0.00  0.00     0.022 C 
ENDBRANCH   1   4
BRANCH   1  11
ATOM     11  C   UNL d   1      33.007  18.218 -23.482  0.00  0.00     0.117 C 
BRANCH  11  12
ATOM     12  C   UNL d   1      32.577  17.563 -23.209  0.00  0.00     0.014 C 
BRANCH  12  13
ATOM     13  C   UNL d   1      32.418  16.931 -23.713  0.00  0.00     0.001 A 
ATOM     14  C   UNL d   1      32.895  16.272 -23.700  0.00  0.00     0.000 A 
ATOM     15  C   UNL d   1      32.735  15.641 -24.205  0.00  0.00     0.000 A 
ATOM     16  C   UNL d   1      32.093  15.678 -24.723  0.00  0.00     0.000 A 
ATOM     17  C   UNL d   1      31.614  16.349 -24.731  0.00  0.00     0.000 A 
ATOM     18  C   UNL d   1      31.773  16.980 -24.226  0.00  0.00     0.000 A 
ENDBRANCH  12  13
ENDBRANCH  11  12
ENDBRANCH   1  11
TORSDOF 4
ENDMDL
MODEL 5
REMARK VINA RESULT:       0.0      6.267      7.923
REMARK  4 active torsions:
REMARK  status: ('A' for Active; 'I' for Inactive)
REMARK    1  A    between atoms: S_2  and  N_1 
REMARK    2  A    between atoms: C_6  and  S_2 
REMARK    3  A    between atoms: C_10  and  C_6 
REMARK    4  A    between atoms: C_11  and  C_10 
ROOT
ATOM      1  S   UNL d   1      32.971  22.577 -19.035  0.00  0.00     0.287 S 
ATOM      2  O   UNL d   1      32.701  21.849 -18.749  0.00  0.00    -0.198 OA
ATOM      3  O   UNL d   1      33.241  23.292 -19.331  0.00  0.00    -0.198 OA
ENDROOT
BRANCH   1   4
ATOM      4  N   UNL d   1      32.794  22.945 -18.323  0.00  0.00    -0.152 N 
ATOM      5  N   UNL d   1      33.221  22.855 -17.618  0.00  0.00    -0.155 NA
ATOM      6  C   UNL d   1      32.851  23.324 -17.043  0.00  0.00     0.104 A 
ATOM      7  C   UNL d   1      33.088  23.404 -16.256  0.00  0.00     0.022 C 
ATOM      8  C   UNL d   1      32.203  23.695 -17.401  0.00  0.00     0.041 A 
ATOM      9  C   UNL d   1      32.168  23.462 -18.190  0.00  0.00     0.096 A 
ATOM     10  C   UNL d   1      31.609  23.702 -18.742  0.00  0.00     0.022 C 
ENDBRANCH   1   4
BRANCH   1  11
ATOM     11  C   UNL d   1      33.156  22.223 -19.760  0.00  0.00     0.117 C 
BRANCH  11  12
ATOM     12  C   UNL d   1      32.559  22.108 -20.326  0.00  0.00     0.014 C 
BRANCH  12  13
ATOM     13  C   UNL d   1      32.700  21.638 -20.987  0.00  0.00     0.001 A 
ATOM     14  C   UNL d   1      32.678  21.967 -21.731  0.00  0.00     0.000 A 
ATOM     15  C   UNL d   1      32.819  21.497 -22.392  0.00  0.00     0.000 A 
ATOM     16  C   UNL d   1      32.982  20.692 -22.300  0.00  0.00     0.000 A 
ATOM     17  C   UNL d   1      33.003  20.364 -21.543  0.00  0.00     0.000 A 
ATOM     18  C   UNL d   1      32.862  20.836 -20.882  0.00  0.00     0.000 A 
ENDBRANCH  12  13
ENDBRANCH  11  12
ENDBRANCH   1  11
TORSDOF 4
ENDMDL
