MODEL 1
REMARK VINA RESULT:      70.6      0.000      0.000
REMARK  3 active torsions:
REMARK  status: ('A' for Active; 'I' for Inactive)
REMARK    1  A    between atoms: C_7  and  C_1 
REMARK    2  A    between atoms: C_6  and  C_2 
REMARK    3  A    between atoms: C_3  and  C_6 
REMARK       I    between atoms: N_4  and  C_3 
ROOT
ATOM      1  C   UNL d   1      60.656  49.537  51.034  0.00  0.00     0.038 A 
ATOM      2  C   UNL d   1      59.969  49.643  52.201  0.00  0.00     0.043 A 
ATOM      3  C   UNL d   1      59.891  49.589  51.332  0.00  0.00     0.016 A 
ATOM      4  C   UNL d   1      61.085  49.472  50.324  0.00  0.00    -0.023 A 
ATOM      5  C   UNL d   1      61.238  49.553  51.655  0.00  0.00     0.013 A 
ATOM      6  C   UNL d   1      61.085  49.534  51.267  0.00  0.00    -0.012 A 
ATOM      7  C   UNL d   1      61.287  49.609  52.530  0.00  0.00     0.023 A 
ATOM      8  C   UNL d   1      60.525  49.660  52.814  0.00  0.00     0.013 A 
ATOM      9  C   UNL d   1      60.388  49.583  51.553  0.00  0.00    -0.023 A 
ATOM     10  C   UNL d   1      61.636  49.549  51.844  0.00  0.00    -0.027 A 
ENDROOT
BRANCH   2  11
ATOM     11  C   UNL d   1      59.366  49.706  52.764  0.00  0.00     0.038 C 
BRANCH  11  12
ATOM     12  C   UNL d   1      59.550  49.704  53.568  0.00  0.00     0.261 C 
ATOM     13  N   UNL d   1      58.942  49.701  54.129  0.00  0.00    -0.268 N 
ATOM     14  C   UNL d   1      59.126  49.699  54.933  0.00  0.00     0.110 A 
ATOM     15  C   UNL d   1      58.151  49.699  53.879  0.00  0.00     0.110 A 
ATOM     16  C   UNL d   1      58.524  49.696  55.493  0.00  0.00     0.142 A 
ATOM     17  O   UNL d   1      57.732  49.694  55.255  0.00  0.00    -0.300 OA
ATOM     18  C   UNL d   1      57.548  49.696  54.451  0.00  0.00     0.142 A 
ATOM     19  O   UNL d   1      60.339  49.706  53.810  0.00  0.00    -0.267 OA
ENDBRANCH  11  12
ENDBRANCH   2  11
BRANCH   1  20
ATOM     20  C   UNL d   1      60.007  49.531  50.520  0.00  0.00    -0.019 A 
ATOM     21  C   UNL d   1      60.131  49.671  49.719  0.00  0.00    -0.004 A 
ATOM     22  C   UNL d   1      59.492  49.667  49.202  0.00  0.00    -0.000 A 
ATOM     23  C   UNL d   1      58.739  49.523  49.483  0.00  0.00    -0.000 A 
ATOM     24  C   UNL d   1      58.616  49.381  50.294  0.00  0.00    -0.000 A 
ATOM     25  C   UNL d   1      58.089  49.516  48.971  0.00  0.00    -0.000 C 
ATOM     26  C   UNL d   1      59.261  49.387  50.806  0.00  0.00    -0.004 A 
ENDBRANCH   1  20
TORSDOF 3
ENDMDL
MODEL 2
REMARK VINA RESULT:      72.5      2.211      3.349
REMARK  3 active torsions:
REMARK  status: ('A' for Active; 'I' for Inactive)
REMARK    1  A    between atoms: C_7  and  C_1 
REMARK    2  A    between atoms: C_6  and  C_2 
REMARK    3  A    between atoms: C_3  and  C_6 
REMARK       I    between atoms: N_4  and  C_3 
ROOT
ATOM      1  C   UNL d   1      61.129  48.297  51.291  0.00  0.00     0.038 A 
ATOM      2  C   UNL d   1      60.118  49.042  50.772  0.00  0.00     0.043 A 
ATOM      3  C   UNL d   1      60.588  48.310  50.672  0.00  0.00     0.016 A 
ATOM      4  C   UNL d   1      61.750  47.848  51.616  0.00  0.00    -0.023 A 
ATOM      5  C   UNL d   1      61.046  48.976  51.797  0.00  0.00     0.013 A 
ATOM      6  C   UNL d   1      61.199  48.615  51.655  0.00  0.00    -0.012 A 
ATOM      7  C   UNL d   1      60.560  49.703  51.874  0.00  0.00     0.023 A 
ATOM      8  C   UNL d   1      60.028  49.706  51.256  0.00  0.00     0.013 A 
ATOM      9  C   UNL d   1      60.698  48.639  51.091  0.00  0.00    -0.023 A 
ATOM     10  C   UNL d   1      61.128  49.249  52.134  0.00  0.00    -0.027 A 
ENDROOT
BRANCH   2  11
ATOM     11  C   UNL d   1      59.501  49.319  50.298  0.00  0.00     0.038 C 
BRANCH  11  12
ATOM     12  C   UNL d   1      58.763  49.478  50.632  0.00  0.00     0.261 C 
ATOM     13  N   UNL d   1      58.092  49.510  50.149  0.00  0.00    -0.268 N 
ATOM     14  C   UNL d   1      57.355  49.668  50.482  0.00  0.00     0.110 A 
ATOM     15  C   UNL d   1      58.165  49.382  49.332  0.00  0.00     0.110 A 
ATOM     16  C   UNL d   1      56.685  49.700  50.005  0.00  0.00     0.142 A 
ATOM     17  O   UNL d   1      56.747  49.574  49.190  0.00  0.00    -0.300 OA
ATOM     18  C   UNL d   1      57.485  49.416  48.857  0.00  0.00     0.142 A 
ATOM     19  O   UNL d   1      58.698  49.604  51.444  0.00  0.00    -0.267 OA
ENDBRANCH  11  12
ENDBRANCH   2  11
BRANCH   1  20
ATOM     20  C   UNL d   1      61.118  47.684  50.734  0.00  0.00    -0.019 A 
ATOM     21  C   UNL d   1      60.622  47.041  50.859  0.00  0.00    -0.004 A 
ATOM     22  C   UNL d   1      60.605  46.429  50.311  0.00  0.00    -0.000 A 
ATOM     23  C   UNL d   1      61.078  46.460  49.646  0.00  0.00    -0.000 A 
ATOM     24  C   UNL d   1      61.580  47.113  49.522  0.00  0.00    -0.000 A 
ATOM     25  C   UNL d   1      61.069  45.849  49.088  0.00  0.00    -0.000 C 
ATOM     26  C   UNL d   1      61.592  47.723  50.076  0.00  0.00    -0.004 A 
ENDBRANCH   1  20
TORSDOF 3
ENDMDL
