MODEL 1
REMARK VINA RESULT:      -6.3      0.000      0.000
REMARK  4 active torsions:
REMARK  status: ('A' for Active; 'I' for Inactive)
REMARK    1  A    between atoms: C_14  and  C_2 
REMARK    2  A    between atoms: C_4  and  C_5 
REMARK    3  A    between atoms: C_5  and  O_9 
REMARK    4  A    between atoms: O_9  and  C_14 
ROOT
ATOM      1  N   UNL d   1     -48.965  13.651  22.200  0.00  0.00    -0.236 NA
ATOM      2  C   UNL d   1     -48.461  14.091  22.667  0.00  0.00     0.136 A 
ATOM      3  S   UNL d   1     -48.875  14.763  22.939  0.00  0.00    -0.064 SA
ATOM      4  C   UNL d   1     -49.694  14.043  22.177  0.00  0.00     0.088 A 
ATOM      5  C   UNL d   1     -49.640  14.723  22.628  0.00  0.00     0.049 A 
ATOM      6  C   UNL d   1     -50.401  13.857  21.795  0.00  0.00     0.020 A 
ATOM      7  C   UNL d   1     -50.299  15.220  22.698  0.00  0.00     0.008 A 
ATOM      8  C   UNL d   1     -51.013  15.038  22.316  0.00  0.00     0.001 A 
ATOM      9  C   UNL d   1     -51.064  14.356  21.864  0.00  0.00     0.002 A 
ENDROOT
BRANCH   2  10
ATOM     10  C   UNL d   1     -47.684  13.933  22.856  0.00  0.00     0.152 C 
BRANCH  10  11
ATOM     11  O   UNL d   1     -47.461  13.131  22.946  0.00  0.00    -0.269 OA
BRANCH  11  12
ATOM     12  C   UNL d   1     -46.716  12.940  23.288  0.00  0.00     0.306 C 
ATOM     13  O   UNL d   1     -46.197  13.549  23.504  0.00  0.00    -0.258 OA
BRANCH  12  14
ATOM     14  C   UNL d   1     -46.490  12.130  23.414  0.00  0.00     0.093 A 
ATOM     15  S   UNL d   1     -46.915  11.489  23.698  0.00  0.00    -0.081 SA
ATOM     16  C   UNL d   1     -46.401  10.840  23.697  0.00  0.00     0.036 A 
ATOM     17  C   UNL d   1     -45.683  11.083  23.418  0.00  0.00     0.008 A 
ATOM     18  C   UNL d   1     -45.728  11.883  23.240  0.00  0.00     0.012 A 
ENDBRANCH  12  14
ENDBRANCH  11  12
ENDBRANCH  10  11
ENDBRANCH   2  10
TORSDOF 4
ENDMDL
MODEL 2
REMARK VINA RESULT:      -5.6      1.164      1.351
REMARK  4 active torsions:
REMARK  status: ('A' for Active; 'I' for Inactive)
REMARK    1  A    between atoms: C_14  and  C_2 
REMARK    2  A    between atoms: C_4  and  C_5 
REMARK    3  A    between atoms: C_5  and  O_9 
REMARK    4  A    between atoms: O_9  and  C_14 
ROOT
ATOM      1  N   UNL d   1     -48.944  13.157  22.483  0.00  0.00    -0.236 NA
ATOM      2  C   UNL d   1     -48.553  13.822  22.747  0.00  0.00     0.136 A 
ATOM      3  S   UNL d   1     -49.046  14.484  22.622  0.00  0.00    -0.064 SA
ATOM      4  C   UNL d   1     -49.682  13.397  22.193  0.00  0.00     0.088 A 
ATOM      5  C   UNL d   1     -49.746  14.208  22.278  0.00  0.00     0.049 A 
ATOM      6  C   UNL d   1     -50.303  12.967  21.862  0.00  0.00     0.020 A 
ATOM      7  C   UNL d   1     -50.436  14.591  22.029  0.00  0.00     0.008 A 
ATOM      8  C   UNL d   1     -51.064  14.164  21.694  0.00  0.00     0.001 A 
ATOM      9  C   UNL d   1     -50.998  13.351  21.611  0.00  0.00     0.002 A 
ENDROOT
BRANCH   2  10
ATOM     10  C   UNL d   1     -47.809  13.871  23.079  0.00  0.00     0.152 C 
BRANCH  10  11
ATOM     11  O   UNL d   1     -47.174  13.522  22.660  0.00  0.00    -0.269 OA
BRANCH  11  12
ATOM     12  C   UNL d   1     -46.392  13.578  22.967  0.00  0.00     0.306 C 
ATOM     13  O   UNL d   1     -46.253  14.010  23.661  0.00  0.00    -0.258 OA
BRANCH  12  14
ATOM     14  C   UNL d   1     -45.742  13.195  22.573  0.00  0.00     0.093 A 
ATOM     15  S   UNL d   1     -45.507  12.410  22.558  0.00  0.00    -0.081 SA
ATOM     16  C   UNL d   1     -44.833  12.370  22.079  0.00  0.00     0.036 A 
ATOM     17  C   UNL d   1     -44.665  13.113  21.811  0.00  0.00     0.008 A 
ATOM     18  C   UNL d   1     -45.224  13.633  22.113  0.00  0.00     0.012 A 
ENDBRANCH  12  14
ENDBRANCH  11  12
ENDBRANCH  10  11
ENDBRANCH   2  10
TORSDOF 4
ENDMDL
MODEL 3
REMARK VINA RESULT:      -5.4      8.816      9.814
REMARK  4 active torsions:
REMARK  status: ('A' for Active; 'I' for Inactive)
REMARK    1  A    between atoms: C_14  and  C_2 
REMARK    2  A    between atoms: C_4  and  C_5 
REMARK    3  A    between atoms: C_5  and  O_9 
REMARK    4  A    between atoms: O_9  and  C_14 
ROOT
ATOM      1  N   UNL d   1     -40.055  15.411  20.860  0.00  0.00    -0.236 NA
ATOM      2  C   UNL d   1     -40.063  14.672  20.515  0.00  0.00     0.136 A 
ATOM      3  S   UNL d   1     -39.635  14.149  21.005  0.00  0.00    -0.064 SA
ATOM      4  C   UNL d   1     -39.625  15.356  21.566  0.00  0.00     0.088 A 
ATOM      5  C   UNL d   1     -39.367  14.584  21.655  0.00  0.00     0.049 A 
ATOM      6  C   UNL d   1     -39.438  15.922  22.136  0.00  0.00     0.020 A 
ATOM      7  C   UNL d   1     -38.920  14.378  22.321  0.00  0.00     0.008 A 
ATOM      8  C   UNL d   1     -38.729  14.943  22.898  0.00  0.00     0.001 A 
ATOM      9  C   UNL d   1     -38.988  15.715  22.806  0.00  0.00     0.002 A 
ENDROOT
BRANCH   2  10
ATOM     10  C   UNL d   1     -40.416  14.447  19.815  0.00  0.00     0.152 C 
BRANCH  10  11
ATOM     11  O   UNL d   1     -40.170  14.833  19.115  0.00  0.00    -0.269 OA
BRANCH  11  12
ATOM     12  C   UNL d   1     -40.494  14.600  18.374  0.00  0.00     0.306 C 
ATOM     13  O   UNL d   1     -40.942  13.904  18.323  0.00  0.00    -0.258 OA
BRANCH  12  14
ATOM     14  C   UNL d   1     -40.368  15.071  17.676  0.00  0.00     0.093 A 
ATOM     15  S   UNL d   1     -39.678  15.297  17.295  0.00  0.00    -0.081 SA
ATOM     16  C   UNL d   1     -39.902  15.754  16.643  0.00  0.00     0.036 A 
ATOM     17  C   UNL d   1     -40.708  15.803  16.630  0.00  0.00     0.008 A 
ATOM     18  C   UNL d   1     -41.007  15.382  17.268  0.00  0.00     0.012 A 
ENDBRANCH  12  14
ENDBRANCH  11  12
ENDBRANCH  10  11
ENDBRANCH   2  10
TORSDOF 4
ENDMDL
MODEL 4
REMARK VINA RESULT:      -5.4      8.688     10.182
REMARK  4 active torsions:
REMARK  status: ('A' for Active; 'I' for Inactive)
REMARK    1  A    between atoms: C_14  and  C_2 
REMARK    2  A    between atoms: C_4  and  C_5 
REMARK    3  A    between atoms: C_5  and  O_9 
REMARK    4  A    between atoms: O_9  and  C_14 
ROOT
ATOM      1  N   UNL d   1     -39.299  13.465  18.156  0.00  0.00    -0.236 NA
ATOM      2  C   UNL d   1     -39.812  14.090  18.270  0.00  0.00     0.136 A 
ATOM      3  S   UNL d   1     -39.772  14.587  17.600  0.00  0.00    -0.064 SA
ATOM      4  C   UNL d   1     -38.937  13.567  17.418  0.00  0.00     0.088 A 
ATOM      5  C   UNL d   1     -39.226  14.253  17.077  0.00  0.00     0.049 A 
ATOM      6  C   UNL d   1     -38.377  13.112  17.018  0.00  0.00     0.020 A 
ATOM      7  C   UNL d   1     -38.952  14.484  16.331  0.00  0.00     0.008 A 
ATOM      8  C   UNL d   1     -38.388  14.031  15.924  0.00  0.00     0.001 A 
ATOM      9  C   UNL d   1     -38.100  13.345  16.268  0.00  0.00     0.002 A 
ENDROOT
BRANCH   2  10
ATOM     10  C   UNL d   1     -40.293  14.235  18.912  0.00  0.00     0.152 C 
BRANCH  10  11
ATOM     11  O   UNL d   1     -39.934  14.531  19.608  0.00  0.00    -0.269 OA
BRANCH  11  12
ATOM     12  C   UNL d   1     -40.392  14.617  20.309  0.00  0.00     0.306 C 
ATOM     13  O   UNL d   1     -41.150  14.285  20.347  0.00  0.00    -0.258 OA
BRANCH  12  14
ATOM     14  C   UNL d   1     -40.085  15.043  20.978  0.00  0.00     0.093 A 
ATOM     15  S   UNL d   1     -40.157  15.830  21.198  0.00  0.00    -0.081 SA
ATOM     16  C   UNL d   1     -39.738  15.922  21.905  0.00  0.00     0.036 A 
ATOM     17  C   UNL d   1     -39.419  15.208  22.108  0.00  0.00     0.008 A 
ATOM     18  C   UNL d   1     -39.629  14.655  21.539  0.00  0.00     0.012 A 
ENDBRANCH  12  14
ENDBRANCH  11  12
ENDBRANCH  10  11
ENDBRANCH   2  10
TORSDOF 4
ENDMDL
MODEL 5
REMARK VINA RESULT:      -5.4      8.974      9.913
REMARK  4 active torsions:
REMARK  status: ('A' for Active; 'I' for Inactive)
REMARK    1  A    between atoms: C_14  and  C_2 
REMARK    2  A    between atoms: C_4  and  C_5 
REMARK    3  A    between atoms: C_5  and  O_9 
REMARK    4  A    between atoms: O_9  and  C_14 
ROOT
ATOM      1  N   UNL d   1     -39.748  14.139  20.818  0.00  0.00    -0.236 NA
ATOM      2  C   UNL d   1     -40.037  14.667  20.267  0.00  0.00     0.136 A 
ATOM      3  S   UNL d   1     -39.991  15.435  20.590  0.00  0.00    -0.064 SA
ATOM      4  C   UNL d   1     -39.522  14.572  21.487  0.00  0.00     0.088 A 
ATOM      5  C   UNL d   1     -39.670  15.365  21.348  0.00  0.00     0.049 A 
ATOM      6  C   UNL d   1     -39.197  14.333  22.207  0.00  0.00     0.020 A 
ATOM      7  C   UNL d   1     -39.491  15.922  21.934  0.00  0.00     0.008 A 
ATOM      8  C   UNL d   1     -39.164  15.687  22.661  0.00  0.00     0.001 A 
ATOM      9  C   UNL d   1     -39.017  14.892  22.797  0.00  0.00     0.002 A 
ENDROOT
BRANCH   2  10
ATOM     10  C   UNL d   1     -40.326  14.508  19.521  0.00  0.00     0.152 C 
BRANCH  10  11
ATOM     11  O   UNL d   1     -39.772  14.340  18.917  0.00  0.00    -0.269 OA
BRANCH  11  12
ATOM     12  C   UNL d   1     -40.043  14.137  18.146  0.00  0.00     0.306 C 
ATOM     13  O   UNL d   1     -40.841  13.944  18.030  0.00  0.00    -0.258 OA
BRANCH  12  14
ATOM     14  C   UNL d   1     -39.508  14.130  17.485  0.00  0.00     0.093 A 
ATOM     15  S   UNL d   1     -39.396  14.666  16.875  0.00  0.00    -0.081 SA
ATOM     16  C   UNL d   1     -38.796  14.361  16.393  0.00  0.00     0.036 A 
ATOM     17  C   UNL d   1     -38.552  13.657  16.705  0.00  0.00     0.008 A 
ATOM     18  C   UNL d   1     -38.989  13.504  17.383  0.00  0.00     0.012 A 
ENDBRANCH  12  14
ENDBRANCH  11  12
ENDBRANCH  10  11
ENDBRANCH   2  10
TORSDOF 4
ENDMDL
MODEL 6
REMARK VINA RESULT:      -5.2      1.720      2.643
REMARK  4 active torsions:
REMARK  status: ('A' for Active; 'I' for Inactive)
REMARK    1  A    between atoms: C_14  and  C_2 
REMARK    2  A    between atoms: C_4  and  C_5 
REMARK    3  A    between atoms: C_5  and  O_9 
REMARK    4  A    between atoms: O_9  and  C_14 
ROOT
ATOM      1  N   UNL d   1     -46.498  13.300  23.097  0.00  0.00    -0.236 NA
ATOM      2  C   UNL d   1     -46.937  12.660  23.347  0.00  0.00     0.136 A 
ATOM      3  S   UNL d   1     -47.746  12.855  23.284  0.00  0.00    -0.064 SA
ATOM      4  C   UNL d   1     -47.027  13.898  22.876  0.00  0.00     0.088 A 
ATOM      5  C   UNL d   1     -47.791  13.627  22.990  0.00  0.00     0.049 A 
ATOM      6  C   UNL d   1     -46.899  14.659  22.584  0.00  0.00     0.020 A 
ATOM      7  C   UNL d   1     -48.430  14.121  22.810  0.00  0.00     0.008 A 
ATOM      8  C   UNL d   1     -48.307  14.888  22.516  0.00  0.00     0.001 A 
ATOM      9  C   UNL d   1     -47.541  15.157  22.403  0.00  0.00     0.002 A 
ENDROOT
BRANCH   2  10
ATOM     10  C   UNL d   1     -46.668  11.939  23.618  0.00  0.00     0.152 C 
BRANCH  10  11
ATOM     11  O   UNL d   1     -45.907  11.692  23.371  0.00  0.00    -0.269 OA
BRANCH  11  12
ATOM     12  C   UNL d   1     -45.661  10.898  23.509  0.00  0.00     0.306 C 
ATOM     13  O   UNL d   1     -46.226  10.320  23.693  0.00  0.00    -0.258 OA
BRANCH  12  14
ATOM     14  C   UNL d   1     -44.840  10.683  23.462  0.00  0.00     0.093 A 
ATOM     15  S   UNL d   1     -44.183  11.110  23.218  0.00  0.00    -0.081 SA
ATOM     16  C   UNL d   1     -43.529  10.609  23.295  0.00  0.00     0.036 A 
ATOM     17  C   UNL d   1     -43.784   9.897  23.577  0.00  0.00     0.008 A 
ATOM     18  C   UNL d   1     -44.597   9.933  23.685  0.00  0.00     0.012 A 
ENDBRANCH  12  14
ENDBRANCH  11  12
ENDBRANCH  10  11
ENDBRANCH   2  10
TORSDOF 4
ENDMDL
MODEL 7
REMARK VINA RESULT:      -4.9      8.956      9.254
REMARK  4 active torsions:
REMARK  status: ('A' for Active; 'I' for Inactive)
REMARK    1  A    between atoms: C_14  and  C_2 
REMARK    2  A    between atoms: C_4  and  C_5 
REMARK    3  A    between atoms: C_5  and  O_9 
REMARK    4  A    between atoms: O_9  and  C_14 
ROOT
ATOM      1  N   UNL d   1     -39.910  14.792  19.134  0.00  0.00    -0.236 NA
ATOM      2  C   UNL d   1     -40.189  15.396  19.606  0.00  0.00     0.136 A 
ATOM      3  S   UNL d   1     -40.632  15.919  19.130  0.00  0.00    -0.064 SA
ATOM      4  C   UNL d   1     -40.176  14.932  18.363  0.00  0.00     0.088 A 
ATOM      5  C   UNL d   1     -40.618  15.621  18.359  0.00  0.00     0.049 A 
ATOM      6  C   UNL d   1     -40.066  14.509  17.663  0.00  0.00     0.020 A 
ATOM      7  C   UNL d   1     -40.951  15.888  17.649  0.00  0.00     0.008 A 
ATOM      8  C   UNL d   1     -40.843  15.466  16.942  0.00  0.00     0.001 A 
ATOM      9  C   UNL d   1     -40.400  14.777  16.949  0.00  0.00     0.002 A 
ENDROOT
BRANCH   2  10
ATOM     10  C   UNL d   1     -40.074  15.504  20.407  0.00  0.00     0.152 C 
BRANCH  10  11
ATOM     11  O   UNL d   1     -39.630  14.924  20.816  0.00  0.00    -0.269 OA
BRANCH  11  12
ATOM     12  C   UNL d   1     -39.485  15.015  21.641  0.00  0.00     0.306 C 
ATOM     13  O   UNL d   1     -39.819  15.656  22.047  0.00  0.00    -0.258 OA
BRANCH  12  14
ATOM     14  C   UNL d   1     -39.001  14.457  22.061  0.00  0.00     0.093 A 
ATOM     15  S   UNL d   1     -38.246  14.526  22.375  0.00  0.00    -0.081 SA
ATOM     16  C   UNL d   1     -38.062  13.797  22.722  0.00  0.00     0.036 A 
ATOM     17  C   UNL d   1     -38.690  13.300  22.619  0.00  0.00     0.008 A 
ATOM     18  C   UNL d   1     -39.278  13.700  22.210  0.00  0.00     0.012 A 
ENDBRANCH  12  14
ENDBRANCH  11  12
ENDBRANCH  10  11
ENDBRANCH   2  10
TORSDOF 4
ENDMDL
MODEL 8
REMARK VINA RESULT:      -4.5      1.533      4.968
REMARK  4 active torsions:
REMARK  status: ('A' for Active; 'I' for Inactive)
REMARK    1  A    between atoms: C_14  and  C_2 
REMARK    2  A    between atoms: C_4  and  C_5 
REMARK    3  A    between atoms: C_5  and  O_9 
REMARK    4  A    between atoms: O_9  and  C_14 
ROOT
ATOM      1  N   UNL d   1     -45.753  11.946  23.333  0.00  0.00    -0.236 NA
ATOM      2  C   UNL d   1     -46.464  11.596  23.527  0.00  0.00     0.136 A 
ATOM      3  S   UNL d   1     -46.324  10.790  23.692  0.00  0.00    -0.064 SA
ATOM      4  C   UNL d   1     -45.166  11.363  23.374  0.00  0.00     0.088 A 
ATOM      5  C   UNL d   1     -45.514  10.656  23.593  0.00  0.00     0.049 A 
ATOM      6  C   UNL d   1     -44.353  11.398  23.236  0.00  0.00     0.020 A 
ATOM      7  C   UNL d   1     -45.045   9.979  23.675  0.00  0.00     0.008 A 
ATOM      8  C   UNL d   1     -44.226  10.007  23.537  0.00  0.00     0.001 A 
ATOM      9  C   UNL d   1     -43.881  10.717  23.318  0.00  0.00     0.002 A 
ENDROOT
BRANCH   2  10
ATOM     10  C   UNL d   1     -47.202  11.942  23.565  0.00  0.00     0.152 C 
BRANCH  10  11
ATOM     11  O   UNL d   1     -47.431  12.439  22.931  0.00  0.00    -0.269 OA
BRANCH  11  12
ATOM     12  C   UNL d   1     -48.241  12.645  22.834  0.00  0.00     0.306 C 
ATOM     13  O   UNL d   1     -48.830  12.093  23.023  0.00  0.00    -0.258 OA
BRANCH  12  14
ATOM     14  C   UNL d   1     -48.462  13.413  22.544  0.00  0.00     0.093 A 
ATOM     15  S   UNL d   1     -48.852  13.640  21.859  0.00  0.00    -0.081 SA
ATOM     16  C   UNL d   1     -48.911  14.465  21.878  0.00  0.00     0.036 A 
ATOM     17  C   UNL d   1     -48.566  14.731  22.558  0.00  0.00     0.008 A 
ATOM     18  C   UNL d   1     -48.284  14.084  22.979  0.00  0.00     0.012 A 
ENDBRANCH  12  14
ENDBRANCH  11  12
ENDBRANCH  10  11
ENDBRANCH   2  10
TORSDOF 4
ENDMDL
