MODEL 1
REMARK VINA RESULT:      -2.5      0.000      0.000
REMARK  1 active torsions:
REMARK  status: ('A' for Active; 'I' for Inactive)
REMARK    1  A    between atoms: N_3  and  C_1 
ROOT
ATOM      1  C   UNL d   1      29.981  16.018 -23.837  0.00  0.00     0.158 A 
ATOM      2  C   UNL d   1      29.556  16.651 -24.159  0.00  0.00     0.103 A 
ATOM      3  C   UNL d   1      29.935  17.215 -24.630  0.00  0.00     0.104 C 
ATOM      4  N   UNL d   1      30.318  17.773 -25.097  0.00  0.00    -0.191 NA
ATOM      5  N   UNL d   1      29.596  15.459 -23.368  0.00  0.00    -0.226 NA
ATOM      6  C   UNL d   1      28.748  16.723 -24.011  0.00  0.00     0.015 A 
ATOM      7  C   UNL d   1      28.790  15.531 -23.221  0.00  0.00     0.101 A 
ATOM      8  C   UNL d   1      28.365  16.165 -23.543  0.00  0.00     0.021 A 
ENDROOT
BRANCH   1   9
ATOM      9  N   UNL d   1      30.785  15.948 -23.986  0.00  0.00    -0.286 N 
ATOM     10  C   UNL d   1      31.330  16.313 -23.480  0.00  0.00     0.102 A 
ATOM     11  C   UNL d   1      32.133  16.243 -23.629  0.00  0.00     0.118 A 
ATOM     12  N   UNL d   1      32.401  15.815 -24.275  0.00  0.00    -0.239 NA
ATOM     13  C   UNL d   1      31.858  15.453 -24.778  0.00  0.00     0.118 A 
ATOM     14  C   UNL d   1      31.049  15.518 -24.634  0.00  0.00     0.102 A 
ENDBRANCH   1   9
TORSDOF 1
ENDMDL
MODEL 2
REMARK VINA RESULT:      -2.4      1.051      1.769
REMARK  1 active torsions:
REMARK  status: ('A' for Active; 'I' for Inactive)
REMARK    1  A    between atoms: N_3  and  C_1 
ROOT
ATOM      1  C   UNL d   1      30.389  17.157 -24.459  0.00  0.00     0.158 A 
ATOM      2  C   UNL d   1      30.015  16.571 -24.011  0.00  0.00     0.103 A 
ATOM      3  C   UNL d   1      30.460  16.009 -23.600  0.00  0.00     0.104 C 
ATOM      4  N   UNL d   1      30.909  15.452 -23.193  0.00  0.00    -0.191 NA
ATOM      5  N   UNL d   1      29.937  17.715 -24.867  0.00  0.00    -0.226 NA
ATOM      6  C   UNL d   1      29.191  16.544 -23.971  0.00  0.00     0.015 A 
ATOM      7  C   UNL d   1      29.116  17.687 -24.827  0.00  0.00     0.101 A 
ATOM      8  C   UNL d   1      28.742  17.101 -24.378  0.00  0.00     0.021 A 
ENDROOT
BRANCH   1   9
ATOM      9  N   UNL d   1      31.208  17.182 -24.497  0.00  0.00    -0.286 N 
ATOM     10  C   UNL d   1      31.631  17.652 -23.962  0.00  0.00     0.102 A 
ATOM     11  C   UNL d   1      32.449  17.676 -24.000  0.00  0.00     0.118 A 
ATOM     12  N   UNL d   1      32.852  17.239 -24.564  0.00  0.00    -0.239 NA
ATOM     13  C   UNL d   1      32.432  16.771 -25.097  0.00  0.00     0.118 A 
ATOM     14  C   UNL d   1      31.608  16.742 -25.064  0.00  0.00     0.102 A 
ENDBRANCH   1   9
TORSDOF 1
ENDMDL
MODEL 3
REMARK VINA RESULT:      -2.4      0.998      2.493
REMARK  1 active torsions:
REMARK  status: ('A' for Active; 'I' for Inactive)
REMARK    1  A    between atoms: N_3  and  C_1 
ROOT
ATOM      1  C   UNL d   1      30.490  16.532 -24.070  0.00  0.00     0.158 A 
ATOM      2  C   UNL d   1      30.596  17.294 -24.376  0.00  0.00     0.103 A 
ATOM      3  C   UNL d   1      29.964  17.699 -24.723  0.00  0.00     0.104 C 
ATOM      4  N   UNL d   1      29.332  18.096 -25.065  0.00  0.00    -0.191 NA
ATOM      5  N   UNL d   1      31.126  16.134 -23.726  0.00  0.00    -0.226 NA
ATOM      6  C   UNL d   1      31.337  17.654 -24.338  0.00  0.00     0.015 A 
ATOM      7  C   UNL d   1      31.864  16.495 -23.688  0.00  0.00     0.101 A 
ATOM      8  C   UNL d   1      31.970  17.257 -23.995  0.00  0.00     0.021 A 
ENDROOT
BRANCH   1   9
ATOM      9  N   UNL d   1      29.752  16.175 -24.109  0.00  0.00    -0.286 N 
ATOM     10  C   UNL d   1      29.255  16.184 -23.447  0.00  0.00     0.102 A 
ATOM     11  C   UNL d   1      28.518  15.827 -23.487  0.00  0.00     0.118 A 
ATOM     12  N   UNL d   1      28.270  15.462 -24.178  0.00  0.00    -0.239 NA
ATOM     13  C   UNL d   1      28.765  15.454 -24.837  0.00  0.00     0.118 A 
ATOM     14  C   UNL d   1      29.507  15.810 -24.804  0.00  0.00     0.102 A 
ENDBRANCH   1   9
TORSDOF 1
ENDMDL
MODEL 4
REMARK VINA RESULT:      -2.3      1.140      2.940
REMARK  1 active torsions:
REMARK  status: ('A' for Active; 'I' for Inactive)
REMARK    1  A    between atoms: N_3  and  C_1 
ROOT
ATOM      1  C   UNL d   1      30.541  16.978 -24.559  0.00  0.00     0.158 A 
ATOM      2  C   UNL d   1      31.191  16.768 -24.092  0.00  0.00     0.103 A 
ATOM      3  C   UNL d   1      31.154  16.110 -23.593  0.00  0.00     0.104 C 
ATOM      4  N   UNL d   1      31.112  15.455 -23.099  0.00  0.00    -0.191 NA
ATOM      5  N   UNL d   1      30.585  17.637 -25.055  0.00  0.00    -0.226 NA
ATOM      6  C   UNL d   1      31.883  17.216 -24.123  0.00  0.00     0.015 A 
ATOM      7  C   UNL d   1      31.276  18.083 -25.085  0.00  0.00     0.101 A 
ATOM      8  C   UNL d   1      31.926  17.872 -24.618  0.00  0.00     0.021 A 
ENDROOT
BRANCH   1   9
ATOM      9  N   UNL d   1      29.853  16.531 -24.527  0.00  0.00    -0.286 N 
ATOM     10  C   UNL d   1      29.749  15.899 -25.051  0.00  0.00     0.102 A 
ATOM     11  C   UNL d   1      29.063  15.453 -25.019  0.00  0.00     0.118 A 
ATOM     12  N   UNL d   1      28.478  15.628 -24.470  0.00  0.00    -0.239 NA
ATOM     13  C   UNL d   1      28.582  16.257 -23.949  0.00  0.00     0.118 A 
ATOM     14  C   UNL d   1      29.271  16.710 -23.976  0.00  0.00     0.102 A 
ENDBRANCH   1   9
TORSDOF 1
ENDMDL
MODEL 5
REMARK VINA RESULT:      -2.3      1.376      1.785
REMARK  1 active torsions:
REMARK  status: ('A' for Active; 'I' for Inactive)
REMARK    1  A    between atoms: N_3  and  C_1 
ROOT
ATOM      1  C   UNL d   1      31.324  16.618 -23.869  0.00  0.00     0.158 A 
ATOM      2  C   UNL d   1      30.534  16.687 -24.105  0.00  0.00     0.103 A 
ATOM      3  C   UNL d   1      30.295  17.303 -24.601  0.00  0.00     0.104 C 
ATOM      4  N   UNL d   1      30.063  17.918 -25.095  0.00  0.00    -0.191 NA
ATOM      5  N   UNL d   1      31.555  16.001 -23.373  0.00  0.00    -0.226 NA
ATOM      6  C   UNL d   1      29.977  16.137 -23.843  0.00  0.00     0.015 A 
ATOM      7  C   UNL d   1      30.999  15.453 -23.113  0.00  0.00     0.101 A 
ATOM      8  C   UNL d   1      30.208  15.521 -23.348  0.00  0.00     0.021 A 
ENDROOT
BRANCH   1   9
ATOM      9  N   UNL d   1      31.877  17.166 -24.131  0.00  0.00    -0.286 N 
ATOM     10  C   UNL d   1      32.032  17.842 -23.678  0.00  0.00     0.102 A 
ATOM     11  C   UNL d   1      32.583  18.389 -23.940  0.00  0.00     0.118 A 
ATOM     12  N   UNL d   1      32.983  18.272 -24.646  0.00  0.00    -0.239 NA
ATOM     13  C   UNL d   1      32.828  17.599 -25.096  0.00  0.00     0.118 A 
ATOM     14  C   UNL d   1      32.275  17.044 -24.839  0.00  0.00     0.102 A 
ENDBRANCH   1   9
TORSDOF 1
ENDMDL
MODEL 6
REMARK VINA RESULT:      -2.2      6.270      7.111
REMARK  1 active torsions:
REMARK  status: ('A' for Active; 'I' for Inactive)
REMARK    1  A    between atoms: N_3  and  C_1 
ROOT
ATOM      1  C   UNL d   1      32.826  21.491 -21.441  0.00  0.00     0.158 A 
ATOM      2  C   UNL d   1      33.075  21.556 -22.228  0.00  0.00     0.103 A 
ATOM      3  C   UNL d   1      33.159  22.298 -22.582  0.00  0.00     0.104 C 
ATOM      4  N   UNL d   1      33.241  23.039 -22.929  0.00  0.00    -0.191 NA
ATOM      5  N   UNL d   1      32.744  20.746 -21.095  0.00  0.00    -0.226 NA
ATOM      6  C   UNL d   1      33.240  20.876 -22.665  0.00  0.00     0.015 A 
ATOM      7  C   UNL d   1      32.910  20.069 -21.532  0.00  0.00     0.101 A 
ATOM      8  C   UNL d   1      33.158  20.134 -22.319  0.00  0.00     0.021 A 
ENDROOT
BRANCH   1   9
ATOM      9  N   UNL d   1      32.662  22.168 -21.008  0.00  0.00    -0.286 N 
ATOM     10  C   UNL d   1      33.237  22.483 -20.502  0.00  0.00     0.102 A 
ATOM     11  C   UNL d   1      33.073  23.159 -20.070  0.00  0.00     0.118 A 
ATOM     12  N   UNL d   1      32.343  23.527 -20.134  0.00  0.00    -0.239 NA
ATOM     13  C   UNL d   1      31.770  23.213 -20.637  0.00  0.00     0.118 A 
ATOM     14  C   UNL d   1      31.929  22.533 -21.075  0.00  0.00     0.102 A 
ENDBRANCH   1   9
TORSDOF 1
ENDMDL
