MODEL 1
REMARK VINA RESULT:      -4.2      0.000      0.000
REMARK  3 active torsions:
REMARK  status: ('A' for Active; 'I' for Inactive)
REMARK    1  A    between atoms: C_10  and  C_4 
REMARK    2  A    between atoms: C_11  and  C_7 
REMARK    3  A    between atoms: C_12  and  C_10 
ROOT
ATOM      1  N   UNL d   1     -41.423-122.409 -51.365  0.00  0.00    -0.186 N 
ATOM      2  N   UNL d   1     -41.538-122.761 -52.116  0.00  0.00    -0.162 NA
ATOM      3  C   UNL d   1     -41.211-121.604 -51.324  0.00  0.00     0.217 A 
ATOM      4  C   UNL d   1     -41.474-122.697 -50.604  0.00  0.00     0.187 A 
ATOM      5  N   UNL d   1     -41.298-122.087 -50.082  0.00  0.00    -0.127 NA
ATOM      6  N   UNL d   1     -41.139-121.421 -50.525  0.00  0.00    -0.120 NA
ATOM      7  C   UNL d   1     -41.445-122.319 -52.801  0.00  0.00     0.108 A 
ATOM      8  S   UNL d   1     -41.123-121.178 -52.021  0.00  0.00    -0.045 SA
ATOM      9  C   UNL d   1     -41.233-121.513 -52.760  0.00  0.00     0.059 A 
ENDROOT
BRANCH   4  10
ATOM     10  C   UNL d   1     -41.664-123.456 -50.374  0.00  0.00     0.041 C 
BRANCH  10  11
ATOM     11  C   UNL d   1     -42.093-123.575 -49.696  0.00  0.00     0.003 A 
ATOM     12  C   UNL d   1     -41.715-123.661 -48.972  0.00  0.00     0.000 A 
ATOM     13  C   UNL d   1     -42.142-123.782 -48.276  0.00  0.00     0.000 A 
ATOM     14  C   UNL d   1     -42.955-123.816 -48.313  0.00  0.00     0.000 A 
ATOM     15  C   UNL d   1     -43.336-123.731 -49.035  0.00  0.00     0.000 A 
ATOM     16  C   UNL d   1     -42.917-123.611 -49.722  0.00  0.00     0.000 A 
ENDBRANCH  10  11
ENDBRANCH   4  10
BRANCH   7  17
ATOM     17  C   UNL d   1     -41.561-122.677 -53.540  0.00  0.00     0.020 A 
ATOM     18  C   UNL d   1     -41.200-123.404 -53.711  0.00  0.00     0.002 A 
ATOM     19  C   UNL d   1     -41.310-123.773 -54.450  0.00  0.00     0.000 A 
ATOM     20  C   UNL d   1     -41.792-123.401 -55.023  0.00  0.00     0.000 A 
ATOM     21  C   UNL d   1     -42.150-122.685 -54.859  0.00  0.00     0.000 A 
ATOM     22  C   UNL d   1     -42.039-122.315 -54.116  0.00  0.00     0.002 A 
ENDBRANCH   7  17
TORSDOF 3
ENDMDL
MODEL 2
REMARK VINA RESULT:      -3.9      0.892      4.443
REMARK  3 active torsions:
REMARK  status: ('A' for Active; 'I' for Inactive)
REMARK    1  A    between atoms: C_10  and  C_4 
REMARK    2  A    between atoms: C_11  and  C_7 
REMARK    3  A    between atoms: C_12  and  C_10 
ROOT
ATOM      1  N   UNL d   1     -41.730-121.893 -51.964  0.00  0.00    -0.186 N 
ATOM      2  N   UNL d   1     -41.992-122.409 -51.360  0.00  0.00    -0.162 NA
ATOM      3  C   UNL d   1     -41.299-121.211 -51.756  0.00  0.00     0.217 A 
ATOM      4  C   UNL d   1     -41.806-121.907 -52.776  0.00  0.00     0.187 A 
ATOM      5  N   UNL d   1     -41.431-121.244 -53.084  0.00  0.00    -0.127 NA
ATOM      6  N   UNL d   1     -41.123-120.821 -52.458  0.00  0.00    -0.120 NA
ATOM      7  C   UNL d   1     -41.827-122.245 -50.573  0.00  0.00     0.108 A 
ATOM      8  S   UNL d   1     -41.144-121.064 -50.963  0.00  0.00    -0.045 SA
ATOM      9  C   UNL d   1     -41.396-121.563 -50.363  0.00  0.00     0.059 A 
ENDROOT
BRANCH   4  10
ATOM     10  C   UNL d   1     -42.185-122.470 -53.228  0.00  0.00     0.041 C 
BRANCH  10  11
ATOM     11  C   UNL d   1     -42.118-122.448 -54.036  0.00  0.00     0.003 A 
ATOM     12  C   UNL d   1     -42.616-121.974 -54.485  0.00  0.00     0.000 A 
ATOM     13  C   UNL d   1     -42.556-121.945 -55.307  0.00  0.00     0.000 A 
ATOM     14  C   UNL d   1     -41.989-122.399 -55.678  0.00  0.00     0.000 A 
ATOM     15  C   UNL d   1     -41.490-122.874 -55.232  0.00  0.00     0.000 A 
ATOM     16  C   UNL d   1     -41.547-122.904 -54.421  0.00  0.00     0.000 A 
ENDBRANCH  10  11
ENDBRANCH   4  10
BRANCH   7  17
ATOM     17  C   UNL d   1     -42.091-122.763 -49.981  0.00  0.00     0.020 A 
ATOM     18  C   UNL d   1     -42.885-122.750 -49.741  0.00  0.00     0.002 A 
ATOM     19  C   UNL d   1     -43.162-123.265 -49.148  0.00  0.00     0.000 A 
ATOM     20  C   UNL d   1     -42.626-123.801 -48.793  0.00  0.00     0.000 A 
ATOM     21  C   UNL d   1     -41.843-123.817 -49.025  0.00  0.00     0.000 A 
ATOM     22  C   UNL d   1     -41.567-123.299 -49.622  0.00  0.00     0.002 A 
ENDBRANCH   7  17
TORSDOF 3
ENDMDL
MODEL 3
REMARK VINA RESULT:      -2.4      1.370      2.006
REMARK  3 active torsions:
REMARK  status: ('A' for Active; 'I' for Inactive)
REMARK    1  A    between atoms: C_10  and  C_4 
REMARK    2  A    between atoms: C_11  and  C_7 
REMARK    3  A    between atoms: C_12  and  C_10 
ROOT
ATOM      1  N   UNL d   1     -41.728-122.841 -52.511  0.00  0.00    -0.186 N 
ATOM      2  N   UNL d   1     -41.982-122.430 -53.194  0.00  0.00    -0.162 NA
ATOM      3  C   UNL d   1     -41.291-123.545 -52.600  0.00  0.00     0.217 A 
ATOM      4  C   UNL d   1     -41.817-122.697 -51.713  0.00  0.00     0.187 A 
ATOM      5  N   UNL d   1     -41.444-123.299 -51.296  0.00  0.00    -0.127 NA
ATOM      6  N   UNL d   1     -41.125-123.815 -51.841  0.00  0.00    -0.120 NA
ATOM      7  C   UNL d   1     -41.803-122.718 -53.942  0.00  0.00     0.108 A 
ATOM      8  S   UNL d   1     -41.123-123.817 -53.356  0.00  0.00    -0.045 SA
ATOM      9  C   UNL d   1     -41.367-123.423 -54.032  0.00  0.00     0.059 A 
ENDROOT
BRANCH   4  10
ATOM     10  C   UNL d   1     -42.205-122.070 -51.364  0.00  0.00     0.041 C 
BRANCH  10  11
ATOM     11  C   UNL d   1     -42.586-122.178 -50.656  0.00  0.00     0.003 A 
ATOM     12  C   UNL d   1     -43.407-122.178 -50.618  0.00  0.00     0.000 A 
ATOM     13  C   UNL d   1     -43.804-122.287 -49.903  0.00  0.00     0.000 A 
ATOM     14  C   UNL d   1     -43.368-122.396 -49.222  0.00  0.00     0.000 A 
ATOM     15  C   UNL d   1     -42.549-122.398 -49.257  0.00  0.00     0.000 A 
ATOM     16  C   UNL d   1     -42.155-122.291 -49.961  0.00  0.00     0.000 A 
ENDBRANCH  10  11
ENDBRANCH   4  10
BRANCH   7  17
ATOM     17  C   UNL d   1     -42.059-122.303 -54.614  0.00  0.00     0.020 A 
ATOM     18  C   UNL d   1     -42.819-122.439 -54.921  0.00  0.00     0.002 A 
ATOM     19  C   UNL d   1     -43.087-122.029 -55.594  0.00  0.00     0.000 A 
ATOM     20  C   UNL d   1     -42.579-121.475 -55.962  0.00  0.00     0.000 A 
ATOM     21  C   UNL d   1     -41.831-121.338 -55.663  0.00  0.00     0.000 A 
ATOM     22  C   UNL d   1     -41.563-121.751 -54.986  0.00  0.00     0.002 A 
ENDBRANCH   7  17
TORSDOF 3
ENDMDL
