MODEL 1
REMARK VINA RESULT:       1.3      0.000      0.000
REMARK  10 active torsions:
REMARK  status: ('A' for Active; 'I' for Inactive)
REMARK    1  A    between atoms: N_9  and  C_1 
REMARK    2  A    between atoms: C_4  and  S_21 
REMARK    3  A    between atoms: C_23  and  C_8 
REMARK       I    between atoms: C_19  and  N_9 
REMARK    4  A    between atoms: O_26  and  C_10 
REMARK    5  A    between atoms: C_11  and  C_12 
REMARK       I    between atoms: C_12  and  N_20 
REMARK    6  A    between atoms: O_27  and  C_13 
REMARK    7  A    between atoms: O_28  and  C_14 
REMARK    8  A    between atoms: C_25  and  C_19 
REMARK    9  A    between atoms: N_20  and  C_23 
REMARK   10  A    between atoms: S_21  and  C_25 
ROOT
ATOM      1  O   UNL d   1      57.754  -8.598  29.811  0.00  0.00    -0.262 OA
ATOM      2  C   UNL d   1      57.645  -8.618  28.987  0.00  0.00     0.236 A 
ATOM      3  N   UNL d   1      57.268  -9.321  28.803  0.00  0.00    -0.114 NA
ATOM      4  N   UNL d   1      57.143  -9.735  29.504  0.00  0.00    -0.119 NA
ATOM      5  C   UNL d   1      57.443  -9.290  30.124  0.00  0.00     0.224 A 
ENDROOT
BRANCH   5   6
ATOM      6  C   UNL d   1      57.432  -9.502  30.921  0.00  0.00     0.149 C 
BRANCH   6   7
ATOM      7  N   UNL d   1      58.107  -9.423  31.383  0.00  0.00    -0.203 NA
ATOM      8  C   UNL d   1      58.071  -9.574  32.196  0.00  0.00     0.279 C 
ATOM      9  O   UNL d   1      57.364  -9.802  32.546  0.00  0.00    -0.265 OA
BRANCH   8  10
ATOM     10  C   UNL d   1      58.754  -9.493  32.656  0.00  0.00     0.062 A 
ATOM     11  C   UNL d   1      58.688  -9.442  33.483  0.00  0.00     0.031 A 
ATOM     12  C   UNL d   1      59.368  -9.362  33.927  0.00  0.00     0.118 A 
ATOM     13  C   UNL d   1      60.101  -9.332  33.580  0.00  0.00     0.138 A 
ATOM     14  C   UNL d   1      60.156  -9.384  32.747  0.00  0.00     0.118 A 
ATOM     15  C   UNL d   1      59.472  -9.464  32.300  0.00  0.00     0.031 A 
BRANCH  12  16
ATOM     16  O   UNL d   1      59.316  -9.310  34.755  0.00  0.00    -0.326 OA
ATOM     17  C   UNL d   1      58.568  -9.252  35.112  0.00  0.00     0.181 C 
ENDBRANCH  12  16
BRANCH  13  18
ATOM     18  O   UNL d   1      60.784  -9.252  34.023  0.00  0.00    -0.324 OA
ATOM     19  C   UNL d   1      61.132  -8.502  34.124  0.00  0.00     0.182 C 
ENDBRANCH  13  18
BRANCH  14  20
ATOM     20  O   UNL d   1      60.903  -9.353  32.384  0.00  0.00    -0.326 OA
ATOM     21  C   UNL d   1      61.014  -9.644  31.628  0.00  0.00     0.181 C 
ENDBRANCH  14  20
ENDBRANCH   8  10
ENDBRANCH   6   7
ENDBRANCH   5   6
BRANCH   2  22
ATOM     22  S   UNL d   1      57.877  -8.031  28.457  0.00  0.00    -0.036 SA
BRANCH  22  23
ATOM     23  C   UNL d   1      57.584  -7.272  28.529  0.00  0.00     0.101 C 
BRANCH  23  24
ATOM     24  C   UNL d   1      58.107  -6.616  28.530  0.00  0.00     0.288 C 
ATOM     25  N   UNL d   1      57.802  -5.849  28.545  0.00  0.00    -0.182 NA
ATOM     26  O   UNL d   1      58.916  -6.737  28.516  0.00  0.00    -0.265 OA
BRANCH  25  27
ATOM     27  C   UNL d   1      58.312  -5.194  28.546  0.00  0.00     0.197 A 
ATOM     28  N   UNL d   1      58.074  -4.402  28.472  0.00  0.00    -0.221 NA
ATOM     29  C   UNL d   1      58.753  -3.931  28.500  0.00  0.00     0.090 A 
ATOM     30  C   UNL d   1      58.864  -3.123  28.456  0.00  0.00     0.020 A 
ATOM     31  C   UNL d   1      59.413  -4.438  28.592  0.00  0.00     0.050 A 
ATOM     32  C   UNL d   1      59.623  -2.795  28.501  0.00  0.00     0.002 A 
ATOM     33  C   UNL d   1      60.275  -3.302  28.592  0.00  0.00     0.001 A 
ATOM     34  C   UNL d   1      60.165  -4.111  28.636  0.00  0.00     0.008 A 
ATOM     35  S   UNL d   1      59.138  -5.219  28.620  0.00  0.00    -0.047 SA
ENDBRANCH  25  27
ENDBRANCH  23  24
ENDBRANCH  22  23
ENDBRANCH   2  22
TORSDOF 10
ENDMDL
MODEL 2
REMARK VINA RESULT:       4.0      6.115      8.575
REMARK  10 active torsions:
REMARK  status: ('A' for Active; 'I' for Inactive)
REMARK    1  A    between atoms: N_9  and  C_1 
REMARK    2  A    between atoms: C_4  and  S_21 
REMARK    3  A    between atoms: C_23  and  C_8 
REMARK       I    between atoms: C_19  and  N_9 
REMARK    4  A    between atoms: O_26  and  C_10 
REMARK    5  A    between atoms: C_11  and  C_12 
REMARK       I    between atoms: C_12  and  N_20 
REMARK    6  A    between atoms: O_27  and  C_13 
REMARK    7  A    between atoms: O_28  and  C_14 
REMARK    8  A    between atoms: C_25  and  C_19 
REMARK    9  A    between atoms: N_20  and  C_23 
REMARK   10  A    between atoms: S_21  and  C_25 
ROOT
ATOM      1  O   UNL d   1      59.336   0.652  31.516  0.00  0.00    -0.262 OA
ATOM      2  C   UNL d   1      59.962   0.472  31.000  0.00  0.00     0.236 A 
ATOM      3  N   UNL d   1      60.608   0.262  31.457  0.00  0.00    -0.114 NA
ATOM      4  N   UNL d   1      60.388   0.312  32.249  0.00  0.00    -0.119 NA
ATOM      5  C   UNL d   1      59.606   0.552  32.285  0.00  0.00     0.224 A 
ENDROOT
BRANCH   5   6
ATOM      6  C   UNL d   1      59.167   0.671  32.973  0.00  0.00     0.149 C 
BRANCH   6   7
ATOM      7  N   UNL d   1      58.358   0.528  32.983  0.00  0.00    -0.203 NA
ATOM      8  C   UNL d   1      57.960   0.454  33.704  0.00  0.00     0.279 C 
ATOM      9  O   UNL d   1      58.368   0.523  34.414  0.00  0.00    -0.265 OA
BRANCH   8  10
ATOM     10  C   UNL d   1      57.145   0.311  33.707  0.00  0.00     0.062 A 
ATOM     11  C   UNL d   1      56.786  -0.036  33.043  0.00  0.00     0.031 A 
ATOM     12  C   UNL d   1      55.982  -0.173  33.057  0.00  0.00     0.118 A 
ATOM     13  C   UNL d   1      55.529   0.021  33.702  0.00  0.00     0.138 A 
ATOM     14  C   UNL d   1      55.900   0.369  34.366  0.00  0.00     0.118 A 
ATOM     15  C   UNL d   1      56.709   0.507  34.352  0.00  0.00     0.031 A 
BRANCH  12  16
ATOM     16  O   UNL d   1      55.611  -0.519  32.398  0.00  0.00    -0.326 OA
ATOM     17  C   UNL d   1      55.831  -1.285  32.165  0.00  0.00     0.181 C 
ENDBRANCH  12  16
BRANCH  13  18
ATOM     18  O   UNL d   1      54.723  -0.115  33.718  0.00  0.00    -0.324 OA
ATOM     19  C   UNL d   1      54.195   0.512  33.869  0.00  0.00     0.182 C 
ENDBRANCH  13  18
BRANCH  14  20
ATOM     20  O   UNL d   1      55.444   0.571  35.030  0.00  0.00    -0.326 OA
ATOM     21  C   UNL d   1      55.793   0.682  35.761  0.00  0.00     0.181 C 
ENDBRANCH  14  20
ENDBRANCH   8  10
ENDBRANCH   6   7
ENDBRANCH   5   6
BRANCH   2  22
ATOM     22  S   UNL d   1      59.931   0.501  30.176  0.00  0.00    -0.036 SA
BRANCH  22  23
ATOM     23  C   UNL d   1      59.246   0.293  29.784  0.00  0.00     0.101 C 
BRANCH  23  24
ATOM     24  C   UNL d   1      59.171  -0.468  29.438  0.00  0.00     0.288 C 
ATOM     25  N   UNL d   1      59.263  -1.141  29.908  0.00  0.00    -0.182 NA
ATOM     26  O   UNL d   1      59.009  -0.541  28.640  0.00  0.00    -0.265 OA
BRANCH  25  27
ATOM     27  C   UNL d   1      59.191  -1.898  29.574  0.00  0.00     0.197 A 
ATOM     28  N   UNL d   1      59.819  -2.426  29.444  0.00  0.00    -0.221 NA
ATOM     29  C   UNL d   1      59.506  -3.111  29.105  0.00  0.00     0.090 A 
ATOM     30  C   UNL d   1      59.851  -3.810  28.859  0.00  0.00     0.020 A 
ATOM     31  C   UNL d   1      58.680  -3.005  29.026  0.00  0.00     0.050 A 
ATOM     32  C   UNL d   1      59.393  -4.418  28.531  0.00  0.00     0.002 A 
ATOM     33  C   UNL d   1      58.573  -4.307  28.455  0.00  0.00     0.001 A 
ATOM     34  C   UNL d   1      58.227  -3.608  28.701  0.00  0.00     0.008 A 
ATOM     35  S   UNL d   1      58.487  -2.253  29.317  0.00  0.00    -0.047 SA
ENDBRANCH  25  27
ENDBRANCH  23  24
ENDBRANCH  22  23
ENDBRANCH   2  22
TORSDOF 10
ENDMDL
