MODEL 1
REMARK VINA RESULT:      -4.4      0.000      0.000
REMARK  2 active torsions:
REMARK  status: ('A' for Active; 'I' for Inactive)
REMARK    1  A    between atoms: C_5  and  C_1 
REMARK    2  A    between atoms: C_10  and  N_4 
ROOT
ATOM      1  N   UNL d   1      58.572  -1.362  29.755  0.00  0.00    -0.273 N 
ATOM      2  C   UNL d   1      57.817  -0.589  30.554  0.00  0.00     0.057 A 
ATOM      3  C   UNL d   1      58.424  -0.646  29.360  0.00  0.00     0.265 A 
ATOM      4  C   UNL d   1      58.199  -1.323  30.485  0.00  0.00     0.086 A 
ATOM      5  C   UNL d   1      57.962  -0.174  29.850  0.00  0.00     0.066 A 
ATOM      6  O   UNL d   1      58.699  -0.451  28.604  0.00  0.00    -0.267 OA
ENDROOT
BRANCH   2   7
ATOM      7  C   UNL d   1      57.392  -0.370  31.216  0.00  0.00     0.149 A 
ATOM      8  N   UNL d   1      56.658  -0.580  31.440  0.00  0.00    -0.227 NA
ATOM      9  C   UNL d   1      56.481  -0.206  32.157  0.00  0.00     0.099 A 
ATOM     10  C   UNL d   1      55.815  -0.224  32.629  0.00  0.00     0.021 A 
ATOM     11  C   UNL d   1      57.130   0.240  32.366  0.00  0.00     0.083 A 
ATOM     12  C   UNL d   1      55.810   0.223  33.330  0.00  0.00     0.002 A 
ATOM     13  C   UNL d   1      56.460   0.669  33.538  0.00  0.00     0.002 A 
ATOM     14  C   UNL d   1      57.134   0.682  33.052  0.00  0.00     0.019 A 
ATOM     15  N   UNL d   1      57.701   0.137  31.775  0.00  0.00    -0.288 N 
ATOM     16  C   UNL d   1      58.460   0.487  31.753  0.00  0.00     0.101 C 
ENDBRANCH   2   7
BRANCH   1  17
ATOM     17  C   UNL d   1      59.012  -1.962  29.438  0.00  0.00     0.067 A 
ATOM     18  C   UNL d   1      59.821  -1.879  29.364  0.00  0.00     0.018 A 
ATOM     19  C   UNL d   1      60.285  -2.486  29.041  0.00  0.00     0.001 A 
ATOM     20  C   UNL d   1      61.086  -2.388  28.975  0.00  0.00     0.000 C 
ATOM     21  C   UNL d   1      59.915  -3.191  28.788  0.00  0.00     0.000 A 
ATOM     22  C   UNL d   1      59.106  -3.275  28.861  0.00  0.00     0.002 A 
ATOM     23  C   UNL d   1      60.380  -3.820  28.455  0.00  0.00     0.000 C 
ATOM     24  C   UNL d   1      58.651  -2.660  29.187  0.00  0.00     0.018 A 
ENDBRANCH   1  17
TORSDOF 2
ENDMDL
MODEL 2
REMARK VINA RESULT:      -4.3      0.835      4.867
REMARK  2 active torsions:
REMARK  status: ('A' for Active; 'I' for Inactive)
REMARK    1  A    between atoms: C_5  and  C_1 
REMARK    2  A    between atoms: C_10  and  N_4 
ROOT
ATOM      1  N   UNL d   1      57.637  -0.460  30.816  0.00  0.00    -0.273 N 
ATOM      2  C   UNL d   1      58.508  -0.919  29.902  0.00  0.00     0.057 A 
ATOM      3  C   UNL d   1      57.591   0.028  30.145  0.00  0.00     0.265 A 
ATOM      4  C   UNL d   1      58.200  -1.037  30.663  0.00  0.00     0.086 A 
ATOM      5  C   UNL d   1      58.124  -0.255  29.586  0.00  0.00     0.066 A 
ATOM      6  O   UNL d   1      57.090   0.682  30.063  0.00  0.00    -0.267 OA
ENDROOT
BRANCH   2   7
ATOM      7  C   UNL d   1      59.083  -1.399  29.575  0.00  0.00     0.149 A 
ATOM      8  N   UNL d   1      59.852  -1.250  29.437  0.00  0.00    -0.227 NA
ATOM      9  C   UNL d   1      60.197  -1.920  29.096  0.00  0.00     0.099 A 
ATOM     10  C   UNL d   1      60.960  -2.071  28.847  0.00  0.00     0.021 A 
ATOM     11  C   UNL d   1      59.615  -2.487  29.030  0.00  0.00     0.083 A 
ATOM     12  C   UNL d   1      61.133  -2.815  28.521  0.00  0.00     0.002 A 
ATOM     13  C   UNL d   1      60.551  -3.382  28.455  0.00  0.00     0.002 A 
ATOM     14  C   UNL d   1      59.777  -3.221  28.712  0.00  0.00     0.019 A 
ATOM     15  N   UNL d   1      58.917  -2.159  29.330  0.00  0.00    -0.288 N 
ATOM     16  C   UNL d   1      58.172  -2.537  29.376  0.00  0.00     0.101 C 
ENDBRANCH   2   7
BRANCH   1  17
ATOM     17  C   UNL d   1      57.189  -0.347  31.480  0.00  0.00     0.067 A 
ATOM     18  C   UNL d   1      56.719  -0.953  31.761  0.00  0.00     0.018 A 
ATOM     19  C   UNL d   1      56.253  -0.853  32.440  0.00  0.00     0.001 A 
ATOM     20  C   UNL d   1      55.793  -1.463  32.706  0.00  0.00     0.000 C 
ATOM     21  C   UNL d   1      56.268  -0.119  32.840  0.00  0.00     0.000 A 
ATOM     22  C   UNL d   1      56.738   0.487  32.559  0.00  0.00     0.002 A 
ATOM     23  C   UNL d   1      55.796  -0.003  33.537  0.00  0.00     0.000 C 
ATOM     24  C   UNL d   1      57.201   0.376  31.877  0.00  0.00     0.018 A 
ENDBRANCH   1  17
TORSDOF 2
ENDMDL
MODEL 3
REMARK VINA RESULT:      -4.0      1.815      2.297
REMARK  2 active torsions:
REMARK  status: ('A' for Active; 'I' for Inactive)
REMARK    1  A    between atoms: C_5  and  C_1 
REMARK    2  A    between atoms: C_10  and  N_4 
ROOT
ATOM      1  N   UNL d   1      57.781  -0.360  30.770  0.00  0.00    -0.273 N 
ATOM      2  C   UNL d   1      56.936  -0.443  31.811  0.00  0.00     0.057 A 
ATOM      3  C   UNL d   1      57.510  -1.144  30.822  0.00  0.00     0.265 A 
ATOM      4  C   UNL d   1      57.428   0.065  31.376  0.00  0.00     0.086 A 
ATOM      5  C   UNL d   1      56.992  -1.193  31.460  0.00  0.00     0.066 A 
ATOM      6  O   UNL d   1      57.729  -1.760  30.315  0.00  0.00    -0.267 OA
ENDROOT
BRANCH   2   7
ATOM      7  C   UNL d   1      56.500  -0.196  32.455  0.00  0.00     0.149 A 
ATOM      8  N   UNL d   1      55.712  -0.124  32.539  0.00  0.00    -0.227 NA
ATOM      9  C   UNL d   1      55.548   0.149  33.303  0.00  0.00     0.099 A 
ATOM     10  C   UNL d   1      54.843   0.318  33.679  0.00  0.00     0.021 A 
ATOM     11  C   UNL d   1      56.261   0.243  33.686  0.00  0.00     0.083 A 
ATOM     12  C   UNL d   1      54.866   0.589  34.464  0.00  0.00     0.002 A 
ATOM     13  C   UNL d   1      55.579   0.682  34.848  0.00  0.00     0.002 A 
ATOM     14  C   UNL d   1      56.292   0.508  34.457  0.00  0.00     0.019 A 
ATOM     15  N   UNL d   1      56.857   0.026  33.154  0.00  0.00    -0.288 N 
ATOM     16  C   UNL d   1      57.680   0.032  33.303  0.00  0.00     0.101 C 
ENDBRANCH   2   7
BRANCH   1  17
ATOM     17  C   UNL d   1      58.301  -0.106  30.204  0.00  0.00     0.067 A 
ATOM     18  C   UNL d   1      59.098  -0.268  30.283  0.00  0.00     0.018 A 
ATOM     19  C   UNL d   1      59.644  -0.014  29.711  0.00  0.00     0.001 A 
ATOM     20  C   UNL d   1      60.430  -0.183  29.803  0.00  0.00     0.000 C 
ATOM     21  C   UNL d   1      59.369   0.413  29.048  0.00  0.00     0.000 A 
ATOM     22  C   UNL d   1      58.573   0.576  28.969  0.00  0.00     0.002 A 
ATOM     23  C   UNL d   1      59.918   0.679  28.456  0.00  0.00     0.000 C 
ATOM     24  C   UNL d   1      58.035   0.316  29.548  0.00  0.00     0.018 A 
ENDBRANCH   1  17
TORSDOF 2
ENDMDL
MODEL 4
REMARK VINA RESULT:      -2.1      2.273      5.114
REMARK  2 active torsions:
REMARK  status: ('A' for Active; 'I' for Inactive)
REMARK    1  A    between atoms: C_5  and  C_1 
REMARK    2  A    between atoms: C_10  and  N_4 
ROOT
ATOM      1  N   UNL d   1      56.582  -0.354  32.395  0.00  0.00    -0.273 N 
ATOM      2  C   UNL d   1      57.311  -0.433  31.269  0.00  0.00     0.057 A 
ATOM      3  C   UNL d   1      56.562  -1.140  32.128  0.00  0.00     0.265 A 
ATOM      4  C   UNL d   1      57.041   0.075  31.868  0.00  0.00     0.086 A 
ATOM      5  C   UNL d   1      57.009  -1.188  31.438  0.00  0.00     0.066 A 
ATOM      6  O   UNL d   1      56.160  -1.761  32.499  0.00  0.00    -0.267 OA
ENDROOT
BRANCH   2   7
ATOM      7  C   UNL d   1      57.784  -0.182  30.653  0.00  0.00     0.149 A 
ATOM      8  N   UNL d   1      57.605  -0.080  29.884  0.00  0.00    -0.227 NA
ATOM      9  C   UNL d   1      58.281   0.183  29.485  0.00  0.00     0.099 A 
ATOM     10  C   UNL d   1      58.410   0.372  28.702  0.00  0.00     0.021 A 
ATOM     11  C   UNL d   1      58.881   0.240  30.034  0.00  0.00     0.083 A 
ATOM     12  C   UNL d   1      59.167   0.625  28.472  0.00  0.00     0.002 A 
ATOM     13  C   UNL d   1      59.767   0.682  29.021  0.00  0.00     0.002 A 
ATOM     14  C   UNL d   1      59.627   0.487  29.817  0.00  0.00     0.019 A 
ATOM     15  N   UNL d   1      58.568   0.011  30.766  0.00  0.00    -0.288 N 
ATOM     16  C   UNL d   1      58.980  -0.019  31.493  0.00  0.00     0.101 C 
ENDBRANCH   2   7
BRANCH   1  17
ATOM     17  C   UNL d   1      56.201  -0.101  33.063  0.00  0.00     0.067 A 
ATOM     18  C   UNL d   1      55.409   0.095  33.030  0.00  0.00     0.018 A 
ATOM     19  C   UNL d   1      55.005   0.355  33.707  0.00  0.00     0.001 A 
ATOM     20  C   UNL d   1      54.220   0.546  33.658  0.00  0.00     0.000 C 
ATOM     21  C   UNL d   1      55.419   0.416  34.430  0.00  0.00     0.000 A 
ATOM     22  C   UNL d   1      56.211   0.221  34.463  0.00  0.00     0.002 A 
ATOM     23  C   UNL d   1      55.016   0.682  35.130  0.00  0.00     0.000 C 
ATOM     24  C   UNL d   1      56.606  -0.039  33.779  0.00  0.00     0.018 A 
ENDBRANCH   1  17
TORSDOF 2
ENDMDL
