MODEL 1
REMARK VINA RESULT:      -0.2      0.000      0.000
REMARK  6 active torsions:
REMARK  status: ('A' for Active; 'I' for Inactive)
REMARK    1  A    between atoms: C_8  and  C_1 
REMARK    2  A    between atoms: C_13  and  N_2 
REMARK    3  A    between atoms: C_7  and  C_4 
REMARK    4  A    between atoms: C_6  and  C_8 
REMARK    5  A    between atoms: C_22  and  C_13 
REMARK    6  A    between atoms: N_18  and  C_22 
ROOT
ATOM      1  C   UNL d   1      31.837  18.121 -24.159  0.00  0.00     0.103 A 
ATOM      2  N   UNL d   1      30.739  17.360 -24.253  0.00  0.00    -0.267 N 
ATOM      3  C   UNL d   1      31.235  18.584 -24.487  0.00  0.00     0.256 A 
ATOM      4  C   UNL d   1      31.530  17.371 -24.016  0.00  0.00     0.096 A 
ATOM      5  C   UNL d   1      30.557  18.114 -24.545  0.00  0.00     0.304 A 
ATOM      6  O   UNL d   1      29.825  18.356 -24.843  0.00  0.00    -0.263 OA
ATOM      7  O   UNL d   1      31.289  19.371 -24.718  0.00  0.00    -0.281 OA
ENDROOT
BRANCH   1   8
ATOM      8  C   UNL d   1      32.606  18.374 -24.005  0.00  0.00     0.223 C 
ATOM      9  O   UNL d   1      33.240  18.051 -24.431  0.00  0.00    -0.284 OA
BRANCH   8  10
ATOM     10  C   UNL d   1      32.750  18.948 -23.427  0.00  0.00     0.139 A 
ATOM     11  O   UNL d   1      32.806  18.815 -22.613  0.00  0.00    -0.304 OA
ATOM     12  C   UNL d   1      32.952  19.533 -22.248  0.00  0.00     0.100 A 
ATOM     13  C   UNL d   1      33.059  19.749 -21.477  0.00  0.00     0.025 A 
ATOM     14  C   UNL d   1      32.988  20.114 -22.835  0.00  0.00     0.025 A 
ATOM     15  C   UNL d   1      33.199  20.522 -21.268  0.00  0.00     0.002 A 
ATOM     16  C   UNL d   1      33.236  21.104 -21.850  0.00  0.00     0.000 A 
ATOM     17  C   UNL d   1      33.128  20.888 -22.634  0.00  0.00     0.002 A 
ATOM     18  C   UNL d   1      32.862  19.744 -23.565  0.00  0.00     0.030 A 
ENDBRANCH   8  10
ENDBRANCH   1   8
BRANCH   4  19
ATOM     19  C   UNL d   1      31.948  16.731 -23.689  0.00  0.00     0.116 A 
ATOM     20  O   UNL d   1      32.159  16.560 -22.919  0.00  0.00    -0.306 OA
ATOM     21  C   UNL d   1      32.568  15.853 -22.917  0.00  0.00     0.100 A 
ATOM     22  C   UNL d   1      32.880  15.483 -22.249  0.00  0.00     0.027 C 
ATOM     23  C   UNL d   1      32.612  15.580 -23.695  0.00  0.00     0.027 A 
ATOM     24  C   UNL d   1      32.228  16.124 -24.173  0.00  0.00     0.028 A 
ENDBRANCH   4  19
BRANCH   2  25
ATOM     25  C   UNL d   1      30.228  16.725 -24.209  0.00  0.00     0.102 C 
BRANCH  25  26
ATOM     26  C   UNL d   1      29.505  16.748 -24.606  0.00  0.00     0.100 C 
BRANCH  26  27
ATOM     27  N   UNL d   1      28.862  16.316 -24.321  0.00  0.00    -0.298 N 
ATOM     28  C   UNL d   1      28.291  16.038 -24.839  0.00  0.00     0.107 A 
ATOM     29  C   UNL d   1      27.647  15.607 -24.561  0.00  0.00     0.142 A 
ATOM     30  O   UNL d   1      27.576  15.453 -23.759  0.00  0.00    -0.300 OA
ATOM     31  C   UNL d   1      28.147  15.729 -23.230  0.00  0.00     0.142 A 
ATOM     32  C   UNL d   1      28.792  16.163 -23.518  0.00  0.00     0.107 A 
ENDBRANCH  26  27
ENDBRANCH  25  26
ENDBRANCH   2  25
TORSDOF 6
ENDMDL
MODEL 2
REMARK VINA RESULT:       2.3      1.549      5.000
REMARK  6 active torsions:
REMARK  status: ('A' for Active; 'I' for Inactive)
REMARK    1  A    between atoms: C_8  and  C_1 
REMARK    2  A    between atoms: C_13  and  N_2 
REMARK    3  A    between atoms: C_7  and  C_4 
REMARK    4  A    between atoms: C_6  and  C_8 
REMARK    5  A    between atoms: C_22  and  C_13 
REMARK    6  A    between atoms: N_18  and  C_22 
ROOT
ATOM      1  C   UNL d   1      32.397  17.369 -23.468  0.00  0.00     0.103 A 
ATOM      2  N   UNL d   1      32.948  18.275 -22.650  0.00  0.00    -0.267 N 
ATOM      3  C   UNL d   1      32.587  16.988 -22.759  0.00  0.00     0.256 A 
ATOM      4  C   UNL d   1      32.620  18.159 -23.398  0.00  0.00     0.096 A 
ATOM      5  C   UNL d   1      32.927  17.547 -22.254  0.00  0.00     0.304 A 
ATOM      6  O   UNL d   1      33.198  17.404 -21.486  0.00  0.00    -0.263 OA
ATOM      7  O   UNL d   1      32.464  16.196 -22.577  0.00  0.00    -0.281 OA
ENDROOT
BRANCH   1   8
ATOM      8  C   UNL d   1      32.047  17.015 -24.124  0.00  0.00     0.223 C 
ATOM      9  O   UNL d   1      32.522  16.729 -24.741  0.00  0.00    -0.284 OA
BRANCH   8  10
ATOM     10  C   UNL d   1      31.225  16.942 -24.172  0.00  0.00     0.139 A 
ATOM     11  O   UNL d   1      30.740  17.280 -24.749  0.00  0.00    -0.304 OA
ATOM     12  C   UNL d   1      29.966  17.067 -24.587  0.00  0.00     0.100 A 
ATOM     13  C   UNL d   1      29.262  17.228 -24.949  0.00  0.00     0.025 A 
ATOM     14  C   UNL d   1      29.969  16.596 -23.908  0.00  0.00     0.025 A 
ATOM     15  C   UNL d   1      28.560  16.937 -24.660  0.00  0.00     0.002 A 
ATOM     16  C   UNL d   1      28.559  16.467 -23.983  0.00  0.00     0.000 A 
ATOM     17  C   UNL d   1      29.272  16.302 -23.613  0.00  0.00     0.002 A 
ATOM     18  C   UNL d   1      30.754  16.522 -23.655  0.00  0.00     0.030 A 
ENDBRANCH   8  10
ENDBRANCH   1   8
BRANCH   4  19
ATOM     19  C   UNL d   1      32.530  18.741 -23.985  0.00  0.00     0.116 A 
ATOM     20  O   UNL d   1      31.969  19.326 -24.084  0.00  0.00    -0.306 OA
ATOM     21  C   UNL d   1      32.152  19.743 -24.763  0.00  0.00     0.100 A 
ATOM     22  C   UNL d   1      31.723  20.381 -25.062  0.00  0.00     0.027 C 
ATOM     23  C   UNL d   1      32.835  19.413 -25.090  0.00  0.00     0.027 A 
ATOM     24  C   UNL d   1      33.069  18.793 -24.608  0.00  0.00     0.028 A 
ENDBRANCH   4  19
BRANCH   2  25
ATOM     25  C   UNL d   1      33.241  18.976 -22.351  0.00  0.00     0.102 C 
BRANCH  25  26
ATOM     26  C   UNL d   1      33.180  19.141 -21.545  0.00  0.00     0.100 C 
BRANCH  26  27
ATOM     27  N   UNL d   1      33.192  19.921 -21.280  0.00  0.00    -0.298 N 
ATOM     28  C   UNL d   1      33.218  20.539 -21.818  0.00  0.00     0.107 A 
ATOM     29  C   UNL d   1      33.230  21.321 -21.560  0.00  0.00     0.142 A 
ATOM     30  O   UNL d   1      33.215  21.484 -20.757  0.00  0.00    -0.300 OA
ATOM     31  C   UNL d   1      33.189  20.868 -20.207  0.00  0.00     0.142 A 
ATOM     32  C   UNL d   1      33.177  20.083 -20.475  0.00  0.00     0.107 A 
ENDBRANCH  26  27
ENDBRANCH  25  26
ENDBRANCH   2  25
TORSDOF 6
ENDMDL
