MODEL 1
REMARK VINA RESULT:      -1.5      0.000      0.000
REMARK  1 active torsions:
REMARK  status: ('A' for Active; 'I' for Inactive)
REMARK    1  A    between atoms: C_9  and  C_3 
ROOT
ATOM      1  C   UNL d   1     -41.471-122.396 -51.939  0.00  0.00     0.035 A 
ATOM      2  N   UNL d   1     -41.739-123.817 -52.316  0.00  0.00    -0.239 NA
ATOM      3  C   UNL d   1     -41.646-123.172 -51.779  0.00  0.00     0.083 A 
ATOM      4  N   UNL d   1     -41.347-122.384 -53.451  0.00  0.00    -0.207 NA
ATOM      5  C   UNL d   1     -41.336-122.040 -52.688  0.00  0.00     0.086 A 
ATOM      6  C   UNL d   1     -41.496-123.171 -53.649  0.00  0.00     0.298 A 
ATOM      7  C   UNL d   1     -41.433-121.960 -51.270  0.00  0.00     0.003 A 
ATOM      8  C   UNL d   1     -41.672-123.810 -53.130  0.00  0.00     0.161 A 
ATOM      9  C   UNL d   1     -41.163-121.237 -52.735  0.00  0.00     0.019 A 
ATOM     10  O   UNL d   1     -41.468-123.351 -54.471  0.00  0.00    -0.263 OA
ATOM     11  C   UNL d   1     -41.258-121.142 -51.313  0.00  0.00     0.000 A 
ATOM     12  C   UNL d   1     -41.123-120.786 -52.055  0.00  0.00     0.002 A 
ATOM     13  C   UNL d   1     -41.223-120.699 -50.581  0.00  0.00     0.000 C 
ENDROOT
BRANCH   3  14
ATOM     14  C   UNL d   1     -41.748-123.353 -50.992  0.00  0.00     0.018 A 
ATOM     15  C   UNL d   1     -41.123-123.616 -50.537  0.00  0.00     0.002 A 
ATOM     16  C   UNL d   1     -41.235-123.803 -49.719  0.00  0.00     0.000 A 
ATOM     17  C   UNL d   1     -41.989-123.713 -49.395  0.00  0.00     0.000 A 
ATOM     18  C   UNL d   1     -42.612-123.449 -49.859  0.00  0.00     0.000 A 
ATOM     19  C   UNL d   1     -42.488-123.268 -50.665  0.00  0.00     0.002 A 
ENDBRANCH   3  14
TORSDOF 1
ENDMDL
MODEL 2
REMARK VINA RESULT:       0.4      1.377      2.951
REMARK  1 active torsions:
REMARK  status: ('A' for Active; 'I' for Inactive)
REMARK    1  A    between atoms: C_9  and  C_3 
ROOT
ATOM      1  C   UNL d   1     -41.501-122.116 -51.973  0.00  0.00     0.035 A 
ATOM      2  N   UNL d   1     -41.820-123.573 -52.062  0.00  0.00    -0.239 NA
ATOM      3  C   UNL d   1     -41.683-122.799 -52.370  0.00  0.00     0.083 A 
ATOM      4  N   UNL d   1     -41.463-122.570 -50.525  0.00  0.00    -0.207 NA
ATOM      5  C   UNL d   1     -41.401-122.010 -51.144  0.00  0.00     0.086 A 
ATOM      6  C   UNL d   1     -41.640-123.374 -50.585  0.00  0.00     0.298 A 
ATOM      7  C   UNL d   1     -41.416-121.499 -52.473  0.00  0.00     0.003 A 
ATOM      8  C   UNL d   1     -41.799-123.817 -51.283  0.00  0.00     0.161 A 
ATOM      9  C   UNL d   1     -41.215-121.267 -50.846  0.00  0.00     0.019 A 
ATOM     10  O   UNL d   1     -41.663-123.797 -49.857  0.00  0.00    -0.263 OA
ATOM     11  C   UNL d   1     -41.226-120.740 -52.173  0.00  0.00     0.000 A 
ATOM     12  C   UNL d   1     -41.127-120.632 -51.352  0.00  0.00     0.002 A 
ATOM     13  C   UNL d   1     -41.141-120.096 -52.731  0.00  0.00     0.000 C 
ENDROOT
BRANCH   3  14
ATOM     14  C   UNL d   1     -41.743-122.728 -53.179  0.00  0.00     0.018 A 
ATOM     15  C   UNL d   1     -42.407-122.401 -53.525  0.00  0.00     0.002 A 
ATOM     16  C   UNL d   1     -42.462-122.330 -54.367  0.00  0.00     0.000 A 
ATOM     17  C   UNL d   1     -41.832-122.599 -54.826  0.00  0.00     0.000 A 
ATOM     18  C   UNL d   1     -41.169-122.927 -54.472  0.00  0.00     0.000 A 
ATOM     19  C   UNL d   1     -41.126-122.991 -53.639  0.00  0.00     0.002 A 
ENDBRANCH   3  14
TORSDOF 1
ENDMDL
