MODEL 1
REMARK VINA RESULT:       8.8      0.000      0.000
REMARK  3 active torsions:
REMARK  status: ('A' for Active; 'I' for Inactive)
REMARK    1  A    between atoms: C_8  and  C_1 
REMARK    2  A    between atoms: C_9  and  C_8 
REMARK    3  A    between atoms: O_16  and  C_13 
ROOT
ATOM      1  C   UNL d   1      44.948 -13.255  44.041  0.00  0.00     0.013 A 
ATOM      2  C   UNL d   1      45.849 -14.139  44.729  0.00  0.00     0.105 A 
ATOM      3  O   UNL d   1      46.303 -13.497  44.951  0.00  0.00    -0.273 OA
ATOM      4  C   UNL d   1      45.161 -14.022  44.268  0.00  0.00     0.023 A 
ATOM      5  C   UNL d   1      46.087 -12.734  44.722  0.00  0.00     0.300 A 
ATOM      6  C   UNL d   1      45.411 -12.614  44.268  0.00  0.00     0.069 A 
ATOM      7  C   UNL d   1      46.058 -14.893  44.952  0.00  0.00     0.049 A 
ATOM      8  C   UNL d   1      44.702 -14.663  44.043  0.00  0.00     0.004 A 
ATOM      9  O   UNL d   1      46.561 -12.081  44.955  0.00  0.00    -0.259 OA
ATOM     10  C   UNL d   1      45.593 -15.546  44.725  0.00  0.00     0.096 A 
ATOM     11  C   UNL d   1      44.920 -15.430  44.273  0.00  0.00     0.024 A 
ENDROOT
BRANCH   1  12
ATOM     12  C   UNL d   1      44.269 -13.144  43.586  0.00  0.00     0.070 C 
BRANCH  12  13
ATOM     13  C   UNL d   1      44.299 -12.639  42.932  0.00  0.00     0.211 C 
ATOM     14  O   UNL d   1      43.691 -12.081  42.811  0.00  0.00    -0.644 OA
ATOM     15  O   UNL d   1      44.925 -12.683  42.397  0.00  0.00    -0.644 OA
ENDBRANCH  12  13
ENDBRANCH   1  12
BRANCH  10  16
ATOM     16  O   UNL d   1      45.812 -16.306  44.955  0.00  0.00    -0.328 OA
ATOM     17  C   UNL d   1      45.952 -16.888  44.382  0.00  0.00     0.181 C 
ENDBRANCH  10  16
TORSDOF 3
ENDMDL
MODEL 2
REMARK VINA RESULT:      10.8      4.300      6.045
REMARK  3 active torsions:
REMARK  status: ('A' for Active; 'I' for Inactive)
REMARK    1  A    between atoms: C_8  and  C_1 
REMARK    2  A    between atoms: C_9  and  C_8 
REMARK    3  A    between atoms: O_16  and  C_13 
ROOT
ATOM      1  C   UNL d   1      46.297 -19.251  43.375  0.00  0.00     0.013 A 
ATOM      2  C   UNL d   1      46.429 -18.262  42.341  0.00  0.00     0.105 A 
ATOM      3  O   UNL d   1      46.393 -17.672  42.905  0.00  0.00    -0.273 OA
ATOM      4  C   UNL d   1      46.380 -19.064  42.573  0.00  0.00     0.023 A 
ATOM      5  C   UNL d   1      46.310 -17.863  43.704  0.00  0.00     0.300 A 
ATOM      6  C   UNL d   1      46.262 -18.651  43.937  0.00  0.00     0.069 A 
ATOM      7  C   UNL d   1      46.511 -18.079  41.552  0.00  0.00     0.049 A 
ATOM      8  C   UNL d   1      46.415 -19.659  42.011  0.00  0.00     0.004 A 
ATOM      9  O   UNL d   1      46.274 -17.250  44.276  0.00  0.00    -0.259 OA
ATOM     10  C   UNL d   1      46.547 -18.681  40.979  0.00  0.00     0.096 A 
ATOM     11  C   UNL d   1      46.499 -19.466  41.208  0.00  0.00     0.024 A 
ENDROOT
BRANCH   1  12
ATOM     12  C   UNL d   1      46.249 -20.043  43.600  0.00  0.00     0.070 C 
BRANCH  12  13
ATOM     13  C   UNL d   1      46.043 -20.230  44.379  0.00  0.00     0.211 C 
ATOM     14  O   UNL d   1      46.641 -20.330  44.953  0.00  0.00    -0.644 OA
ATOM     15  O   UNL d   1      45.252 -20.318  44.594  0.00  0.00    -0.644 OA
ENDBRANCH  12  13
ENDBRANCH   1  12
BRANCH  10  16
ATOM     16  O   UNL d   1      46.630 -18.487  40.182  0.00  0.00    -0.328 OA
ATOM     17  C   UNL d   1      46.018 -18.093  39.785  0.00  0.00     0.181 C 
ENDBRANCH  10  16
TORSDOF 3
ENDMDL
