MODEL 1
REMARK VINA RESULT:     136.6      0.000      0.000
REMARK  4 active torsions:
REMARK  status: ('A' for Active; 'I' for Inactive)
REMARK    1  A    between atoms: N_2  and  S_1 
REMARK    2  A    between atoms: C_6  and  S_1 
REMARK    3  A    between atoms: C_3  and  C_11 
REMARK       I    between atoms: N_4  and  C_3 
REMARK    4  A    between atoms: C_17  and  N_5 
ROOT
ATOM      1  C   UNL d   1      61.309  47.211  50.433  0.00  0.00     0.104 A 
ATOM      2  C   UNL d   1      62.213  45.940  49.821  0.00  0.00     0.057 A 
ATOM      3  C   UNL d   1      61.982  47.358  49.937  0.00  0.00     0.013 A 
ATOM      4  C   UNL d   1      61.129  46.435  50.593  0.00  0.00     0.013 A 
ATOM      5  C   UNL d   1      62.426  46.741  49.636  0.00  0.00     0.005 A 
ATOM      6  C   UNL d   1      61.579  45.814  50.288  0.00  0.00     0.005 A 
ENDROOT
BRANCH   2   7
ATOM      7  C   UNL d   1      62.653  45.353  49.522  0.00  0.00     0.265 C 
ATOM      8  N   UNL d   1      62.614  44.637  49.894  0.00  0.00    -0.269 N 
ATOM      9  C   UNL d   1      63.066  44.032  49.588  0.00  0.00     0.102 A 
ATOM     10  C   UNL d   1      62.144  44.495  50.561  0.00  0.00     0.102 A 
ATOM     11  C   UNL d   1      63.061  43.279  49.933  0.00  0.00     0.100 A 
ATOM     12  N   UNL d   1      62.595  43.153  50.588  0.00  0.00    -0.301 N 
ATOM     13  C   UNL d   1      62.138  43.736  50.911  0.00  0.00     0.100 A 
ATOM     14  O   UNL d   1      63.132  45.467  48.856  0.00  0.00    -0.267 OA
BRANCH  12  15
ATOM     15  C   UNL d   1      62.592  42.406  50.929  0.00  0.00     0.064 A 
ATOM     16  C   UNL d   1      62.147  42.225  51.595  0.00  0.00     0.018 A 
ATOM     17  C   UNL d   1      62.144  41.497  51.926  0.00  0.00     0.002 A 
ATOM     18  C   UNL d   1      62.618  40.894  51.576  0.00  0.00     0.000 A 
ATOM     19  C   UNL d   1      63.044  41.076  50.933  0.00  0.00     0.002 A 
ATOM     20  C   UNL d   1      63.048  41.824  50.592  0.00  0.00     0.018 A 
ENDBRANCH  12  15
ENDBRANCH   2   7
BRANCH   1  21
ATOM     21  S   UNL d   1      60.874  47.821  50.728  0.00  0.00     0.271 S 
ATOM     22  O   UNL d   1      61.166  48.313  50.160  0.00  0.00    -0.200 OA
ATOM     23  O   UNL d   1      60.561  47.304  51.334  0.00  0.00    -0.200 OA
BRANCH  21  24
ATOM     24  N   UNL d   1      60.424  48.452  51.033  0.00  0.00    -0.229 N 
ATOM     25  C   UNL d   1      59.820  48.742  50.589  0.00  0.00     0.092 A 
ATOM     26  C   UNL d   1      59.364  49.371  50.881  0.00  0.00     0.018 A 
ATOM     27  C   UNL d   1      58.731  49.706  50.463  0.00  0.00     0.002 C 
ATOM     28  C   UNL d   1      59.539  49.694  51.633  0.00  0.00     0.003 A 
ATOM     29  C   UNL d   1      60.170  49.388  52.092  0.00  0.00     0.018 A 
ATOM     30  C   UNL d   1      60.601  48.777  51.791  0.00  0.00     0.092 A 
ATOM     31  C   UNL d   1      60.359  49.696  52.842  0.00  0.00     0.002 C 
ENDBRANCH  21  24
ENDBRANCH   1  21
TORSDOF 4
ENDMDL
