MODEL 1
REMARK VINA RESULT:      -3.2      0.000      0.000
REMARK  6 active torsions:
REMARK  status: ('A' for Active; 'I' for Inactive)
REMARK    1  A    between atoms: C_3  and  N_1 
REMARK    2  A    between atoms: N_7  and  C_3 
REMARK    3  A    between atoms: C_9  and  C_4 
REMARK    4  A    between atoms: C_10  and  C_5 
REMARK    5  A    between atoms: C_15  and  N_7 
REMARK    6  A    between atoms: O_23  and  C_17 
ROOT
ATOM      1  N   UNL d   1     -40.639  14.522  20.798  0.00  0.00    -0.203 N 
ATOM      2  N   UNL d   1     -41.235  14.202  21.296  0.00  0.00    -0.163 NA
ATOM      3  C   UNL d   1     -41.798  13.853  20.813  0.00  0.00     0.103 A 
ATOM      4  C   UNL d   1     -40.850  14.361  20.008  0.00  0.00     0.087 A 
ATOM      5  C   UNL d   1     -41.587  13.937  20.039  0.00  0.00     0.040 A 
ENDROOT
BRANCH   1   6
ATOM      6  C   UNL d   1     -39.948  14.933  21.046  0.00  0.00     0.222 C 
ATOM      7  S   UNL d   1     -39.974  15.748  21.113  0.00  0.00    -0.037 SA
BRANCH   6   8
ATOM      8  N   UNL d   1     -39.262  14.514  21.217  0.00  0.00    -0.217 NA
BRANCH   8   9
ATOM      9  C   UNL d   1     -38.844  14.672  21.907  0.00  0.00     0.084 A 
ATOM     10  C   UNL d   1     -38.731  14.054  22.456  0.00  0.00     0.019 A 
ATOM     11  C   UNL d   1     -38.311  14.211  23.149  0.00  0.00     0.002 A 
ATOM     12  C   UNL d   1     -38.026  14.954  23.273  0.00  0.00     0.000 A 
ATOM     13  C   UNL d   1     -38.137  15.556  22.737  0.00  0.00     0.002 A 
ATOM     14  C   UNL d   1     -38.545  15.416  22.055  0.00  0.00     0.019 A 
ENDBRANCH   8   9
ENDBRANCH   6   8
ENDBRANCH   1   6
BRANCH   4  15
ATOM     15  C   UNL d   1     -40.451  14.558  19.304  0.00  0.00     0.018 A 
ATOM     16  C   UNL d   1     -39.934  14.024  18.948  0.00  0.00     0.004 A 
ATOM     17  C   UNL d   1     -39.543  14.230  18.248  0.00  0.00     0.024 A 
ATOM     18  C   UNL d   1     -39.661  14.948  17.908  0.00  0.00     0.094 A 
ATOM     19  C   UNL d   1     -40.190  15.505  18.264  0.00  0.00     0.024 A 
ATOM     20  C   UNL d   1     -40.575  15.295  18.959  0.00  0.00     0.004 A 
BRANCH  18  21
ATOM     21  O   UNL d   1     -39.240  15.121  17.188  0.00  0.00    -0.328 OA
ATOM     22  C   UNL d   1     -39.407  15.824  16.762  0.00  0.00     0.181 C 
ENDBRANCH  18  21
ENDBRANCH   4  15
BRANCH   3  23
ATOM     23  C   UNL d   1     -42.470  13.480  21.119  0.00  0.00     0.019 A 
ATOM     24  C   UNL d   1     -43.198  13.845  21.107  0.00  0.00     0.002 A 
ATOM     25  C   UNL d   1     -43.866  13.474  21.412  0.00  0.00     0.007 A 
ATOM     26  C   UNL d   1     -43.795  12.718  21.737  0.00  0.00     0.035 A 
ATOM     27  C   UNL d   1     -43.056  12.340  21.753  0.00  0.00     0.007 A 
ATOM     28 BR   UNL d   1     -44.458  12.330  22.048  0.00  0.00    -0.049 Br
ATOM     29  C   UNL d   1     -42.384  12.713  21.446  0.00  0.00     0.002 A 
ENDBRANCH   3  23
TORSDOF 6
ENDMDL
MODEL 2
REMARK VINA RESULT:      -3.0      2.210      4.196
REMARK  6 active torsions:
REMARK  status: ('A' for Active; 'I' for Inactive)
REMARK    1  A    between atoms: C_3  and  N_1 
REMARK    2  A    between atoms: N_7  and  C_3 
REMARK    3  A    between atoms: C_9  and  C_4 
REMARK    4  A    between atoms: C_10  and  C_5 
REMARK    5  A    between atoms: C_15  and  N_7 
REMARK    6  A    between atoms: O_23  and  C_17 
ROOT
ATOM      1  N   UNL d   1     -39.578  15.198  20.230  0.00  0.00    -0.203 N 
ATOM      2  N   UNL d   1     -39.102  15.432  19.579  0.00  0.00    -0.163 NA
ATOM      3  C   UNL d   1     -39.498  15.220  18.894  0.00  0.00     0.103 A 
ATOM      4  C   UNL d   1     -40.268  14.842  19.927  0.00  0.00     0.087 A 
ATOM      5  C   UNL d   1     -40.199  14.865  19.079  0.00  0.00     0.040 A 
ENDROOT
BRANCH   1   6
ATOM      6  C   UNL d   1     -39.398  15.302  21.044  0.00  0.00     0.222 C 
ATOM      7  S   UNL d   1     -39.802  15.871  21.471  0.00  0.00    -0.037 SA
BRANCH   6   8
ATOM      8  N   UNL d   1     -38.823  14.834  21.399  0.00  0.00    -0.217 NA
BRANCH   8   9
ATOM      9  C   UNL d   1     -38.543  15.023  22.148  0.00  0.00     0.084 A 
ATOM     10  C   UNL d   1     -38.607  14.452  22.754  0.00  0.00     0.019 A 
ATOM     11  C   UNL d   1     -38.326  14.640  23.508  0.00  0.00     0.002 A 
ATOM     12  C   UNL d   1     -38.001  15.367  23.633  0.00  0.00     0.000 A 
ATOM     13  C   UNL d   1     -37.939  15.922  23.041  0.00  0.00     0.002 A 
ATOM     14  C   UNL d   1     -38.210  15.751  22.300  0.00  0.00     0.019 A 
ENDBRANCH   8   9
ENDBRANCH   6   8
ENDBRANCH   1   6
BRANCH   4  15
ATOM     15  C   UNL d   1     -40.918  14.517  20.335  0.00  0.00     0.018 A 
ATOM     16  C   UNL d   1     -41.497  15.002  20.664  0.00  0.00     0.004 A 
ATOM     17  C   UNL d   1     -42.137  14.667  21.067  0.00  0.00     0.024 A 
ATOM     18  C   UNL d   1     -42.203  13.870  21.143  0.00  0.00     0.094 A 
ATOM     19  C   UNL d   1     -41.615  13.361  20.810  0.00  0.00     0.024 A 
ATOM     20  C   UNL d   1     -40.981  13.699  20.411  0.00  0.00     0.004 A 
BRANCH  18  21
ATOM     21  O   UNL d   1     -42.878  13.565  21.565  0.00  0.00    -0.328 OA
ATOM     22  C   UNL d   1     -43.233  12.844  21.326  0.00  0.00     0.181 C 
ENDBRANCH  18  21
ENDBRANCH   4  15
BRANCH   3  23
ATOM     23  C   UNL d   1     -39.187  15.368  18.142  0.00  0.00     0.019 A 
ATOM     24  C   UNL d   1     -38.435  15.128  17.942  0.00  0.00     0.002 A 
ATOM     25  C   UNL d   1     -38.125  15.276  17.193  0.00  0.00     0.007 A 
ATOM     26  C   UNL d   1     -38.587  15.674  16.637  0.00  0.00     0.035 A 
ATOM     27  C   UNL d   1     -39.355  15.922  16.834  0.00  0.00     0.007 A 
ATOM     28 BR   UNL d   1     -38.290  15.831  15.879  0.00  0.00    -0.049 Br
ATOM     29  C   UNL d   1     -39.666  15.774  17.586  0.00  0.00     0.002 A 
ENDBRANCH   3  23
TORSDOF 6
ENDMDL
MODEL 3
REMARK VINA RESULT:      -2.6      2.113      4.625
REMARK  6 active torsions:
REMARK  status: ('A' for Active; 'I' for Inactive)
REMARK    1  A    between atoms: C_3  and  N_1 
REMARK    2  A    between atoms: N_7  and  C_3 
REMARK    3  A    between atoms: C_9  and  C_4 
REMARK    4  A    between atoms: C_10  and  C_5 
REMARK    5  A    between atoms: C_15  and  N_7 
REMARK    6  A    between atoms: O_23  and  C_17 
ROOT
ATOM      1  N   UNL d   1     -40.474  14.500  20.105  0.00  0.00    -0.203 N 
ATOM      2  N   UNL d   1     -40.563  14.567  19.273  0.00  0.00    -0.163 NA
ATOM      3  C   UNL d   1     -39.816  14.676  18.953  0.00  0.00     0.103 A 
ATOM      4  C   UNL d   1     -39.664  14.570  20.283  0.00  0.00     0.087 A 
ATOM      5  C   UNL d   1     -39.264  14.681  19.541  0.00  0.00     0.040 A 
ENDROOT
BRANCH   1   6
ATOM      6  C   UNL d   1     -41.090  14.382  20.666  0.00  0.00     0.222 C 
ATOM      7  S   UNL d   1     -41.501  15.032  20.946  0.00  0.00    -0.037 SA
BRANCH   6   8
ATOM      8  N   UNL d   1     -41.270  13.623  20.923  0.00  0.00    -0.217 NA
BRANCH   8   9
ATOM      9  C   UNL d   1     -42.050  13.416  21.082  0.00  0.00     0.084 A 
ATOM     10  C   UNL d   1     -42.214  12.638  21.334  0.00  0.00     0.019 A 
ATOM     11  C   UNL d   1     -42.996  12.428  21.494  0.00  0.00     0.002 A 
ATOM     12  C   UNL d   1     -43.575  12.981  21.402  0.00  0.00     0.000 A 
ATOM     13  C   UNL d   1     -43.413  13.741  21.156  0.00  0.00     0.002 A 
ATOM     14  C   UNL d   1     -42.653  13.958  20.996  0.00  0.00     0.019 A 
ENDBRANCH   8   9
ENDBRANCH   6   8
ENDBRANCH   1   6
BRANCH   4  15
ATOM     15  C   UNL d   1     -39.280  14.544  21.023  0.00  0.00     0.018 A 
ATOM     16  C   UNL d   1     -38.897  13.860  21.276  0.00  0.00     0.004 A 
ATOM     17  C   UNL d   1     -38.520  13.845  22.012  0.00  0.00     0.024 A 
ATOM     18  C   UNL d   1     -38.522  14.492  22.487  0.00  0.00     0.094 A 
ATOM     19  C   UNL d   1     -38.912  15.201  22.239  0.00  0.00     0.024 A 
ATOM     20  C   UNL d   1     -39.285  15.210  21.507  0.00  0.00     0.004 A 
BRANCH  18  21
ATOM     21  O   UNL d   1     -38.122  14.437  23.238  0.00  0.00    -0.328 OA
ATOM     22  C   UNL d   1     -38.182  13.737  23.696  0.00  0.00     0.181 C 
ENDBRANCH  18  21
ENDBRANCH   4  15
BRANCH   3  23
ATOM     23  C   UNL d   1     -39.695  14.764  18.140  0.00  0.00     0.019 A 
ATOM     24  C   UNL d   1     -40.022  15.386  17.729  0.00  0.00     0.002 A 
ATOM     25  C   UNL d   1     -39.901  15.473  16.919  0.00  0.00     0.007 A 
ATOM     26  C   UNL d   1     -39.440  14.918  16.518  0.00  0.00     0.035 A 
ATOM     27  C   UNL d   1     -39.103  14.281  16.930  0.00  0.00     0.007 A 
ATOM     28 BR   UNL d   1     -39.308  14.991  15.703  0.00  0.00    -0.049 Br
ATOM     29  C   UNL d   1     -39.224  14.193  17.744  0.00  0.00     0.002 A 
ENDBRANCH   3  23
TORSDOF 6
ENDMDL
MODEL 4
REMARK VINA RESULT:      -1.8      5.098      8.285
REMARK  6 active torsions:
REMARK  status: ('A' for Active; 'I' for Inactive)
REMARK    1  A    between atoms: C_3  and  N_1 
REMARK    2  A    between atoms: N_7  and  C_3 
REMARK    3  A    between atoms: C_9  and  C_4 
REMARK    4  A    between atoms: C_10  and  C_5 
REMARK    5  A    between atoms: C_15  and  N_7 
REMARK    6  A    between atoms: O_23  and  C_17 
ROOT
ATOM      1  N   UNL d   1     -46.876  12.805  22.597  0.00  0.00    -0.203 N 
ATOM      2  N   UNL d   1     -46.119  12.475  22.447  0.00  0.00    -0.163 NA
ATOM      3  C   UNL d   1     -45.641  13.076  22.159  0.00  0.00     0.103 A 
ATOM      4  C   UNL d   1     -46.849  13.613  22.394  0.00  0.00     0.087 A 
ATOM      5  C   UNL d   1     -46.059  13.765  22.119  0.00  0.00     0.040 A 
ENDROOT
BRANCH   1   6
ATOM      6  C   UNL d   1     -47.548  12.398  22.897  0.00  0.00     0.222 C 
ATOM      7  S   UNL d   1     -47.717  12.446  23.696  0.00  0.00    -0.037 SA
BRANCH   6   8
ATOM      8  N   UNL d   1     -48.023  11.960  22.389  0.00  0.00    -0.217 NA
BRANCH   8   9
ATOM      9  C   UNL d   1     -48.784  11.750  22.615  0.00  0.00     0.084 A 
ATOM     10  C   UNL d   1     -49.407  11.852  22.069  0.00  0.00     0.019 A 
ATOM     11  C   UNL d   1     -50.172  11.642  22.295  0.00  0.00     0.002 A 
ATOM     12  C   UNL d   1     -50.293  11.344  23.034  0.00  0.00     0.000 A 
ATOM     13  C   UNL d   1     -49.685  11.245  23.566  0.00  0.00     0.002 A 
ATOM     14  C   UNL d   1     -48.932  11.447  23.358  0.00  0.00     0.019 A 
ENDBRANCH   8   9
ENDBRANCH   6   8
ENDBRANCH   1   6
BRANCH   4  15
ATOM     15  C   UNL d   1     -47.450  14.189  22.437  0.00  0.00     0.018 A 
ATOM     16  C   UNL d   1     -47.675  14.513  23.161  0.00  0.00     0.004 A 
ATOM     17  C   UNL d   1     -48.272  15.084  23.191  0.00  0.00     0.024 A 
ATOM     18  C   UNL d   1     -48.639  15.330  22.520  0.00  0.00     0.094 A 
ATOM     19  C   UNL d   1     -48.417  15.006  21.771  0.00  0.00     0.024 A 
ATOM     20  C   UNL d   1     -47.823  14.438  21.747  0.00  0.00     0.004 A 
BRANCH  18  21
ATOM     21  O   UNL d   1     -49.249  15.921  22.593  0.00  0.00    -0.328 OA
ATOM     22  C   UNL d   1     -49.942  15.756  23.036  0.00  0.00     0.181 C 
ENDBRANCH  18  21
ENDBRANCH   4  15
BRANCH   3  23
ATOM     23  C   UNL d   1     -44.851  12.947  21.951  0.00  0.00     0.019 A 
ATOM     24  C   UNL d   1     -44.418  12.347  22.289  0.00  0.00     0.002 A 
ATOM     25  C   UNL d   1     -43.631  12.219  22.083  0.00  0.00     0.007 A 
ATOM     26  C   UNL d   1     -43.277  12.710  21.521  0.00  0.00     0.035 A 
ATOM     27  C   UNL d   1     -43.712  13.325  21.172  0.00  0.00     0.007 A 
ATOM     28 BR   UNL d   1     -42.486  12.595  21.302  0.00  0.00    -0.049 Br
ATOM     29  C   UNL d   1     -44.502  13.453  21.380  0.00  0.00     0.002 A 
ENDBRANCH   3  23
TORSDOF 6
ENDMDL
MODEL 5
REMARK VINA RESULT:      -1.0      6.252      8.468
REMARK  6 active torsions:
REMARK  status: ('A' for Active; 'I' for Inactive)
REMARK    1  A    between atoms: C_3  and  N_1 
REMARK    2  A    between atoms: N_7  and  C_3 
REMARK    3  A    between atoms: C_9  and  C_4 
REMARK    4  A    between atoms: C_10  and  C_5 
REMARK    5  A    between atoms: C_15  and  N_7 
REMARK    6  A    between atoms: O_23  and  C_17 
ROOT
ATOM      1  N   UNL d   1     -46.810  12.629  23.065  0.00  0.00    -0.203 N 
ATOM      2  N   UNL d   1     -45.996  12.423  23.087  0.00  0.00    -0.163 NA
ATOM      3  C   UNL d   1     -45.950  11.613  23.203  0.00  0.00     0.103 A 
ATOM      4  C   UNL d   1     -47.254  11.932  23.169  0.00  0.00     0.087 A 
ATOM      5  C   UNL d   1     -46.691  11.299  23.255  0.00  0.00     0.040 A 
ENDROOT
BRANCH   1   6
ATOM      6  C   UNL d   1     -47.128  13.400  22.957  0.00  0.00     0.222 C 
ATOM      7  S   UNL d   1     -47.207  13.891  23.606  0.00  0.00    -0.037 SA
BRANCH   6   8
ATOM      8  N   UNL d   1     -47.353  13.648  22.206  0.00  0.00    -0.217 NA
BRANCH   8   9
ATOM      9  C   UNL d   1     -47.728  14.373  22.108  0.00  0.00     0.084 A 
ATOM     10  C   UNL d   1     -47.390  15.049  22.461  0.00  0.00     0.019 A 
ATOM     11  C   UNL d   1     -47.766  15.778  22.363  0.00  0.00     0.002 A 
ATOM     12  C   UNL d   1     -48.445  15.812  21.931  0.00  0.00     0.000 A 
ATOM     13  C   UNL d   1     -48.774  15.151  21.588  0.00  0.00     0.002 A 
ATOM     14  C   UNL d   1     -48.417  14.433  21.676  0.00  0.00     0.019 A 
ENDBRANCH   8   9
ENDBRANCH   6   8
ENDBRANCH   1   6
BRANCH   4  15
ATOM     15  C   UNL d   1     -48.080  11.829  23.192  0.00  0.00     0.018 A 
ATOM     16  C   UNL d   1     -48.551  12.293  23.684  0.00  0.00     0.004 A 
ATOM     17  C   UNL d   1     -49.371  12.183  23.698  0.00  0.00     0.024 A 
ATOM     18  C   UNL d   1     -49.718  11.625  23.235  0.00  0.00     0.094 A 
ATOM     19  C   UNL d   1     -49.246  11.142  22.726  0.00  0.00     0.024 A 
ATOM     20  C   UNL d   1     -48.432  11.256  22.717  0.00  0.00     0.004 A 
BRANCH  18  21
ATOM     21  O   UNL d   1     -50.564  11.542  23.279  0.00  0.00    -0.328 OA
ATOM     22  C   UNL d   1     -51.047  12.217  23.405  0.00  0.00     0.181 C 
ENDBRANCH  18  21
ENDBRANCH   4  15
BRANCH   3  23
ATOM     23  C   UNL d   1     -45.225  11.217  23.253  0.00  0.00     0.019 A 
ATOM     24  C   UNL d   1     -44.548  11.534  22.931  0.00  0.00     0.002 A 
ATOM     25  C   UNL d   1     -43.826  11.140  22.981  0.00  0.00     0.007 A 
ATOM     26  C   UNL d   1     -43.792  10.410  23.366  0.00  0.00     0.035 A 
ATOM     27  C   UNL d   1     -44.478  10.081  23.697  0.00  0.00     0.007 A 
ATOM     28 BR   UNL d   1     -43.074  10.000  23.425  0.00  0.00    -0.049 Br
ATOM     29  C   UNL d   1     -45.203  10.477  23.647  0.00  0.00     0.002 A 
ENDBRANCH   3  23
TORSDOF 6
ENDMDL
