MODEL 1
REMARK VINA RESULT:      -8.6      0.000      0.000
REMARK  5 active torsions:
REMARK  status: ('A' for Active; 'I' for Inactive)
REMARK    1  A    between atoms: S_6  and  C_3 
REMARK    2  A    between atoms: C_10  and  C_4 
REMARK    3  A    between atoms: C_5  and  C_7 
REMARK    4  A    between atoms: C_9  and  C_5 
REMARK    5  A    between atoms: C_7  and  S_6 
ROOT
ATOM      1  N   UNL d   1      50.240  33.668  53.204  0.00  0.00    -0.148 NA
ATOM      2  N   UNL d   1      50.928  33.232  53.348  0.00  0.00    -0.141 NA
ATOM      3  C   UNL d   1      51.609  33.371  52.904  0.00  0.00     0.133 A 
ATOM      4  C   UNL d   1      50.238  34.246  52.612  0.00  0.00     0.103 A 
ATOM      5  C   UNL d   1      50.913  34.390  52.167  0.00  0.00     0.023 A 
ATOM      6  C   UNL d   1      51.599  33.958  52.307  0.00  0.00     0.029 A 
ENDROOT
BRANCH   3   7
ATOM      7  S   UNL d   1      52.288  32.937  53.049  0.00  0.00    -0.062 SA
BRANCH   7   8
ATOM      8  C   UNL d   1      52.814  33.178  53.637  0.00  0.00     0.079 C 
BRANCH   8   9
ATOM      9  C   UNL d   1      53.502  32.726  53.796  0.00  0.00     0.202 C 
ATOM     10  O   UNL d   1      53.591  31.991  53.457  0.00  0.00    -0.286 OA
BRANCH   9  11
ATOM     11  C   UNL d   1      54.080  33.030  54.292  0.00  0.00     0.040 A 
ATOM     12  C   UNL d   1      53.975  33.007  55.109  0.00  0.00     0.003 A 
ATOM     13  C   UNL d   1      54.549  33.309  55.615  0.00  0.00     0.000 A 
ATOM     14  C   UNL d   1      55.242  33.642  55.289  0.00  0.00     0.000 A 
ATOM     15  C   UNL d   1      55.346  33.665  54.471  0.00  0.00     0.000 A 
ATOM     16  C   UNL d   1      54.761  33.357  53.979  0.00  0.00     0.003 A 
ENDBRANCH   9  11
ENDBRANCH   8   9
ENDBRANCH   7   8
ENDBRANCH   3   7
BRANCH   4  17
ATOM     17  C   UNL d   1      49.550  34.682  52.468  0.00  0.00     0.019 A 
ATOM     18  C   UNL d   1      49.253  35.197  53.051  0.00  0.00     0.002 A 
ATOM     19  C   UNL d   1      48.562  35.635  52.907  0.00  0.00     0.000 A 
ATOM     20  C   UNL d   1      48.164  35.561  52.179  0.00  0.00     0.000 A 
ATOM     21  C   UNL d   1      48.457  35.055  51.606  0.00  0.00     0.000 A 
ATOM     22  C   UNL d   1      49.147  34.612  51.739  0.00  0.00     0.002 A 
ENDBRANCH   4  17
TORSDOF 5
ENDMDL
MODEL 2
REMARK VINA RESULT:      -8.3      1.486      5.373
REMARK  5 active torsions:
REMARK  status: ('A' for Active; 'I' for Inactive)
REMARK    1  A    between atoms: S_6  and  C_3 
REMARK    2  A    between atoms: C_10  and  C_4 
REMARK    3  A    between atoms: C_5  and  C_7 
REMARK    4  A    between atoms: C_9  and  C_5 
REMARK    5  A    between atoms: C_7  and  S_6 
ROOT
ATOM      1  N   UNL d   1      51.835  33.283  53.736  0.00  0.00    -0.148 NA
ATOM      2  N   UNL d   1      51.136  33.434  53.322  0.00  0.00    -0.141 NA
ATOM      3  C   UNL d   1      51.110  34.031  52.753  0.00  0.00     0.133 A 
ATOM      4  C   UNL d   1      52.512  33.733  53.577  0.00  0.00     0.103 A 
ATOM      5  C   UNL d   1      52.492  34.328  53.012  0.00  0.00     0.023 A 
ATOM      6  C   UNL d   1      51.798  34.482  52.598  0.00  0.00     0.029 A 
ENDROOT
BRANCH   3   7
ATOM      7  S   UNL d   1      50.415  34.178  52.345  0.00  0.00    -0.062 SA
BRANCH   7   8
ATOM      8  C   UNL d   1      49.848  34.686  52.664  0.00  0.00     0.079 C 
BRANCH   8   9
ATOM      9  C   UNL d   1      49.159  34.873  52.227  0.00  0.00     0.202 C 
ATOM     10  O   UNL d   1      49.038  34.536  51.495  0.00  0.00    -0.286 OA
BRANCH   9  11
ATOM     11  C   UNL d   1      48.611  35.396  52.541  0.00  0.00     0.040 A 
ATOM     12  C   UNL d   1      47.990  35.672  52.074  0.00  0.00     0.003 A 
ATOM     13  C   UNL d   1      47.434  36.196  52.379  0.00  0.00     0.000 A 
ATOM     14  C   UNL d   1      47.508  36.447  53.173  0.00  0.00     0.000 A 
ATOM     15  C   UNL d   1      48.130  36.171  53.640  0.00  0.00     0.000 A 
ATOM     16  C   UNL d   1      48.676  35.646  53.317  0.00  0.00     0.003 A 
ENDBRANCH   9  11
ENDBRANCH   8   9
ENDBRANCH   7   8
ENDBRANCH   3   7
BRANCH   4  17
ATOM     17  C   UNL d   1      53.211  33.582  53.991  0.00  0.00     0.019 A 
ATOM     18  C   UNL d   1      53.738  32.996  53.721  0.00  0.00     0.002 A 
ATOM     19  C   UNL d   1      54.441  32.844  54.137  0.00  0.00     0.000 A 
ATOM     20  C   UNL d   1      54.621  33.276  54.825  0.00  0.00     0.000 A 
ATOM     21  C   UNL d   1      54.103  33.851  55.090  0.00  0.00     0.000 A 
ATOM     22  C   UNL d   1      53.397  34.012  54.682  0.00  0.00     0.002 A 
ENDBRANCH   4  17
TORSDOF 5
ENDMDL
MODEL 3
REMARK VINA RESULT:      -8.1      1.433      2.088
REMARK  5 active torsions:
REMARK  status: ('A' for Active; 'I' for Inactive)
REMARK    1  A    between atoms: S_6  and  C_3 
REMARK    2  A    between atoms: C_10  and  C_4 
REMARK    3  A    between atoms: C_5  and  C_7 
REMARK    4  A    between atoms: C_9  and  C_5 
REMARK    5  A    between atoms: C_7  and  S_6 
ROOT
ATOM      1  N   UNL d   1      50.280  33.819  53.190  0.00  0.00    -0.148 NA
ATOM      2  N   UNL d   1      50.996  33.450  53.377  0.00  0.00    -0.141 NA
ATOM      3  C   UNL d   1      51.669  33.591  52.922  0.00  0.00     0.133 A 
ATOM      4  C   UNL d   1      50.242  34.333  52.541  0.00  0.00     0.103 A 
ATOM      5  C   UNL d   1      50.908  34.477  52.084  0.00  0.00     0.023 A 
ATOM      6  C   UNL d   1      51.622  34.112  52.267  0.00  0.00     0.029 A 
ENDROOT
BRANCH   3   7
ATOM      7  S   UNL d   1      52.377  33.224  53.111  0.00  0.00    -0.062 SA
BRANCH   7   8
ATOM      8  C   UNL d   1      52.444  32.403  53.054  0.00  0.00     0.079 C 
BRANCH   8   9
ATOM      9  C   UNL d   1      53.175  32.030  53.217  0.00  0.00     0.202 C 
ATOM     10  O   UNL d   1      53.860  32.471  53.237  0.00  0.00    -0.286 OA
BRANCH   9  11
ATOM     11  C   UNL d   1      53.195  31.222  53.357  0.00  0.00     0.040 A 
ATOM     12  C   UNL d   1      52.883  30.700  52.800  0.00  0.00     0.003 A 
ATOM     13  C   UNL d   1      52.898  29.888  52.930  0.00  0.00     0.000 A 
ATOM     14  C   UNL d   1      53.235  29.597  53.637  0.00  0.00     0.000 A 
ATOM     15  C   UNL d   1      53.547  30.120  54.194  0.00  0.00     0.000 A 
ATOM     16  C   UNL d   1      53.523  30.930  54.047  0.00  0.00     0.003 A 
ENDBRANCH   9  11
ENDBRANCH   8   9
ENDBRANCH   7   8
ENDBRANCH   3   7
BRANCH   4  17
ATOM     17  C   UNL d   1      49.526  34.702  52.353  0.00  0.00     0.019 A 
ATOM     18  C   UNL d   1      49.167  34.565  51.615  0.00  0.00     0.002 A 
ATOM     19  C   UNL d   1      48.448  34.936  51.427  0.00  0.00     0.000 A 
ATOM     20  C   UNL d   1      48.084  35.446  51.975  0.00  0.00     0.000 A 
ATOM     21  C   UNL d   1      48.437  35.580  52.701  0.00  0.00     0.000 A 
ATOM     22  C   UNL d   1      49.157  35.214  52.901  0.00  0.00     0.002 A 
ENDBRANCH   4  17
TORSDOF 5
ENDMDL
MODEL 4
REMARK VINA RESULT:      -6.9      2.254      5.385
REMARK  5 active torsions:
REMARK  status: ('A' for Active; 'I' for Inactive)
REMARK    1  A    between atoms: S_6  and  C_3 
REMARK    2  A    between atoms: C_10  and  C_4 
REMARK    3  A    between atoms: C_5  and  C_7 
REMARK    4  A    between atoms: C_9  and  C_5 
REMARK    5  A    between atoms: C_7  and  S_6 
ROOT
ATOM      1  N   UNL d   1      52.584  30.816  53.113  0.00  0.00    -0.148 NA
ATOM      2  N   UNL d   1      52.417  31.565  52.803  0.00  0.00    -0.141 NA
ATOM      3  C   UNL d   1      52.789  32.235  53.109  0.00  0.00     0.133 A 
ATOM      4  C   UNL d   1      53.128  30.742  53.733  0.00  0.00     0.103 A 
ATOM      5  C   UNL d   1      53.502  31.404  54.042  0.00  0.00     0.023 A 
ATOM      6  C   UNL d   1      53.338  32.151  53.736  0.00  0.00     0.029 A 
ENDROOT
BRANCH   3   7
ATOM      7  S   UNL d   1      52.621  32.974  52.800  0.00  0.00    -0.062 SA
BRANCH   7   8
ATOM      8  C   UNL d   1      51.845  33.255  52.800  0.00  0.00     0.079 C 
BRANCH   8   9
ATOM      9  C   UNL d   1      51.682  34.037  52.550  0.00  0.00     0.202 C 
ATOM     10  O   UNL d   1      52.296  34.554  52.406  0.00  0.00    -0.286 OA
BRANCH   9  11
ATOM     11  C   UNL d   1      50.904  34.277  52.452  0.00  0.00     0.040 A 
ATOM     12  C   UNL d   1      50.552  34.241  51.708  0.00  0.00     0.003 A 
ATOM     13  C   UNL d   1      49.772  34.479  51.599  0.00  0.00     0.000 A 
ATOM     14  C   UNL d   1      49.339  34.760  52.256  0.00  0.00     0.000 A 
ATOM     15  C   UNL d   1      49.692  34.796  53.001  0.00  0.00     0.000 A 
ATOM     16  C   UNL d   1      50.474  34.553  53.091  0.00  0.00     0.003 A 
ENDBRANCH   9  11
ENDBRANCH   8   9
ENDBRANCH   7   8
ENDBRANCH   3   7
BRANCH   4  17
ATOM     17  C   UNL d   1      53.295  29.994  54.043  0.00  0.00     0.019 A 
ATOM     18  C   UNL d   1      53.060  29.800  54.817  0.00  0.00     0.002 A 
ATOM     19  C   UNL d   1      53.228  29.048  55.129  0.00  0.00     0.000 A 
ATOM     20  C   UNL d   1      53.632  28.486  54.667  0.00  0.00     0.000 A 
ATOM     21  C   UNL d   1      53.864  28.676  53.905  0.00  0.00     0.000 A 
ATOM     22  C   UNL d   1      53.701  29.425  53.584  0.00  0.00     0.002 A 
ENDBRANCH   4  17
TORSDOF 5
ENDMDL
