MODEL 1
REMARK VINA RESULT:       6.7      0.000      0.000
REMARK  7 active torsions:
REMARK  status: ('A' for Active; 'I' for Inactive)
REMARK    1  A    between atoms: N_3  and  S_1 
REMARK    2  A    between atoms: C_8  and  S_1 
REMARK    3  A    between atoms: S_2  and  C_7 
REMARK    4  A    between atoms: N_9  and  S_2 
REMARK    5  A    between atoms: C_4  and  N_3 
REMARK       I    between atoms: C_5  and  N_10 
REMARK    6  A    between atoms: C_16  and  C_5 
REMARK    7  A    between atoms: N_10  and  C_24 
ROOT
ATOM      1  C   UNL d   1     -41.654-122.862 -49.902  0.00  0.00     0.106 A 
ATOM      2  C   UNL d   1     -42.252-123.171 -50.364  0.00  0.00     0.015 A 
ATOM      3  C   UNL d   1     -41.123-122.311 -50.209  0.00  0.00     0.015 A 
ATOM      4  C   UNL d   1     -41.798-122.379 -51.462  0.00  0.00     0.085 A 
ATOM      5  C   UNL d   1     -41.197-122.069 -50.993  0.00  0.00     0.020 A 
ATOM      6  C   UNL d   1     -42.326-122.930 -51.147  0.00  0.00     0.020 A 
ENDROOT
BRANCH   4   7
ATOM      7  N   UNL d   1     -41.871-122.133 -52.256  0.00  0.00    -0.208 NA
ATOM      8  C   UNL d   1     -41.799-122.679 -52.870  0.00  0.00     0.279 C 
ATOM      9  O   UNL d   1     -41.653-123.473 -52.689  0.00  0.00    -0.265 OA
BRANCH   8  10
ATOM     10  C   UNL d   1     -41.871-122.433 -53.651  0.00  0.00     0.058 A 
ATOM     11  C   UNL d   1     -42.289-121.746 -53.836  0.00  0.00     0.005 A 
ATOM     12  C   UNL d   1     -42.362-121.499 -54.614  0.00  0.00     0.013 A 
ATOM     13  C   UNL d   1     -42.015-121.938 -55.229  0.00  0.00     0.104 A 
ATOM     14  C   UNL d   1     -41.592-122.636 -55.039  0.00  0.00     0.013 A 
ATOM     15  C   UNL d   1     -41.518-122.883 -54.264  0.00  0.00     0.005 A 
BRANCH  13  16
ATOM     16  S   UNL d   1     -42.091-121.686 -56.018  0.00  0.00     0.271 S 
ATOM     17  O   UNL d   1     -42.905-121.841 -55.992  0.00  0.00    -0.200 OA
ATOM     18  O   UNL d   1     -41.276-121.533 -56.038  0.00  0.00    -0.200 OA
BRANCH  16  19
ATOM     19  N   UNL d   1     -42.165-121.436 -56.800  0.00  0.00    -0.226 N 
ATOM     20  C   UNL d   1     -42.770-121.749 -57.283  0.00  0.00     0.111 C 
ATOM     21  C   UNL d   1     -41.647-120.879 -57.109  0.00  0.00     0.111 C 
ENDBRANCH  16  19
ENDBRANCH  13  16
ENDBRANCH   8  10
ENDBRANCH   4   7
BRANCH   1  22
ATOM     22  S   UNL d   1     -41.580-123.103 -49.119  0.00  0.00     0.300 S 
ATOM     23  O   UNL d   1     -41.959-123.817 -49.293  0.00  0.00    -0.198 OA
ATOM     24  O   UNL d   1     -41.200-122.398 -48.929  0.00  0.00    -0.198 OA
BRANCH  22  25
ATOM     25  N   UNL d   1     -41.506-123.349 -48.328  0.00  0.00     0.034 NA
BRANCH  25  26
ATOM     26  C   UNL d   1     -42.084-123.148 -47.778  0.00  0.00     0.760 A 
ATOM     27  N   UNL d   1     -42.796-123.586 -47.737  0.00  0.00    -0.059 NA
ATOM     28  C   UNL d   1     -43.374-123.384 -47.186  0.00  0.00     0.102 A 
ATOM     29  C   UNL d   1     -44.076-123.816 -47.147  0.00  0.00     0.021 C 
ATOM     30  C   UNL d   1     -43.249-122.751 -46.676  0.00  0.00     0.041 A 
ATOM     31  C   UNL d   1     -42.537-122.313 -46.716  0.00  0.00     0.120 A 
ATOM     32  N   UNL d   1     -41.967-122.519 -47.266  0.00  0.00    -0.057 NA
ENDBRANCH  25  26
ENDBRANCH  22  25
ENDBRANCH   1  22
TORSDOF 7
ENDMDL
