MODEL 1
REMARK VINA RESULT:      10.4      0.000      0.000
REMARK  5 active torsions:
REMARK  status: ('A' for Active; 'I' for Inactive)
REMARK    1  A    between atoms: N_6  and  C_1 
REMARK    2  A    between atoms: C_11  and  N_2 
REMARK    3  A    between atoms: S_3  and  C_10 
REMARK    4  A    between atoms: N_8  and  S_3 
REMARK       I    between atoms: C_9  and  N_6 
REMARK    5  A    between atoms: C_15  and  C_9 
ROOT
ATOM      1  N   UNL d   1     -41.836-122.340 -53.060  0.00  0.00    -0.189 NA
ATOM      2  C   UNL d   1     -42.027-122.984 -52.648  0.00  0.00     0.281 C 
ATOM      3  O   UNL d   1     -42.244-123.631 -53.105  0.00  0.00    -0.265 OA
ENDROOT
BRANCH   2   4
ATOM      4  C   UNL d   1     -42.016-123.029 -51.816  0.00  0.00     0.058 A 
ATOM      5  C   UNL d   1     -42.618-123.226 -51.436  0.00  0.00     0.005 A 
ATOM      6  C   UNL d   1     -42.617-123.271 -50.653  0.00  0.00     0.013 A 
ATOM      7  C   UNL d   1     -41.910-123.090 -50.249  0.00  0.00     0.104 A 
ATOM      8  C   UNL d   1     -41.318-122.891 -50.707  0.00  0.00     0.013 A 
ATOM      9  C   UNL d   1     -41.334-122.851 -51.491  0.00  0.00     0.005 A 
BRANCH   7  10
ATOM     10  S   UNL d   1     -41.905-123.137 -49.409  0.00  0.00     0.271 S 
ATOM     11  O   UNL d   1     -41.124-123.153 -49.386  0.00  0.00    -0.200 OA
ATOM     12  O   UNL d   1     -42.760-123.121 -49.415  0.00  0.00    -0.200 OA
BRANCH  10  13
ATOM     13  N   UNL d   1     -41.832-123.184 -48.597  0.00  0.00    -0.229 N 
ATOM     14  C   UNL d   1     -41.132-123.096 -48.198  0.00  0.00     0.092 A 
ATOM     15  C   UNL d   1     -41.326-123.188 -47.373  0.00  0.00     0.021 A 
ATOM     16  C   UNL d   1     -42.090-123.321 -47.304  0.00  0.00     0.021 A 
ATOM     17  C   UNL d   1     -42.431-123.324 -48.048  0.00  0.00     0.092 A 
ENDBRANCH  10  13
ENDBRANCH   7  10
ENDBRANCH   2   4
BRANCH   1  18
ATOM     18  C   UNL d   1     -41.816-122.202 -53.869  0.00  0.00     0.165 A 
ATOM     19  N   UNL d   1     -41.960-121.599 -54.358  0.00  0.00    -0.238 N 
ATOM     20  N   UNL d   1     -41.866-121.723 -55.108  0.00  0.00    -0.168 NA
ATOM     21  C   UNL d   1     -41.628-122.505 -55.167  0.00  0.00     0.111 A 
ATOM     22  C   UNL d   1     -41.591-122.818 -54.415  0.00  0.00     0.062 A 
ATOM     23  C   UNL d   1     -41.402-123.130 -55.686  0.00  0.00     0.056 A 
ATOM     24  C   UNL d   1     -41.345-123.629 -54.454  0.00  0.00     0.040 A 
ATOM     25  S   UNL d   1     -41.228-123.816 -55.263  0.00  0.00    -0.084 SA
BRANCH  19  26
ATOM     26  C   UNL d   1     -42.206-120.836 -54.118  0.00  0.00     0.088 C 
ATOM     27  C   UNL d   1     -42.342-121.111 -53.328  0.00  0.00     0.025 C 
ATOM     28  C   UNL d   1     -42.070-120.547 -54.921  0.00  0.00     0.025 C 
ATOM     29  C   UNL d   1     -42.458-120.028 -53.900  0.00  0.00     0.025 C 
ENDBRANCH  19  26
ENDBRANCH   1  18
TORSDOF 5
ENDMDL
MODEL 2
REMARK VINA RESULT:      10.6      1.087      1.873
REMARK  5 active torsions:
REMARK  status: ('A' for Active; 'I' for Inactive)
REMARK    1  A    between atoms: N_6  and  C_1 
REMARK    2  A    between atoms: C_11  and  N_2 
REMARK    3  A    between atoms: S_3  and  C_10 
REMARK    4  A    between atoms: N_8  and  S_3 
REMARK       I    between atoms: C_9  and  N_6 
REMARK    5  A    between atoms: C_15  and  C_9 
ROOT
ATOM      1  N   UNL d   1     -41.848-121.971 -53.110  0.00  0.00    -0.189 NA
ATOM      2  C   UNL d   1     -42.369-121.897 -52.524  0.00  0.00     0.281 C 
ATOM      3  O   UNL d   1     -43.079-121.543 -52.738  0.00  0.00    -0.265 OA
ENDROOT
BRANCH   2   4
ATOM      4  C   UNL d   1     -42.234-122.149 -51.741  0.00  0.00     0.058 A 
ATOM      5  C   UNL d   1     -41.557-122.143 -51.448  0.00  0.00     0.005 A 
ATOM      6  C   UNL d   1     -41.421-122.379 -50.712  0.00  0.00     0.013 A 
ATOM      7  C   UNL d   1     -42.069-122.641 -50.257  0.00  0.00     0.104 A 
ATOM      8  C   UNL d   1     -42.751-122.621 -50.625  0.00  0.00     0.013 A 
ATOM      9  C   UNL d   1     -42.871-122.382 -51.363  0.00  0.00     0.005 A 
BRANCH   7  10
ATOM     10  S   UNL d   1     -41.928-122.894 -49.468  0.00  0.00     0.271 S 
ATOM     11  O   UNL d   1     -41.180-123.059 -49.623  0.00  0.00    -0.200 OA
ATOM     12  O   UNL d   1     -42.744-122.720 -49.279  0.00  0.00    -0.200 OA
BRANCH  10  13
ATOM     13  N   UNL d   1     -41.727-123.153 -48.720  0.00  0.00    -0.229 N 
ATOM     14  C   UNL d   1     -41.163-123.714 -48.569  0.00  0.00     0.092 A 
ATOM     15  C   UNL d   1     -41.146-123.802 -47.722  0.00  0.00     0.021 A 
ATOM     16  C   UNL d   1     -41.670-123.320 -47.405  0.00  0.00     0.021 A 
ATOM     17  C   UNL d   1     -42.046-122.903 -48.001  0.00  0.00     0.092 A 
ENDBRANCH  10  13
ENDBRANCH   7  10
ENDBRANCH   2   4
BRANCH   1  18
ATOM     18  C   UNL d   1     -41.891-121.756 -53.901  0.00  0.00     0.165 A 
ATOM     19  N   UNL d   1     -41.909-122.121 -54.601  0.00  0.00    -0.238 N 
ATOM     20  N   UNL d   1     -41.952-121.682 -55.227  0.00  0.00    -0.168 NA
ATOM     21  C   UNL d   1     -41.967-120.912 -54.947  0.00  0.00     0.111 A 
ATOM     22  C   UNL d   1     -41.930-120.936 -54.132  0.00  0.00     0.062 A 
ATOM     23  C   UNL d   1     -42.005-120.095 -55.150  0.00  0.00     0.056 A 
ATOM     24  C   UNL d   1     -41.945-120.147 -53.822  0.00  0.00     0.040 A 
ATOM     25  S   UNL d   1     -41.992-119.622 -54.474  0.00  0.00    -0.084 SA
BRANCH  19  26
ATOM     26  C   UNL d   1     -41.884-122.951 -54.709  0.00  0.00     0.088 C 
ATOM     27  C   UNL d   1     -42.622-122.935 -55.125  0.00  0.00     0.025 C 
ATOM     28  C   UNL d   1     -41.131-122.977 -54.286  0.00  0.00     0.025 C 
ATOM     29  C   UNL d   1     -41.829-123.817 -54.805  0.00  0.00     0.025 C 
ENDBRANCH  19  26
ENDBRANCH   1  18
TORSDOF 5
ENDMDL
MODEL 3
REMARK VINA RESULT:      12.0      1.408      5.484
REMARK  5 active torsions:
REMARK  status: ('A' for Active; 'I' for Inactive)
REMARK    1  A    between atoms: N_6  and  C_1 
REMARK    2  A    between atoms: C_11  and  N_2 
REMARK    3  A    between atoms: S_3  and  C_10 
REMARK    4  A    between atoms: N_8  and  S_3 
REMARK       I    between atoms: C_9  and  N_6 
REMARK    5  A    between atoms: C_15  and  C_9 
ROOT
ATOM      1  N   UNL d   1     -42.823-122.733 -50.206  0.00  0.00    -0.189 NA
ATOM      2  C   UNL d   1     -42.281-123.048 -50.682  0.00  0.00     0.281 C 
ATOM      3  O   UNL d   1     -41.809-123.623 -50.332  0.00  0.00    -0.265 OA
ENDROOT
BRANCH   2   4
ATOM      4  C   UNL d   1     -42.174-122.833 -51.480  0.00  0.00     0.058 A 
ATOM      5  C   UNL d   1     -42.432-122.193 -51.742  0.00  0.00     0.005 A 
ATOM      6  C   UNL d   1     -42.336-121.982 -52.491  0.00  0.00     0.013 A 
ATOM      7  C   UNL d   1     -41.929-122.505 -52.998  0.00  0.00     0.104 A 
ATOM      8  C   UNL d   1     -41.686-123.159 -52.659  0.00  0.00     0.013 A 
ATOM      9  C   UNL d   1     -41.789-123.355 -51.907  0.00  0.00     0.005 A 
BRANCH   7  10
ATOM     10  S   UNL d   1     -41.824-122.284 -53.802  0.00  0.00     0.271 S 
ATOM     11  O   UNL d   1     -42.133-122.955 -54.058  0.00  0.00    -0.200 OA
ATOM     12  O   UNL d   1     -41.483-121.544 -53.541  0.00  0.00    -0.200 OA
BRANCH  10  13
ATOM     13  N   UNL d   1     -41.750-122.129 -54.600  0.00  0.00    -0.229 N 
ATOM     14  C   UNL d   1     -41.123-122.369 -55.054  0.00  0.00     0.092 A 
ATOM     15  C   UNL d   1     -41.285-122.084 -55.840  0.00  0.00     0.021 A 
ATOM     16  C   UNL d   1     -41.964-121.702 -55.838  0.00  0.00     0.021 A 
ATOM     17  C   UNL d   1     -42.276-121.713 -55.081  0.00  0.00     0.092 A 
ENDBRANCH  10  13
ENDBRANCH   7  10
ENDBRANCH   2   4
BRANCH   1  18
ATOM     18  C   UNL d   1     -43.000-122.879 -49.418  0.00  0.00     0.165 A 
ATOM     19  N   UNL d   1     -42.653-122.775 -48.716  0.00  0.00    -0.238 N 
ATOM     20  N   UNL d   1     -43.037-123.003 -48.095  0.00  0.00    -0.168 NA
ATOM     21  C   UNL d   1     -43.743-123.307 -48.380  0.00  0.00     0.111 A 
ATOM     22  C   UNL d   1     -43.740-123.240 -49.193  0.00  0.00     0.062 A 
ATOM     23  C   UNL d   1     -44.481-123.664 -48.183  0.00  0.00     0.056 A 
ATOM     24  C   UNL d   1     -44.464-123.549 -49.508  0.00  0.00     0.040 A 
ATOM     25  S   UNL d   1     -44.926-123.815 -48.861  0.00  0.00    -0.084 SA
BRANCH  19  26
ATOM     26  C   UNL d   1     -41.897-122.434 -48.602  0.00  0.00     0.088 C 
ATOM     27  C   UNL d   1     -41.528-123.195 -48.656  0.00  0.00     0.025 C 
ATOM     28  C   UNL d   1     -42.264-121.654 -48.546  0.00  0.00     0.025 C 
ATOM     29  C   UNL d   1     -41.123-122.048 -48.481  0.00  0.00     0.025 C 
ENDBRANCH  19  26
ENDBRANCH   1  18
TORSDOF 5
ENDMDL
MODEL 4
REMARK VINA RESULT:      13.1      0.745      1.091
REMARK  5 active torsions:
REMARK  status: ('A' for Active; 'I' for Inactive)
REMARK    1  A    between atoms: N_6  and  C_1 
REMARK    2  A    between atoms: C_11  and  N_2 
REMARK    3  A    between atoms: S_3  and  C_10 
REMARK    4  A    between atoms: N_8  and  S_3 
REMARK       I    between atoms: C_9  and  N_6 
REMARK    5  A    between atoms: C_15  and  C_9 
ROOT
ATOM      1  N   UNL d   1     -41.587-122.368 -52.420  0.00  0.00    -0.189 NA
ATOM      2  C   UNL d   1     -42.132-122.635 -51.918  0.00  0.00     0.281 C 
ATOM      3  O   UNL d   1     -42.867-122.781 -52.255  0.00  0.00    -0.265 OA
ENDROOT
BRANCH   2   4
ATOM      4  C   UNL d   1     -41.999-122.767 -51.106  0.00  0.00     0.058 A 
ATOM      5  C   UNL d   1     -41.315-122.836 -50.837  0.00  0.00     0.005 A 
ATOM      6  C   UNL d   1     -41.180-122.961 -50.074  0.00  0.00     0.013 A 
ATOM      7  C   UNL d   1     -41.837-123.014 -49.562  0.00  0.00     0.104 A 
ATOM      8  C   UNL d   1     -42.524-122.932 -49.909  0.00  0.00     0.013 A 
ATOM      9  C   UNL d   1     -42.643-122.808 -50.675  0.00  0.00     0.005 A 
BRANCH   7  10
ATOM     10  S   UNL d   1     -41.697-123.147 -48.743  0.00  0.00     0.271 S 
ATOM     11  O   UNL d   1     -42.181-122.569 -48.537  0.00  0.00    -0.200 OA
ATOM     12  O   UNL d   1     -41.163-123.782 -48.951  0.00  0.00    -0.200 OA
BRANCH  10  13
ATOM     13  N   UNL d   1     -41.604-123.225 -47.936  0.00  0.00    -0.229 N 
ATOM     14  C   UNL d   1     -41.952-123.806 -47.492  0.00  0.00     0.092 A 
ATOM     15  C   UNL d   1     -41.699-123.667 -46.691  0.00  0.00     0.021 A 
ATOM     16  C   UNL d   1     -41.234-123.043 -46.675  0.00  0.00     0.021 A 
ATOM     17  C   UNL d   1     -41.156-122.746 -47.435  0.00  0.00     0.092 A 
ENDBRANCH  10  13
ENDBRANCH   7  10
ENDBRANCH   2   4
BRANCH   1  18
ATOM     18  C   UNL d   1     -41.625-122.210 -53.224  0.00  0.00     0.165 A 
ATOM     19  N   UNL d   1     -41.771-121.586 -53.686  0.00  0.00    -0.238 N 
ATOM     20  N   UNL d   1     -41.747-121.695 -54.444  0.00  0.00    -0.168 NA
ATOM     21  C   UNL d   1     -41.562-122.487 -54.540  0.00  0.00     0.111 A 
ATOM     22  C   UNL d   1     -41.483-122.823 -53.801  0.00  0.00     0.062 A 
ATOM     23  C   UNL d   1     -41.418-123.110 -55.090  0.00  0.00     0.056 A 
ATOM     24  C   UNL d   1     -41.291-123.645 -53.878  0.00  0.00     0.040 A 
ATOM     25  S   UNL d   1     -41.252-123.817 -54.698  0.00  0.00    -0.084 SA
BRANCH  19  26
ATOM     26  C   UNL d   1     -41.950-120.817 -53.410  0.00  0.00     0.088 C 
ATOM     27  C   UNL d   1     -42.752-120.892 -53.671  0.00  0.00     0.025 C 
ATOM     28  C   UNL d   1     -41.134-120.731 -53.139  0.00  0.00     0.025 C 
ATOM     29  C   UNL d   1     -42.104-120.011 -53.110  0.00  0.00     0.025 C 
ENDBRANCH  19  26
ENDBRANCH   1  18
TORSDOF 5
ENDMDL
