MODEL 1
REMARK VINA RESULT:      -8.0      0.000      0.000
REMARK  5 active torsions:
REMARK  status: ('A' for Active; 'I' for Inactive)
REMARK    1  A    between atoms: C_2  and  N_8 
REMARK    2  A    between atoms: C_14  and  C_4 
REMARK    3  A    between atoms: S_13  and  C_5 
REMARK       I    between atoms: N_8  and  C_11 
REMARK    4  A    between atoms: C_11  and  C_17 
REMARK    5  A    between atoms: C_17  and  S_13 
ROOT
ATOM      1  O   UNL d   1      53.384  32.075  54.058  0.00  0.00    -0.263 OA
ATOM      2  N   UNL d   1      54.489  31.693  53.415  0.00  0.00    -0.120 NA
ATOM      3  C   UNL d   1      53.765  31.433  53.690  0.00  0.00     0.205 A 
ATOM      4  C   UNL d   1      53.889  32.727  54.002  0.00  0.00     0.236 A 
ATOM      5  N   UNL d   1      54.569  32.494  53.607  0.00  0.00    -0.114 NA
ENDROOT
BRANCH   4   6
ATOM      6  S   UNL d   1      53.742  33.497  54.294  0.00  0.00    -0.036 SA
BRANCH   6   7
ATOM      7  C   UNL d   1      53.119  33.944  53.989  0.00  0.00     0.101 C 
BRANCH   7   8
ATOM      8  C   UNL d   1      53.016  34.724  54.237  0.00  0.00     0.288 C 
ATOM      9  N   UNL d   1      52.387  35.174  53.947  0.00  0.00    -0.182 NA
ATOM     10  O   UNL d   1      53.545  35.063  54.783  0.00  0.00    -0.265 OA
BRANCH   9  11
ATOM     11  C   UNL d   1      51.866  34.842  53.411  0.00  0.00     0.197 A 
ATOM     12  N   UNL d   1      51.947  34.657  52.601  0.00  0.00    -0.221 NA
ATOM     13  C   UNL d   1      51.236  34.333  52.355  0.00  0.00     0.090 A 
ATOM     14  C   UNL d   1      51.066  34.065  51.578  0.00  0.00     0.021 C 
ATOM     15  C   UNL d   1      50.721  34.312  52.986  0.00  0.00     0.058 A 
ATOM     16  S   UNL d   1      51.110  34.626  53.637  0.00  0.00    -0.046 SA
ENDBRANCH   9  11
ENDBRANCH   7   8
ENDBRANCH   6   7
ENDBRANCH   4   6
BRANCH   3  17
ATOM     17  C   UNL d   1      53.417  30.683  53.643  0.00  0.00     0.046 A 
ATOM     18  C   UNL d   1      53.603  30.097  54.193  0.00  0.00     0.024 A 
ATOM     19  C   UNL d   1      53.256  29.353  54.143  0.00  0.00     0.099 A 
ATOM     20  N   UNL d   1      52.714  29.189  53.535  0.00  0.00    -0.242 NA
ATOM     21  C   UNL d   1      52.531  29.778  52.986  0.00  0.00     0.099 A 
ATOM     22  C   UNL d   1      52.882  30.523  53.041  0.00  0.00     0.024 A 
ENDBRANCH   3  17
TORSDOF 5
ENDMDL
MODEL 2
REMARK VINA RESULT:      -6.7      1.424      2.294
REMARK  5 active torsions:
REMARK  status: ('A' for Active; 'I' for Inactive)
REMARK    1  A    between atoms: C_2  and  N_8 
REMARK    2  A    between atoms: C_14  and  C_4 
REMARK    3  A    between atoms: S_13  and  C_5 
REMARK       I    between atoms: N_8  and  C_11 
REMARK    4  A    between atoms: C_11  and  C_17 
REMARK    5  A    between atoms: C_17  and  S_13 
ROOT
ATOM      1  O   UNL d   1      52.412  31.632  53.439  0.00  0.00    -0.263 OA
ATOM      2  N   UNL d   1      52.880  31.165  52.280  0.00  0.00    -0.120 NA
ATOM      3  C   UNL d   1      52.736  30.967  53.060  0.00  0.00     0.205 A 
ATOM      4  C   UNL d   1      52.362  32.237  52.878  0.00  0.00     0.236 A 
ATOM      5  N   UNL d   1      52.650  31.951  52.164  0.00  0.00    -0.114 NA
ENDROOT
BRANCH   4   6
ATOM      6  S   UNL d   1      52.071  33.011  53.003  0.00  0.00    -0.036 SA
BRANCH   6   7
ATOM      7  C   UNL d   1      52.501  33.546  53.462  0.00  0.00     0.101 C 
BRANCH   7   8
ATOM      8  C   UNL d   1      52.321  34.350  53.428  0.00  0.00     0.288 C 
ATOM      9  N   UNL d   1      52.733  34.890  53.897  0.00  0.00    -0.182 NA
ATOM     10  O   UNL d   1      51.721  34.624  52.919  0.00  0.00    -0.265 OA
BRANCH   9  11
ATOM     11  C   UNL d   1      53.322  34.623  54.397  0.00  0.00     0.197 A 
ATOM     12  N   UNL d   1      54.072  34.290  54.244  0.00  0.00    -0.221 NA
ATOM     13  C   UNL d   1      54.418  34.130  54.969  0.00  0.00     0.090 A 
ATOM     14  C   UNL d   1      55.177  33.790  55.081  0.00  0.00     0.021 C 
ATOM     15  C   UNL d   1      53.907  34.352  55.563  0.00  0.00     0.058 A 
ATOM     16  S   UNL d   1      53.231  34.657  55.211  0.00  0.00    -0.046 SA
ENDBRANCH   9  11
ENDBRANCH   7   8
ENDBRANCH   6   7
ENDBRANCH   4   6
BRANCH   3  17
ATOM     17  C   UNL d   1      52.866  30.252  53.459  0.00  0.00     0.046 A 
ATOM     18  C   UNL d   1      53.486  30.178  53.998  0.00  0.00     0.024 A 
ATOM     19  C   UNL d   1      53.613  29.467  54.393  0.00  0.00     0.099 A 
ATOM     20  N   UNL d   1      53.113  28.818  54.248  0.00  0.00    -0.242 NA
ATOM     21  C   UNL d   1      52.494  28.897  53.707  0.00  0.00     0.099 A 
ATOM     22  C   UNL d   1      52.372  29.613  53.314  0.00  0.00     0.024 A 
ENDBRANCH   3  17
TORSDOF 5
ENDMDL
MODEL 3
REMARK VINA RESULT:      -6.5      1.718      4.524
REMARK  5 active torsions:
REMARK  status: ('A' for Active; 'I' for Inactive)
REMARK    1  A    between atoms: C_2  and  N_8 
REMARK    2  A    between atoms: C_14  and  C_4 
REMARK    3  A    between atoms: S_13  and  C_5 
REMARK       I    between atoms: N_8  and  C_11 
REMARK    4  A    between atoms: C_11  and  C_17 
REMARK    5  A    between atoms: C_17  and  S_13 
ROOT
ATOM      1  O   UNL d   1      51.055  33.317  52.771  0.00  0.00    -0.263 OA
ATOM      2  N   UNL d   1      51.650  34.383  52.231  0.00  0.00    -0.120 NA
ATOM      3  C   UNL d   1      50.942  34.106  52.532  0.00  0.00     0.205 A 
ATOM      4  C   UNL d   1      51.842  33.121  52.611  0.00  0.00     0.236 A 
ATOM      5  N   UNL d   1      52.209  33.775  52.279  0.00  0.00    -0.114 NA
ENDROOT
BRANCH   4   6
ATOM      6  S   UNL d   1      52.212  32.385  52.758  0.00  0.00    -0.036 SA
BRANCH   6   7
ATOM      7  C   UNL d   1      52.867  32.342  53.258  0.00  0.00     0.101 C 
BRANCH   7   8
ATOM      8  C   UNL d   1      53.233  31.616  53.391  0.00  0.00     0.288 C 
ATOM      9  N   UNL d   1      53.865  31.557  53.920  0.00  0.00    -0.182 NA
ATOM     10  O   UNL d   1      52.969  30.934  52.993  0.00  0.00    -0.265 OA
BRANCH   9  11
ATOM     11  C   UNL d   1      54.126  32.225  54.312  0.00  0.00     0.197 A 
ATOM     12  N   UNL d   1      54.643  32.838  54.081  0.00  0.00    -0.221 NA
ATOM     13  C   UNL d   1      54.696  33.361  54.710  0.00  0.00     0.090 A 
ATOM     14  C   UNL d   1      55.157  34.061  54.722  0.00  0.00     0.021 C 
ATOM     15  C   UNL d   1      54.228  33.090  55.320  0.00  0.00     0.058 A 
ATOM     16  S   UNL d   1      53.877  32.390  55.075  0.00  0.00    -0.046 SA
ENDBRANCH   9  11
ENDBRANCH   7   8
ENDBRANCH   6   7
ENDBRANCH   4   6
BRANCH   3  17
ATOM     17  C   UNL d   1      50.213  34.490  52.611  0.00  0.00     0.046 A 
ATOM     18  C   UNL d   1      50.010  34.868  53.316  0.00  0.00     0.024 A 
ATOM     19  C   UNL d   1      49.284  35.249  53.391  0.00  0.00     0.099 A 
ATOM     20  N   UNL d   1      48.751  35.254  52.753  0.00  0.00    -0.242 NA
ATOM     21  C   UNL d   1      48.959  34.874  52.050  0.00  0.00     0.099 A 
ATOM     22  C   UNL d   1      49.687  34.494  51.980  0.00  0.00     0.024 A 
ENDBRANCH   3  17
TORSDOF 5
ENDMDL
MODEL 4
REMARK VINA RESULT:      -6.2      1.281      4.155
REMARK  5 active torsions:
REMARK  status: ('A' for Active; 'I' for Inactive)
REMARK    1  A    between atoms: C_2  and  N_8 
REMARK    2  A    between atoms: C_14  and  C_4 
REMARK    3  A    between atoms: S_13  and  C_5 
REMARK       I    between atoms: N_8  and  C_11 
REMARK    4  A    between atoms: C_11  and  C_17 
REMARK    5  A    between atoms: C_17  and  S_13 
ROOT
ATOM      1  O   UNL d   1      51.794  33.958  53.572  0.00  0.00    -0.263 OA
ATOM      2  N   UNL d   1      52.237  34.886  52.723  0.00  0.00    -0.120 NA
ATOM      3  C   UNL d   1      51.579  34.452  52.939  0.00  0.00     0.205 A 
ATOM      4  C   UNL d   1      52.591  34.099  53.737  0.00  0.00     0.236 A 
ATOM      5  N   UNL d   1      52.865  34.670  53.216  0.00  0.00    -0.114 NA
ENDROOT
BRANCH   4   6
ATOM      6  S   UNL d   1      53.050  33.730  54.332  0.00  0.00    -0.036 SA
BRANCH   6   7
ATOM      7  C   UNL d   1      53.326  32.959  54.223  0.00  0.00     0.101 C 
BRANCH   7   8
ATOM      8  C   UNL d   1      53.877  32.645  54.749  0.00  0.00     0.288 C 
ATOM      9  N   UNL d   1      54.106  31.854  54.691  0.00  0.00    -0.182 NA
ATOM     10  O   UNL d   1      54.208  33.124  55.345  0.00  0.00    -0.265 OA
BRANCH   9  11
ATOM     11  C   UNL d   1      53.783  31.382  54.106  0.00  0.00     0.197 A 
ATOM     12  N   UNL d   1      53.070  30.949  54.074  0.00  0.00    -0.221 NA
ATOM     13  C   UNL d   1      53.044  30.581  53.342  0.00  0.00     0.090 A 
ATOM     14  C   UNL d   1      52.424  30.086  53.069  0.00  0.00     0.021 C 
ATOM     15  C   UNL d   1      53.716  30.773  52.923  0.00  0.00     0.058 A 
ATOM     16  S   UNL d   1      54.172  31.268  53.394  0.00  0.00    -0.046 SA
ENDBRANCH   9  11
ENDBRANCH   7   8
ENDBRANCH   6   7
ENDBRANCH   4   6
BRANCH   3  17
ATOM     17  C   UNL d   1      50.813  34.457  52.624  0.00  0.00     0.046 A 
ATOM     18  C   UNL d   1      50.177  34.735  53.069  0.00  0.00     0.024 A 
ATOM     19  C   UNL d   1      49.417  34.739  52.753  0.00  0.00     0.099 A 
ATOM     20  N   UNL d   1      49.288  34.461  51.980  0.00  0.00    -0.242 NA
ATOM     21  C   UNL d   1      49.928  34.183  51.538  0.00  0.00     0.099 A 
ATOM     22  C   UNL d   1      50.688  34.182  51.860  0.00  0.00     0.024 A 
ENDBRANCH   3  17
TORSDOF 5
ENDMDL
