MODEL 1
REMARK VINA RESULT:      17.5      0.000      0.000
REMARK  1 active torsions:
REMARK  status: ('A' for Active; 'I' for Inactive)
REMARK    1  A    between atoms: C_12  and  C_1 
ROOT
ATOM      1  C   UNL d   1     -59.102 -98.761 -44.141  0.00  0.00     0.019 A 
ATOM      2  C   UNL d   1     -58.044 -98.760 -45.107  0.00  0.00     0.103 A 
ATOM      3  C   UNL d   1     -58.298 -98.760 -44.323  0.00  0.00     0.024 A 
ATOM      4  O   UNL d   1     -58.595 -98.762 -45.719  0.00  0.00    -0.273 OA
ATOM      5  C   UNL d   1     -59.402 -98.763 -45.539  0.00  0.00     0.300 A 
ATOM      6  C   UNL d   1     -59.657 -98.763 -44.754  0.00  0.00     0.070 A 
ATOM      7  C   UNL d   1     -57.743 -98.758 -43.712  0.00  0.00     0.002 A 
ATOM      8  C   UNL d   1     -57.233 -98.759 -45.282  0.00  0.00     0.025 A 
ATOM      9  C   UNL d   1     -56.939 -98.757 -43.882  0.00  0.00     0.000 A 
ATOM     10  O   UNL d   1     -59.960 -98.765 -46.154  0.00  0.00    -0.259 OA
ATOM     11  C   UNL d   1     -56.683 -98.757 -44.670  0.00  0.00     0.002 A 
ATOM     12  C   UNL d   1     -57.990 -98.758 -42.925  0.00  0.00     0.000 C 
ATOM     13  C   UNL d   1     -55.870 -98.755 -44.839  0.00  0.00     0.000 C 
ENDROOT
BRANCH   1  14
ATOM     14  C   UNL d   1     -59.349 -98.761 -43.354  0.00  0.00     0.069 C 
ATOM     15 CL   UNL d   1     -59.941 -99.282 -43.114  0.00  0.00    -0.082 Cl
ENDBRANCH   1  14
TORSDOF 1
ENDMDL
MODEL 2
REMARK VINA RESULT:      18.1      1.226      2.311
REMARK  1 active torsions:
REMARK  status: ('A' for Active; 'I' for Inactive)
REMARK    1  A    between atoms: C_12  and  C_1 
ROOT
ATOM      1  C   UNL d   1     -58.124 -98.804 -45.017  0.00  0.00     0.019 A 
ATOM      2  C   UNL d   1     -59.407 -98.779 -44.382  0.00  0.00     0.103 A 
ATOM      3  C   UNL d   1     -58.585 -98.792 -44.335  0.00  0.00     0.024 A 
ATOM      4  O   UNL d   1     -59.778 -98.778 -45.118  0.00  0.00    -0.273 OA
ATOM      5  C   UNL d   1     -59.317 -98.790 -45.804  0.00  0.00     0.300 A 
ATOM      6  C   UNL d   1     -58.494 -98.803 -45.757  0.00  0.00     0.070 A 
ATOM      7  C   UNL d   1     -58.218 -98.794 -43.595  0.00  0.00     0.002 A 
ATOM      8  C   UNL d   1     -59.865 -98.768 -43.690  0.00  0.00     0.025 A 
ATOM      9  C   UNL d   1     -58.667 -98.782 -42.908  0.00  0.00     0.000 A 
ATOM     10  O   UNL d   1     -59.688 -98.788 -46.548  0.00  0.00    -0.259 OA
ATOM     11  C   UNL d   1     -59.494 -98.769 -42.956  0.00  0.00     0.002 A 
ATOM     12  C   UNL d   1     -57.395 -98.807 -43.540  0.00  0.00     0.000 C 
ATOM     13  C   UNL d   1     -59.947 -98.757 -42.260  0.00  0.00     0.000 C 
ENDROOT
BRANCH   1  14
ATOM     14  C   UNL d   1     -57.301 -98.817 -44.961  0.00  0.00     0.069 C 
ATOM     15 CL   UNL d   1     -56.847 -98.775 -45.648  0.00  0.00    -0.082 Cl
ENDBRANCH   1  14
TORSDOF 1
ENDMDL
MODEL 3
REMARK VINA RESULT:      18.7      1.595      2.883
REMARK  1 active torsions:
REMARK  status: ('A' for Active; 'I' for Inactive)
REMARK    1  A    between atoms: C_12  and  C_1 
ROOT
ATOM      1  C   UNL d   1     -58.302 -98.757 -44.788  0.00  0.00     0.019 A 
ATOM      2  C   UNL d   1     -58.264 -98.759 -43.356  0.00  0.00     0.103 A 
ATOM      3  C   UNL d   1     -58.690 -98.758 -44.061  0.00  0.00     0.024 A 
ATOM      4  O   UNL d   1     -57.440 -98.760 -43.372  0.00  0.00    -0.273 OA
ATOM      5  C   UNL d   1     -57.049 -98.760 -44.100  0.00  0.00     0.300 A 
ATOM      6  C   UNL d   1     -57.476 -98.758 -44.806  0.00  0.00     0.070 A 
ATOM      7  C   UNL d   1     -59.515 -98.757 -44.040  0.00  0.00     0.002 A 
ATOM      8  C   UNL d   1     -58.662 -98.760 -42.628  0.00  0.00     0.025 A 
ATOM      9  C   UNL d   1     -59.913 -98.758 -43.322  0.00  0.00     0.000 A 
ATOM     10  O   UNL d   1     -56.218 -98.760 -44.120  0.00  0.00    -0.259 OA
ATOM     11  C   UNL d   1     -59.484 -98.759 -42.612  0.00  0.00     0.002 A 
ATOM     12  C   UNL d   1     -59.949 -98.756 -44.742  0.00  0.00     0.000 C 
ATOM     13  C   UNL d   1     -59.888 -98.760 -41.887  0.00  0.00     0.000 C 
ENDROOT
BRANCH   1  14
ATOM     14  C   UNL d   1     -58.736 -98.756 -45.490  0.00  0.00     0.069 C 
ATOM     15 CL   UNL d   1     -58.340 -98.787 -46.212  0.00  0.00    -0.082 Cl
ENDBRANCH   1  14
TORSDOF 1
ENDMDL
