MODEL 1
REMARK VINA RESULT:      10.1      0.000      0.000
REMARK  6 active torsions:
REMARK  status: ('A' for Active; 'I' for Inactive)
REMARK    1  A    between atoms: C_6  and  N_1 
REMARK    2  A    between atoms: C_5  and  C_3 
REMARK    3  A    between atoms: C_9  and  C_4 
REMARK    4  A    between atoms: N_12  and  C_6 
REMARK    5  A    between atoms: O_21  and  C_8 
REMARK    6  A    between atoms: O_22  and  C_16 
ROOT
ATOM      1  N   UNL d   1     -42.882-122.506 -51.375  0.00  0.00    -0.203 N 
ATOM      2  N   UNL d   1     -42.871-122.568 -52.187  0.00  0.00    -0.163 NA
ATOM      3  C   UNL d   1     -42.100-122.580 -51.094  0.00  0.00     0.089 A 
ATOM      4  C   UNL d   1     -42.117-122.678 -52.437  0.00  0.00     0.103 A 
ATOM      5  C   UNL d   1     -41.621-122.688 -51.767  0.00  0.00     0.040 A 
ENDROOT
BRANCH   3   6
ATOM      6  C   UNL d   1     -41.828-122.554 -50.315  0.00  0.00     0.042 A 
ATOM      7  C   UNL d   1     -41.402-121.896 -50.060  0.00  0.00     0.096 A 
ATOM      8  C   UNL d   1     -41.123-121.856 -49.281  0.00  0.00     0.026 A 
ATOM      9  C   UNL d   1     -41.278-122.477 -48.776  0.00  0.00     0.026 A 
ATOM     10  C   UNL d   1     -41.705-123.136 -49.031  0.00  0.00     0.094 A 
ATOM     11  C   UNL d   1     -41.977-123.159 -49.814  0.00  0.00     0.028 A 
BRANCH   7  12
ATOM     12  O   UNL d   1     -41.239-121.249 -50.580  0.00  0.00    -0.328 OA
ATOM     13  C   UNL d   1     -41.198-120.486 -50.284  0.00  0.00     0.181 C 
ENDBRANCH   7  12
BRANCH  10  14
ATOM     14  O   UNL d   1     -41.867-123.790 -48.496  0.00  0.00    -0.328 OA
ATOM     15  C   UNL d   1     -41.683-123.730 -47.702  0.00  0.00     0.181 C 
ENDBRANCH  10  14
ENDBRANCH   3   6
BRANCH   1  16
ATOM     16  C   UNL d   1     -43.564-122.388 -50.904  0.00  0.00     0.222 C 
ATOM     17  S   UNL d   1     -43.758-122.956 -50.322  0.00  0.00    -0.037 SA
BRANCH  16  18
ATOM     18  N   UNL d   1     -44.044-121.710 -51.018  0.00  0.00    -0.214 NA
ATOM     19  C   UNL d   1     -44.869-121.742 -50.885  0.00  0.00     0.122 C 
ENDBRANCH  16  18
ENDBRANCH   1  16
BRANCH   4  20
ATOM     20  C   UNL d   1     -41.903-122.763 -53.221  0.00  0.00     0.019 A 
ATOM     21  C   UNL d   1     -42.224-123.348 -53.674  0.00  0.00     0.002 A 
ATOM     22  C   UNL d   1     -42.012-123.438 -54.464  0.00  0.00     0.000 A 
ATOM     23  C   UNL d   1     -41.452-122.906 -54.790  0.00  0.00     0.000 A 
ATOM     24  C   UNL d   1     -41.127-122.309 -54.320  0.00  0.00     0.000 A 
ATOM     25  C   UNL d   1     -41.224-122.977 -55.579  0.00  0.00     0.000 C 
ATOM     26  C   UNL d   1     -41.350-122.237 -53.542  0.00  0.00     0.002 A 
ENDBRANCH   4  20
TORSDOF 6
ENDMDL
