MODEL 1
REMARK VINA RESULT:      -5.4      0.000      0.000
REMARK  5 active torsions:
REMARK  status: ('A' for Active; 'I' for Inactive)
REMARK    1  A    between atoms: C_7  and  C_3 
REMARK    2  A    between atoms: C_8  and  C_7 
REMARK       I    between atoms: N_14  and  C_8 
REMARK    3  A    between atoms: N_9  and  C_16 
REMARK    4  A    between atoms: C_15  and  N_14 
REMARK    5  A    between atoms: C_16  and  C_15 
ROOT
ATOM      1  C   UNL d   1     -41.254-122.948 -51.538  0.00  0.00     0.281 C 
ATOM      2  O   UNL d   1     -41.326-122.140 -51.389  0.00  0.00    -0.265 OA
ATOM      3  N   UNL d   1     -41.303-123.231 -52.310  0.00  0.00    -0.205 NA
ENDROOT
BRANCH   1   4
ATOM      4  C   UNL d   1     -41.133-123.473 -50.916  0.00  0.00     0.082 C 
BRANCH   4   5
ATOM      5  C   UNL d   1     -41.629-123.453 -50.255  0.00  0.00     0.096 A 
ATOM      6  C   UNL d   1     -41.325-123.240 -49.518  0.00  0.00     0.082 A 
ATOM      7  C   UNL d   1     -41.813-123.216 -48.847  0.00  0.00     0.285 A 
ATOM      8  N   UNL d   1     -42.610-123.411 -48.937  0.00  0.00    -0.152 NA
ATOM      9  O   UNL d   1     -41.511-123.005 -48.118  0.00  0.00    -0.265 OA
ATOM     10  C   UNL d   1     -42.915-123.624 -49.674  0.00  0.00     0.371 A 
ATOM     11  N   UNL d   1     -42.425-123.644 -50.327  0.00  0.00    -0.191 NA
ATOM     12  O   UNL d   1     -43.715-123.817 -49.749  0.00  0.00    -0.242 OA
ENDBRANCH   4   5
ENDBRANCH   1   4
BRANCH   3  13
ATOM     13  C   UNL d   1     -41.424-122.707 -52.932  0.00  0.00     0.121 C 
BRANCH  13  14
ATOM     14  C   UNL d   1     -41.437-122.984 -53.715  0.00  0.00     0.101 C 
BRANCH  14  15
ATOM     15  N   UNL d   1     -41.705-122.508 -54.328  0.00  0.00    -0.298 N 
ATOM     16  C   UNL d   1     -41.290-122.520 -55.041  0.00  0.00     0.107 A 
ATOM     17  C   UNL d   1     -41.558-122.039 -55.668  0.00  0.00     0.142 A 
ATOM     18  O   UNL d   1     -42.220-121.566 -55.572  0.00  0.00    -0.300 OA
ATOM     19  C   UNL d   1     -42.621-121.569 -54.851  0.00  0.00     0.142 A 
ATOM     20  C   UNL d   1     -42.361-122.041 -54.231  0.00  0.00     0.107 A 
ENDBRANCH  14  15
ENDBRANCH  13  14
ENDBRANCH   3  13
TORSDOF 5
ENDMDL
MODEL 2
REMARK VINA RESULT:      -4.8      0.446      1.122
REMARK  5 active torsions:
REMARK  status: ('A' for Active; 'I' for Inactive)
REMARK    1  A    between atoms: C_7  and  C_3 
REMARK    2  A    between atoms: C_8  and  C_7 
REMARK       I    between atoms: N_14  and  C_8 
REMARK    3  A    between atoms: N_9  and  C_16 
REMARK    4  A    between atoms: C_15  and  N_14 
REMARK    5  A    between atoms: C_16  and  C_15 
ROOT
ATOM      1  C   UNL d   1     -41.257-122.821 -51.573  0.00  0.00     0.281 C 
ATOM      2  O   UNL d   1     -41.324-122.011 -51.429  0.00  0.00    -0.265 OA
ATOM      3  N   UNL d   1     -41.325-123.110 -52.341  0.00  0.00    -0.205 NA
ENDROOT
BRANCH   1   4
ATOM      4  C   UNL d   1     -41.123-123.340 -50.949  0.00  0.00     0.082 C 
BRANCH   4   5
ATOM      5  C   UNL d   1     -41.558-123.269 -50.250  0.00  0.00     0.096 A 
ATOM      6  C   UNL d   1     -42.381-123.323 -50.271  0.00  0.00     0.082 A 
ATOM      7  C   UNL d   1     -42.829-123.254 -49.575  0.00  0.00     0.285 A 
ATOM      8  N   UNL d   1     -42.430-123.129 -48.864  0.00  0.00    -0.152 NA
ATOM      9  O   UNL d   1     -43.644-123.307 -49.596  0.00  0.00    -0.265 OA
ATOM     10  C   UNL d   1     -41.607-123.075 -48.843  0.00  0.00     0.371 A 
ATOM     11  N   UNL d   1     -41.175-123.145 -49.533  0.00  0.00    -0.191 NA
ATOM     12  O   UNL d   1     -41.220-122.950 -48.124  0.00  0.00    -0.242 OA
ENDBRANCH   4   5
ENDBRANCH   1   4
BRANCH   3  13
ATOM     13  C   UNL d   1     -41.459-122.591 -52.964  0.00  0.00     0.121 C 
BRANCH  13  14
ATOM     14  C   UNL d   1     -41.350-122.842 -53.748  0.00  0.00     0.101 C 
BRANCH  14  15
ATOM     15  N   UNL d   1     -41.696-122.440 -54.375  0.00  0.00    -0.298 N 
ATOM     16  C   UNL d   1     -41.311-122.448 -55.105  0.00  0.00     0.107 A 
ATOM     17  C   UNL d   1     -41.657-122.041 -55.745  0.00  0.00     0.142 A 
ATOM     18  O   UNL d   1     -42.366-121.641 -55.645  0.00  0.00    -0.300 OA
ATOM     19  C   UNL d   1     -42.735-121.645 -54.907  0.00  0.00     0.142 A 
ATOM     20  C   UNL d   1     -42.397-122.045 -54.274  0.00  0.00     0.107 A 
ENDBRANCH  14  15
ENDBRANCH  13  14
ENDBRANCH   3  13
TORSDOF 5
ENDMDL
