MODEL 1
REMARK VINA RESULT:      -4.6      0.000      0.000
REMARK  11 active torsions:
REMARK  status: ('A' for Active; 'I' for Inactive)
REMARK    1  A    between atoms: C_2  and  C_1 
REMARK       I    between atoms: N_5  and  C_1 
REMARK    2  A    between atoms: C_4  and  C_2 
REMARK    3  A    between atoms: C_3  and  C_4 
REMARK    4  A    between atoms: O_10  and  C_3 
REMARK    5  A    between atoms: N_9  and  C_4 
REMARK    6  A    between atoms: C_8  and  N_5 
REMARK    7  A    between atoms: C_17  and  N_9 
REMARK    8  A    between atoms: O_16  and  C_11 
REMARK    9  A    between atoms: C_19  and  C_17 
REMARK   10  A    between atoms: C_21  and  C_19 
REMARK   11  A    between atoms: C_20  and  C_21 
ROOT
ATOM      1  C   UNK d   1      58.416   0.049  30.405  0.00  0.00     0.084 C 
ENDROOT
BRANCH   1   2
ATOM      2  C   UNK d   1      57.715   0.064  30.851  0.00  0.00     0.259 C 
ATOM      3  N   UNK d   1      57.734  -0.125  31.651  0.00  0.00    -0.321 N 
ATOM      4  H   UNK d   1      58.446  -0.330  32.016  0.00  0.00     0.169 HD
ATOM      5  O   UNK d   1      57.010   0.269  30.483  0.00  0.00    -0.267 OA
BRANCH   3   6
ATOM      6  C   UNK d   1      57.024  -0.107  32.093  0.00  0.00     0.059 A 
ATOM      7  C   UNK d   1      56.651  -0.810  32.295  0.00  0.00     0.019 A 
ATOM      8  C   UNK d   1      55.953  -0.788  32.730  0.00  0.00     0.026 A 
ATOM      9  C   UNK d   1      55.627  -0.066  32.963  0.00  0.00     0.094 A 
ATOM     10  C   UNK d   1      56.007   0.637  32.757  0.00  0.00     0.026 A 
ATOM     11  C   UNK d   1      56.709   0.610  32.319  0.00  0.00     0.019 A 
BRANCH   9  12
ATOM     12  O   UNK d   1      54.928  -0.045  33.398  0.00  0.00    -0.328 OA
ATOM     13  C   UNK d   1      54.911   0.328  34.129  0.00  0.00     0.181 C 
ENDBRANCH   9  12
ENDBRANCH   3   6
ENDBRANCH   1   2
BRANCH   1  14
ATOM     14  C   UNK d   1      58.417  -0.249  29.643  0.00  0.00     0.124 C 
BRANCH  14  15
ATOM     15  C   UNK d   1      58.507   0.260  29.002  0.00  0.00     0.194 C 
ATOM     16  O   UNK d   1      59.216   0.682  28.896  0.00  0.00    -0.645 OA
BRANCH  15  17
ATOM     17  O   UNK d   1      57.897   0.356  28.461  0.00  0.00    -0.772 OA
ATOM     18  H   UNK d   1      57.650   1.113  28.249  0.00  0.00     0.167 HD
ENDBRANCH  15  17
ENDBRANCH  14  15
BRANCH  14  19
ATOM     19  N   UNK d   1      58.326  -1.065  29.517  0.00  0.00    -0.347 N 
ATOM     20  H   UNK d   1      57.599  -1.423  29.672  0.00  0.00     0.166 HD
BRANCH  19  21
ATOM     21  C   UNK d   0      58.960  -1.512  29.240  0.00  0.00     0.073 C 
BRANCH  21  22
ATOM     22  C   UNK d   0      58.882  -2.330  29.165  0.00  0.00     0.018 C 
BRANCH  22  23
ATOM     23  C   UNK d   0      59.490  -2.764  28.807  0.00  0.00     0.002 C 
BRANCH  23  24
ATOM     24  C   UNK d   0      59.835  -3.403  29.193  0.00  0.00     0.000 C 
ATOM     25  C   UNK d   0      60.402  -3.852  28.793  0.00  0.00     0.000 C 
ENDBRANCH  23  24
ENDBRANCH  22  23
ENDBRANCH  21  22
ENDBRANCH  19  21
ENDBRANCH  14  19
ENDBRANCH   1  14
TORSDOF 11
ENDMDL
