MODEL 1
REMARK VINA RESULT:      -2.1      0.000      0.000
REMARK  6 active torsions:
REMARK  status: ('A' for Active; 'I' for Inactive)
REMARK    1  A    between atoms: C_8  and  C_1 
REMARK    2  A    between atoms: C_7  and  C_2 
REMARK    3  A    between atoms: O_11  and  C_7 
REMARK    4  A    between atoms: O_12  and  C_8 
REMARK    5  A    between atoms: C_16  and  O_11 
REMARK    6  A    between atoms: C_15  and  O_12 
ROOT
ATOM      1  C   UNL d   1      30.737  16.531 -24.118  0.00  0.00     0.081 A 
ATOM      2  C   UNL d   1      32.096  16.973 -24.222  0.00  0.00     0.081 A 
ATOM      3  N   UNL d   1      31.754  15.911 -23.329  0.00  0.00    -0.245 NA
ATOM      4  C   UNL d   1      32.322  16.412 -23.661  0.00  0.00     0.086 A 
ATOM      5  C   UNL d   1      30.963  15.970 -23.557  0.00  0.00     0.086 A 
ATOM      6  C   UNL d   1      31.305  17.029 -24.447  0.00  0.00     0.014 A 
ATOM      7  C   UNL d   1      30.404  15.460 -23.215  0.00  0.00     0.021 C 
ATOM      8  C   UNL d   1      33.132  16.348 -23.424  0.00  0.00     0.021 C 
ENDROOT
BRANCH   1   9
ATOM      9  C   UNL d   1      29.945  16.603 -24.358  0.00  0.00     0.302 C 
ATOM     10  O   UNL d   1      29.579  16.012 -24.802  0.00  0.00    -0.259 OA
BRANCH   9  11
ATOM     11  O   UNL d   1      29.519  17.278 -24.147  0.00  0.00    -0.271 OA
BRANCH  11  12
ATOM     12  C   UNL d   1      28.757  17.398 -24.433  0.00  0.00     0.126 C 
ATOM     13  C   UNL d   1      28.440  18.091 -24.320  0.00  0.00     0.029 C 
ENDBRANCH  11  12
ENDBRANCH   9  11
ENDBRANCH   1   9
BRANCH   2  14
ATOM     14  C   UNL d   1      32.679  17.476 -24.552  0.00  0.00     0.302 C 
ATOM     15  O   UNL d   1      33.217  17.190 -25.085  0.00  0.00    -0.259 OA
BRANCH  14  16
ATOM     16  O   UNL d   1      32.699  18.290 -24.322  0.00  0.00    -0.271 OA
BRANCH  16  17
ATOM     17  C   UNL d   1      33.102  18.834 -24.769  0.00  0.00     0.126 C 
ATOM     18  C   UNL d   1      33.241  19.679 -24.498  0.00  0.00     0.029 C 
ENDBRANCH  16  17
ENDBRANCH  14  16
ENDBRANCH   2  14
TORSDOF 6
ENDMDL
MODEL 2
REMARK VINA RESULT:      -1.9      1.089      3.444
REMARK  6 active torsions:
REMARK  status: ('A' for Active; 'I' for Inactive)
REMARK    1  A    between atoms: C_8  and  C_1 
REMARK    2  A    between atoms: C_7  and  C_2 
REMARK    3  A    between atoms: O_11  and  C_7 
REMARK    4  A    between atoms: O_12  and  C_8 
REMARK    5  A    between atoms: C_16  and  O_11 
REMARK    6  A    between atoms: C_15  and  O_12 
ROOT
ATOM      1  C   UNL d   1      32.019  17.414 -24.094  0.00  0.00     0.081 A 
ATOM      2  C   UNL d   1      30.722  16.864 -24.358  0.00  0.00     0.081 A 
ATOM      3  N   UNL d   1      31.885  16.038 -24.452  0.00  0.00    -0.245 NA
ATOM      4  C   UNL d   1      31.065  16.129 -24.508  0.00  0.00     0.086 A 
ATOM      5  C   UNL d   1      32.362  16.679 -24.245  0.00  0.00     0.086 A 
ATOM      6  C   UNL d   1      31.202  17.503 -24.151  0.00  0.00     0.014 A 
ATOM      7  C   UNL d   1      33.183  16.574 -24.192  0.00  0.00     0.021 C 
ATOM      8  C   UNL d   1      30.580  15.468 -24.721  0.00  0.00     0.021 C 
ENDROOT
BRANCH   1   9
ATOM      9  C   UNL d   1      32.485  18.070 -23.885  0.00  0.00     0.302 C 
ATOM     10  O   UNL d   1      32.916  18.485 -24.453  0.00  0.00    -0.259 OA
BRANCH   9  11
ATOM     11  O   UNL d   1      32.514  18.308 -23.095  0.00  0.00    -0.271 OA
BRANCH  11  12
ATOM     12  C   UNL d   1      32.898  19.004 -22.883  0.00  0.00     0.126 C 
ATOM     13  C   UNL d   1      32.904  19.194 -22.136  0.00  0.00     0.029 C 
ENDBRANCH  11  12
ENDBRANCH   9  11
ENDBRANCH   1   9
BRANCH   2  14
ATOM     14  C   UNL d   1      29.891  16.946 -24.418  0.00  0.00     0.302 C 
ATOM     15  O   UNL d   1      29.552  17.227 -25.097  0.00  0.00    -0.259 OA
BRANCH  14  16
ATOM     16  O   UNL d   1      29.407  16.730 -23.758  0.00  0.00    -0.271 OA
BRANCH  16  17
ATOM     17  C   UNL d   1      28.626  16.946 -23.734  0.00  0.00     0.126 C 
ATOM     18  C   UNL d   1      28.049  16.619 -23.127  0.00  0.00     0.029 C 
ENDBRANCH  16  17
ENDBRANCH  14  16
ENDBRANCH   2  14
TORSDOF 6
ENDMDL
MODEL 3
REMARK VINA RESULT:      -1.4      1.265      2.190
REMARK  6 active torsions:
REMARK  status: ('A' for Active; 'I' for Inactive)
REMARK    1  A    between atoms: C_8  and  C_1 
REMARK    2  A    between atoms: C_7  and  C_2 
REMARK    3  A    between atoms: O_11  and  C_7 
REMARK    4  A    between atoms: O_12  and  C_8 
REMARK    5  A    between atoms: C_16  and  O_11 
REMARK    6  A    between atoms: C_15  and  O_12 
ROOT
ATOM      1  C   UNL d   1      30.099  16.711 -24.445  0.00  0.00     0.081 A 
ATOM      2  C   UNL d   1      31.529  16.802 -24.426  0.00  0.00     0.081 A 
ATOM      3  N   UNL d   1      30.745  17.920 -24.846  0.00  0.00    -0.245 NA
ATOM      4  C   UNL d   1      31.483  17.579 -24.700  0.00  0.00     0.086 A 
ATOM      5  C   UNL d   1      30.053  17.488 -24.719  0.00  0.00     0.086 A 
ATOM      6  C   UNL d   1      30.837  16.372 -24.300  0.00  0.00     0.014 A 
ATOM      7  C   UNL d   1      29.319  17.843 -24.869  0.00  0.00     0.021 C 
ATOM      8  C   UNL d   1      32.190  18.027 -24.832  0.00  0.00     0.021 C 
ENDROOT
BRANCH   1   9
ATOM      9  C   UNL d   1      29.413  16.262 -24.311  0.00  0.00     0.302 C 
ATOM     10  O   UNL d   1      28.994  15.928 -24.939  0.00  0.00    -0.259 OA
BRANCH   9  11
ATOM     11  O   UNL d   1      29.149  16.149 -23.537  0.00  0.00    -0.271 OA
BRANCH  11  12
ATOM     12  C   UNL d   1      28.396  15.851 -23.392  0.00  0.00     0.126 C 
ATOM     13  C   UNL d   1      28.187  15.753 -22.657  0.00  0.00     0.029 C 
ENDBRANCH  11  12
ENDBRANCH   9  11
ENDBRANCH   1   9
BRANCH   2  14
ATOM     14  C   UNL d   1      32.283  16.465 -24.281  0.00  0.00     0.302 C 
ATOM     15  O   UNL d   1      32.767  16.260 -24.896  0.00  0.00    -0.259 OA
BRANCH  14  16
ATOM     16  O   UNL d   1      32.531  16.340 -23.482  0.00  0.00    -0.271 OA
BRANCH  16  17
ATOM     17  C   UNL d   1      33.125  15.814 -23.314  0.00  0.00     0.126 C 
ATOM     18  C   UNL d   1      33.240  15.455 -22.499  0.00  0.00     0.029 C 
ENDBRANCH  16  17
ENDBRANCH  14  16
ENDBRANCH   2  14
TORSDOF 6
ENDMDL
MODEL 4
REMARK VINA RESULT:      -0.2      3.042      4.725
REMARK  6 active torsions:
REMARK  status: ('A' for Active; 'I' for Inactive)
REMARK    1  A    between atoms: C_8  and  C_1 
REMARK    2  A    between atoms: C_7  and  C_2 
REMARK    3  A    between atoms: O_11  and  C_7 
REMARK    4  A    between atoms: O_12  and  C_8 
REMARK    5  A    between atoms: C_16  and  O_11 
REMARK    6  A    between atoms: C_15  and  O_12 
ROOT
ATOM      1  C   UNL d   1      32.717  20.637 -21.834  0.00  0.00     0.081 A 
ATOM      2  C   UNL d   1      32.785  19.570 -22.788  0.00  0.00     0.081 A 
ATOM      3  N   UNL d   1      33.167  19.343 -21.429  0.00  0.00    -0.245 NA
ATOM      4  C   UNL d   1      33.063  19.062 -22.200  0.00  0.00     0.086 A 
ATOM      5  C   UNL d   1      32.994  20.129 -21.246  0.00  0.00     0.086 A 
ATOM      6  C   UNL d   1      32.614  20.355 -22.601  0.00  0.00     0.014 A 
ATOM      7  C   UNL d   1      33.104  20.397 -20.468  0.00  0.00     0.021 C 
ATOM      8  C   UNL d   1      33.241  18.255 -22.383  0.00  0.00     0.021 C 
ENDROOT
BRANCH   1   9
ATOM      9  C   UNL d   1      32.539  21.431 -21.666  0.00  0.00     0.302 C 
ATOM     10  O   UNL d   1      32.035  21.632 -21.044  0.00  0.00    -0.259 OA
BRANCH   9  11
ATOM     11  O   UNL d   1      32.873  22.026 -22.130  0.00  0.00    -0.271 OA
BRANCH  11  12
ATOM     12  C   UNL d   1      32.815  22.815 -21.903  0.00  0.00     0.126 C 
ATOM     13  C   UNL d   1      33.082  23.347 -22.393  0.00  0.00     0.029 C 
ENDBRANCH  11  12
ENDBRANCH   9  11
ENDBRANCH   1   9
BRANCH   2  14
ATOM     14  C   UNL d   1      32.683  19.276 -23.566  0.00  0.00     0.302 C 
ATOM     15  O   UNL d   1      33.208  19.469 -24.151  0.00  0.00    -0.259 OA
BRANCH  14  16
ATOM     16  O   UNL d   1      32.023  18.774 -23.733  0.00  0.00    -0.271 OA
BRANCH  16  17
ATOM     17  C   UNL d   1      31.672  18.786 -24.463  0.00  0.00     0.126 C 
ATOM     18  C   UNL d   1      31.002  18.233 -24.691  0.00  0.00     0.029 C 
ENDBRANCH  16  17
ENDBRANCH  14  16
ENDBRANCH   2  14
TORSDOF 6
ENDMDL
MODEL 5
REMARK VINA RESULT:       0.5      4.190      6.088
REMARK  6 active torsions:
REMARK  status: ('A' for Active; 'I' for Inactive)
REMARK    1  A    between atoms: C_8  and  C_1 
REMARK    2  A    between atoms: C_7  and  C_2 
REMARK    3  A    between atoms: O_11  and  C_7 
REMARK    4  A    between atoms: O_12  and  C_8 
REMARK    5  A    between atoms: C_16  and  O_11 
REMARK    6  A    between atoms: C_15  and  O_12 
ROOT
ATOM      1  C   UNL d   1      32.556  22.213 -21.582  0.00  0.00     0.081 A 
ATOM      2  C   UNL d   1      32.876  20.921 -22.114  0.00  0.00     0.081 A 
ATOM      3  N   UNL d   1      32.910  22.073 -22.959  0.00  0.00    -0.245 NA
ATOM      4  C   UNL d   1      33.005  21.258 -22.856  0.00  0.00     0.086 A 
ATOM      5  C   UNL d   1      32.686  22.550 -22.324  0.00  0.00     0.086 A 
ATOM      6  C   UNL d   1      32.652  21.400 -21.481  0.00  0.00     0.014 A 
ATOM      7  C   UNL d   1      32.595  23.366 -22.443  0.00  0.00     0.021 C 
ATOM      8  C   UNL d   1      33.236  20.773 -23.510  0.00  0.00     0.021 C 
ENDROOT
BRANCH   1   9
ATOM      9  C   UNL d   1      32.330  22.679 -20.933  0.00  0.00     0.302 C 
ATOM     10  O   UNL d   1      31.555  22.950 -20.852  0.00  0.00    -0.259 OA
BRANCH   9  11
ATOM     11  O   UNL d   1      32.892  22.872 -20.360  0.00  0.00    -0.271 OA
BRANCH  11  12
ATOM     12  C   UNL d   1      32.658  23.155 -19.624  0.00  0.00     0.126 C 
ATOM     13  C   UNL d   1      33.186  23.165 -19.062  0.00  0.00     0.029 C 
ENDBRANCH  11  12
ENDBRANCH   9  11
ENDBRANCH   1   9
BRANCH   2  14
ATOM     14  C   UNL d   1      32.975  20.094 -22.019  0.00  0.00     0.302 C 
ATOM     15  O   UNL d   1      33.241  19.789 -21.318  0.00  0.00    -0.259 OA
BRANCH  14  16
ATOM     16  O   UNL d   1      32.792  19.581 -22.666  0.00  0.00    -0.271 OA
BRANCH  16  17
ATOM     17  C   UNL d   1      32.813  18.776 -22.570  0.00  0.00     0.126 C 
ATOM     18  C   UNL d   1      32.229  18.223 -22.970  0.00  0.00     0.029 C 
ENDBRANCH  16  17
ENDBRANCH  14  16
ENDBRANCH   2  14
TORSDOF 6
ENDMDL
