MODEL 1
REMARK VINA RESULT:      -4.8      0.000      0.000
REMARK  6 active torsions:
REMARK  status: ('A' for Active; 'I' for Inactive)
REMARK    1  A    between atoms: C_2  and  S_1 
REMARK    2  A    between atoms: N_4  and  S_1 
REMARK    3  A    between atoms: C_9  and  C_17 
REMARK       I    between atoms: N_20  and  C_9 
REMARK    4  A    between atoms: C_18  and  C_25 
REMARK    5  A    between atoms: C_24  and  N_20 
REMARK    6  A    between atoms: C_25  and  C_24 
ROOT
ATOM      1  N   UNL d   1      59.608  -0.788  29.272  0.00  0.00    -0.229 N 
ATOM      2  C   UNL d   1      58.955  -0.516  28.841  0.00  0.00     0.092 A 
ATOM      3  C   UNL d   1      59.594  -0.754  30.095  0.00  0.00     0.092 A 
ATOM      4  C   UNL d   1      58.284  -0.180  30.062  0.00  0.00     0.061 A 
ATOM      5  C   UNL d   1      58.934  -0.452  30.488  0.00  0.00     0.025 A 
ATOM      6  C   UNL d   1      58.296  -0.213  29.233  0.00  0.00     0.025 A 
ENDROOT
BRANCH   1   7
ATOM      7  S   UNL d   1      60.271  -1.093  28.878  0.00  0.00     0.273 S 
ATOM      8  O   UNL d   1      60.927  -1.394  28.486  0.00  0.00    -0.200 OA
ATOM      9  O   UNL d   1      60.642  -0.358  28.935  0.00  0.00    -0.200 OA
BRANCH   7  10
ATOM     10  C   UNL d   1      59.897  -1.831  28.820  0.00  0.00     0.125 A 
ATOM     11  C   UNL d   1      60.287  -2.514  29.067  0.00  0.00     0.142 A 
ATOM     12  C   UNL d   1      59.916  -3.248  29.010  0.00  0.00     0.131 A 
ATOM     13  N   UNL d   1      61.041  -2.629  29.390  0.00  0.00    -0.101 NA
ATOM     14  N   UNL d   1      60.437  -3.821  29.297  0.00  0.00    -0.102 NA
ATOM     15  C   UNL d   1      59.152  -3.305  28.706  0.00  0.00     0.023 A 
ATOM     16  O   UNL d   1      61.128  -3.444  29.530  0.00  0.00    -0.106 OA
ATOM     17  C   UNL d   1      58.755  -2.617  28.455  0.00  0.00     0.002 A 
ATOM     18  C   UNL d   1      59.126  -1.884  28.512  0.00  0.00     0.015 A 
ENDBRANCH   7  10
ENDBRANCH   1   7
BRANCH   4  19
ATOM     19  C   UNL d   1      57.632   0.120  30.457  0.00  0.00     0.279 C 
ATOM     20  O   UNL d   1      57.116   0.627  30.078  0.00  0.00    -0.265 OA
ATOM     21  N   UNL d   1      57.491  -0.091  31.250  0.00  0.00    -0.206 NA
BRANCH  21  22
ATOM     22  C   UNL d   1      56.828   0.213  31.656  0.00  0.00     0.102 C 
BRANCH  22  23
ATOM     23  C   UNL d   1      56.342  -0.291  32.102  0.00  0.00     0.021 C 
BRANCH  23  24
ATOM     24  C   UNL d   1      56.041  -0.032  32.830  0.00  0.00     0.002 A 
ATOM     25  C   UNL d   1      56.505   0.421  33.330  0.00  0.00     0.000 A 
ATOM     26  C   UNL d   1      56.203   0.679  34.058  0.00  0.00     0.000 A 
ATOM     27  C   UNL d   1      55.439   0.485  34.283  0.00  0.00     0.000 A 
ATOM     28  C   UNL d   1      54.964   0.025  33.777  0.00  0.00     0.000 A 
ATOM     29  C   UNL d   1      55.266  -0.234  33.050  0.00  0.00     0.000 A 
ENDBRANCH  23  24
ENDBRANCH  22  23
ENDBRANCH  21  22
ENDBRANCH   4  19
TORSDOF 6
ENDMDL
MODEL 2
REMARK VINA RESULT:      -2.5      8.166      9.907
REMARK  6 active torsions:
REMARK  status: ('A' for Active; 'I' for Inactive)
REMARK    1  A    between atoms: C_2  and  S_1 
REMARK    2  A    between atoms: N_4  and  S_1 
REMARK    3  A    between atoms: C_9  and  C_17 
REMARK       I    between atoms: N_20  and  C_9 
REMARK    4  A    between atoms: C_18  and  C_25 
REMARK    5  A    between atoms: C_24  and  N_20 
REMARK    6  A    between atoms: C_25  and  C_24 
ROOT
ATOM      1  N   UNL d   1      59.263  -8.507  34.894  0.00  0.00    -0.229 N 
ATOM      2  C   UNL d   1      59.743  -9.183  34.920  0.00  0.00     0.092 A 
ATOM      3  C   UNL d   1      59.104  -8.150  34.169  0.00  0.00     0.092 A 
ATOM      4  C   UNL d   1      59.897  -9.132  33.496  0.00  0.00     0.061 A 
ATOM      5  C   UNL d   1      59.420  -8.461  33.473  0.00  0.00     0.025 A 
ATOM      6  C   UNL d   1      60.059  -9.494  34.225  0.00  0.00     0.025 A 
ENDROOT
BRANCH   1   7
ATOM      7  S   UNL d   1      58.946  -8.195  35.593  0.00  0.00     0.273 S 
ATOM      8  O   UNL d   1      58.632  -7.885  36.287  0.00  0.00    -0.200 OA
ATOM      9  O   UNL d   1      58.235  -8.587  35.446  0.00  0.00    -0.200 OA
BRANCH   7  10
ATOM     10  C   UNL d   1      59.660  -7.801  35.741  0.00  0.00     0.125 A 
ATOM     11  C   UNL d   1      59.683  -6.977  35.766  0.00  0.00     0.142 A 
ATOM     12  C   UNL d   1      60.393  -6.585  35.913  0.00  0.00     0.131 A 
ATOM     13  N   UNL d   1      59.089  -6.409  35.667  0.00  0.00    -0.101 NA
ATOM     14  N   UNL d   1      60.244  -5.772  35.905  0.00  0.00    -0.102 NA
ATOM     15  C   UNL d   1      61.087  -7.014  36.036  0.00  0.00     0.023 A 
ATOM     16  O   UNL d   1      59.444  -5.662  35.754  0.00  0.00    -0.106 OA
ATOM     17  C   UNL d   1      61.068  -7.846  36.011  0.00  0.00     0.002 A 
ATOM     18  C   UNL d   1      60.358  -8.237  35.864  0.00  0.00     0.015 A 
ENDBRANCH   7  10
ENDBRANCH   1   7
BRANCH   4  19
ATOM     19  C   UNL d   1      60.208  -9.437  32.802  0.00  0.00     0.279 C 
ATOM     20  O   UNL d   1      60.978  -9.709  32.778  0.00  0.00    -0.265 OA
ATOM     21  N   UNL d   1      59.740  -9.472  32.114  0.00  0.00    -0.206 NA
BRANCH  21  22
ATOM     22  C   UNL d   1      60.054  -9.782  31.406  0.00  0.00     0.102 C 
BRANCH  22  23
ATOM     23  C   UNL d   1      59.586  -9.818  30.721  0.00  0.00     0.021 C 
BRANCH  23  24
ATOM     24  C   UNL d   1      59.928  -9.664  29.982  0.00  0.00     0.002 A 
ATOM     25  C   UNL d   1      60.736  -9.549  29.917  0.00  0.00     0.000 A 
ATOM     26  C   UNL d   1      61.078  -9.395  29.178  0.00  0.00     0.000 A 
ATOM     27  C   UNL d   1      60.611  -9.358  28.504  0.00  0.00     0.000 A 
ATOM     28  C   UNL d   1      59.789  -9.475  28.566  0.00  0.00     0.000 A 
ATOM     29  C   UNL d   1      59.448  -9.628  29.305  0.00  0.00     0.000 A 
ENDBRANCH  23  24
ENDBRANCH  22  23
ENDBRANCH  21  22
ENDBRANCH   4  19
TORSDOF 6
ENDMDL
