MODEL 1
REMARK VINA RESULT:      78.7      0.000      0.000
REMARK  4 active torsions:
REMARK  status: ('A' for Active; 'I' for Inactive)
REMARK    1  A    between atoms: N_10  and  C_3 
REMARK    2  A    between atoms: C_11  and  C_5 
REMARK    3  A    between atoms: C_12  and  N_10 
REMARK    4  A    between atoms: O_18  and  C_15 
ROOT
ATOM      1  N   UNL d   1     -54.783-101.564 -40.330  0.00  0.00    -0.184 N 
ATOM      2  C   UNL d   1     -54.781-101.174 -41.073  0.00  0.00     0.168 A 
ATOM      3  C   UNL d   1     -54.791-101.117 -39.633  0.00  0.00     0.217 A 
ATOM      4  N   UNL d   1     -54.769-102.820 -40.989  0.00  0.00    -0.162 NA
ATOM      5  C   UNL d   1     -54.773-101.609 -41.753  0.00  0.00     0.055 A 
ATOM      6  N   UNL d   1     -54.787-100.351 -41.093  0.00  0.00    -0.227 NA
ATOM      7  C   UNL d   1     -54.796-100.307 -39.670  0.00  0.00     0.066 A 
ATOM      8  C   UNL d   1     -54.767-102.436 -41.721  0.00  0.00     0.104 A 
ATOM      9  C   UNL d   1     -54.794 -99.909 -40.408  0.00  0.00     0.087 A 
ATOM     10  C   UNL d   1     -54.804 -99.733 -39.096  0.00  0.00     0.006 A 
ATOM     11  C   UNL d   1     -54.759-102.869 -42.414  0.00  0.00     0.023 C 
ATOM     12  C   UNL d   1     -54.801 -99.101 -40.271  0.00  0.00     0.019 A 
ATOM     13  C   UNL d   1     -54.808 -98.995 -39.447  0.00  0.00     0.002 A 
ENDROOT
BRANCH   3  14
ATOM     14  N   UNL d   1     -54.793-101.508 -38.882  0.00  0.00    -0.383 NA
BRANCH  14  15
ATOM     15  C   UNL d   1     -54.845-101.765 -38.080  0.00  0.00     0.135 A 
ATOM     16  C   UNL d   1     -55.012-101.203 -37.481  0.00  0.00     0.056 A 
ATOM     17  C   UNL d   1     -55.067-101.458 -36.663  0.00  0.00     0.097 A 
ATOM     18  C   UNL d   1     -54.950-102.280 -36.473  0.00  0.00     0.024 A 
ATOM     19  C   UNL d   1     -54.782-102.835 -37.084  0.00  0.00     0.005 A 
ATOM     20  C   UNL d   1     -54.728-102.581 -37.895  0.00  0.00     0.032 A 
BRANCH  17  21
ATOM     21  O   UNL d   1     -55.233-100.906 -36.060  0.00  0.00    -0.328 OA
ATOM     22  C   UNL d   1     -54.802-100.924 -35.332  0.00  0.00     0.181 C 
ENDBRANCH  17  21
ENDBRANCH  14  15
ENDBRANCH   3  14
BRANCH   5  23
ATOM     23  C   UNL d   1     -54.771-101.227 -42.479  0.00  0.00     0.004 A 
ATOM     24  C   UNL d   1     -54.761-100.411 -42.517  0.00  0.00     0.000 A 
ATOM     25  C   UNL d   1     -54.759-100.025 -43.253  0.00  0.00     0.000 A 
ATOM     26  C   UNL d   1     -54.767-100.463 -43.935  0.00  0.00     0.000 A 
ATOM     27  C   UNL d   1     -54.777-101.287 -43.901  0.00  0.00     0.000 A 
ATOM     28  C   UNL d   1     -54.779-101.664 -43.175  0.00  0.00     0.000 A 
ENDBRANCH   5  23
TORSDOF 4
ENDMDL
