MODEL 1
REMARK VINA RESULT:      -5.1      0.000      0.000
REMARK  9 active torsions:
REMARK  status: ('A' for Active; 'I' for Inactive)
REMARK    1  A    between atoms: C_5  and  C_1 
REMARK    2  A    between atoms: N_11  and  C_2 
REMARK    3  A    between atoms: C_6  and  C_5 
REMARK    4  A    between atoms: C_7  and  C_5 
REMARK       I    between atoms: N_13  and  C_6 
REMARK    5  A    between atoms: C_16  and  N_11 
REMARK    6  A    between atoms: C_17  and  N_11 
REMARK    7  A    between atoms: C_14  and  N_13 
REMARK    8  A    between atoms: C_20  and  C_14 
REMARK    9  A    between atoms: C_15  and  C_20 
ROOT
ATOM      1  C   UNL d   1      58.883  -0.979  29.321  0.00  0.00     0.117 A 
ATOM      2  C   UNL d   1      59.688  -0.944  29.144  0.00  0.00     0.145 A 
ATOM      3  N   UNL d   1      58.481  -1.695  29.268  0.00  0.00    -0.241 NA
ATOM      4  N   UNL d   1      60.091  -1.625  28.913  0.00  0.00    -0.230 NA
ATOM      5  C   UNL d   1      59.687  -2.340  28.860  0.00  0.00     0.100 A 
ATOM      6  C   UNL d   1      58.882  -2.376  29.037  0.00  0.00     0.099 A 
ATOM      7  C   UNL d   1      60.089  -3.021  28.629  0.00  0.00     0.021 A 
ATOM      8  C   UNL d   1      58.480  -3.092  28.984  0.00  0.00     0.021 A 
ATOM      9  C   UNL d   1      59.686  -3.740  28.575  0.00  0.00     0.002 A 
ATOM     10  C   UNL d   1      58.881  -3.776  28.752  0.00  0.00     0.002 A 
ENDROOT
BRANCH   1  11
ATOM     11  C   UNL d   1      58.632  -0.219  29.534  0.00  0.00     0.099 C 
BRANCH  11  12
ATOM     12  C   UNL d   1      58.416   0.113  30.259  0.00  0.00     0.282 C 
ATOM     13  O   UNL d   1      58.957   0.597  30.681  0.00  0.00    -0.265 OA
ATOM     14  N   UNL d   1      57.662  -0.033  30.571  0.00  0.00    -0.206 NA
BRANCH  14  15
ATOM     15  C   UNL d   1      57.440   0.302  31.306  0.00  0.00     0.102 C 
BRANCH  15  16
ATOM     16  C   UNL d   1      56.693   0.405  31.626  0.00  0.00     0.021 C 
BRANCH  16  17
ATOM     17  C   UNL d   1      56.475   0.014  32.317  0.00  0.00     0.002 A 
ATOM     18  C   UNL d   1      56.248  -0.778  32.276  0.00  0.00     0.000 A 
ATOM     19  C   UNL d   1      56.030  -1.174  32.959  0.00  0.00     0.000 A 
ATOM     20  C   UNL d   1      56.038  -0.780  33.687  0.00  0.00     0.000 A 
ATOM     21  C   UNL d   1      56.268   0.013  33.719  0.00  0.00     0.000 A 
ATOM     22  C   UNL d   1      56.485   0.404  33.033  0.00  0.00     0.000 A 
ENDBRANCH  16  17
ENDBRANCH  15  16
ENDBRANCH  14  15
ENDBRANCH  11  12
BRANCH  11  23
ATOM     23  C   UNL d   1      58.577   0.339  28.923  0.00  0.00     0.129 C 
ATOM     24  N   UNL d   1      57.956   0.676  28.498  0.00  0.00    -0.146 N 
ENDBRANCH  11  23
ENDBRANCH   1  11
BRANCH   2  25
ATOM     25  N   UNL d   1      59.938  -0.162  29.246  0.00  0.00    -0.192 NA
BRANCH  25  26
ATOM     26  C   UNL d   1      60.601   0.150  28.869  0.00  0.00     0.057 C 
ATOM     27  C   UNL d   1      61.047   0.497  29.811  0.00  0.00     0.014 C 
ENDBRANCH  25  26
BRANCH  25  28
ATOM     28  C   UNL d   1      60.273   0.408  29.206  0.00  0.00     0.057 C 
ATOM     29  C   UNL d   1      61.133   0.675  28.714  0.00  0.00     0.014 C 
ENDBRANCH  25  28
ENDBRANCH   2  25
TORSDOF 9
ENDMDL
