MODEL 1
REMARK VINA RESULT:      16.7      0.000      0.000
REMARK  1 active torsions:
REMARK  status: ('A' for Active; 'I' for Inactive)
REMARK    1  A    between atoms: C_6  and  C_1 
ROOT
ATOM      1  C   UNL d   1     -58.015 -98.792 -44.781  0.00  0.00     0.085 A 
ATOM      2  C   UNL d   1     -58.470 -98.773 -45.474  0.00  0.00     0.137 A 
ATOM      3  S   UNL d   1     -59.232 -98.758 -45.274  0.00  0.00    -0.066 SA
ATOM      4  C   UNL d   1     -58.536 -98.789 -44.146  0.00  0.00     0.013 A 
ATOM      5  C   UNL d   1     -59.294 -98.767 -44.453  0.00  0.00     0.031 A 
ATOM      6  N   UNL d   1     -58.175 -98.770 -46.262  0.00  0.00    -0.141 N 
ATOM      7  C   UNL d   1     -58.425 -98.802 -43.327  0.00  0.00     0.001 A 
ATOM      8  C   UNL d   1     -59.943 -98.759 -43.942  0.00  0.00     0.006 A 
ATOM      9  C   UNL d   1     -59.074 -98.793 -42.818  0.00  0.00     0.000 A 
ATOM     10  C   UNL d   1     -59.832 -98.772 -43.125  0.00  0.00     0.001 A 
ENDROOT
BRANCH   1  11
ATOM     11  C   UNL d   1     -57.154 -98.813 -44.727  0.00  0.00     0.299 C 
ATOM     12  O   UNL d   1     -56.693 -98.795 -45.423  0.00  0.00    -0.264 OA
ATOM     13  N   UNL d   1     -56.780 -98.851 -43.986  0.00  0.00    -0.102 N 
ENDBRANCH   1  11
TORSDOF 1
ENDMDL
MODEL 2
REMARK VINA RESULT:      17.2      1.502      2.415
REMARK  1 active torsions:
REMARK  status: ('A' for Active; 'I' for Inactive)
REMARK    1  A    between atoms: C_6  and  C_1 
ROOT
ATOM      1  C   UNL d   1     -58.330 -98.760 -44.299  0.00  0.00     0.085 A 
ATOM      2  C   UNL d   1     -58.520 -98.758 -45.108  0.00  0.00     0.137 A 
ATOM      3  S   UNL d   1     -57.850 -98.756 -45.523  0.00  0.00    -0.066 SA
ATOM      4  C   UNL d   1     -57.510 -98.759 -44.241  0.00  0.00     0.013 A 
ATOM      5  C   UNL d   1     -57.212 -98.757 -45.003  0.00  0.00     0.031 A 
ATOM      6  N   UNL d   1     -59.295 -98.757 -45.435  0.00  0.00    -0.141 N 
ATOM      7  C   UNL d   1     -56.993 -98.761 -43.598  0.00  0.00     0.001 A 
ATOM      8  C   UNL d   1     -56.395 -98.756 -45.123  0.00  0.00     0.006 A 
ATOM      9  C   UNL d   1     -56.176 -98.760 -43.718  0.00  0.00     0.000 A 
ATOM     10  C   UNL d   1     -55.878 -98.757 -44.479  0.00  0.00     0.001 A 
ENDROOT
BRANCH   1  11
ATOM     11  C   UNL d   1     -58.883 -98.762 -43.638  0.00  0.00     0.299 C 
ATOM     12  O   UNL d   1     -58.593 -98.767 -42.854  0.00  0.00    -0.264 OA
ATOM     13  N   UNL d   1     -59.702 -98.760 -43.774  0.00  0.00    -0.102 N 
ENDBRANCH   1  11
TORSDOF 1
ENDMDL
MODEL 3
REMARK VINA RESULT:      19.6      1.172      1.771
REMARK  1 active torsions:
REMARK  status: ('A' for Active; 'I' for Inactive)
REMARK    1  A    between atoms: C_6  and  C_1 
ROOT
ATOM      1  C   UNL d   1     -57.640 -98.798 -44.208  0.00  0.00     0.085 A 
ATOM      2  C   UNL d   1     -57.847 -98.772 -43.405  0.00  0.00     0.137 A 
ATOM      3  S   UNL d   1     -58.633 -98.756 -43.349  0.00  0.00    -0.066 SA
ATOM      4  C   UNL d   1     -58.338 -98.798 -44.641  0.00  0.00     0.013 A 
ATOM      5  C   UNL d   1     -58.956 -98.772 -44.106  0.00  0.00     0.031 A 
ATOM      6  N   UNL d   1     -57.314 -98.764 -42.754  0.00  0.00    -0.141 N 
ATOM      7  C   UNL d   1     -58.497 -98.817 -45.451  0.00  0.00     0.001 A 
ATOM      8  C   UNL d   1     -59.735 -98.765 -44.380  0.00  0.00     0.006 A 
ATOM      9  C   UNL d   1     -59.275 -98.811 -45.725  0.00  0.00     0.000 A 
ATOM     10  C   UNL d   1     -59.894 -98.785 -45.190  0.00  0.00     0.001 A 
ENDROOT
BRANCH   1  11
ATOM     11  C   UNL d   1     -56.843 -98.822 -44.537  0.00  0.00     0.299 C 
ATOM     12  O   UNL d   1     -56.735 -98.852 -45.364  0.00  0.00    -0.264 OA
ATOM     13  N   UNL d   1     -56.180 -98.815 -44.035  0.00  0.00    -0.102 N 
ENDBRANCH   1  11
TORSDOF 1
ENDMDL
