MODEL 1
REMARK VINA RESULT:      64.8      0.000      0.000
REMARK  4 active torsions:
REMARK  status: ('A' for Active; 'I' for Inactive)
REMARK    1  A    between atoms: N_7  and  C_1 
REMARK    2  A    between atoms: C_11  and  C_2 
REMARK       I    between atoms: C_8  and  N_7 
REMARK    3  A    between atoms: C_13  and  C_8 
REMARK    4  A    between atoms: N_9  and  C_13 
ROOT
ATOM      1  C   UNL d   1     -49.942  26.086  33.516  0.00  0.00     0.142 A 
ATOM      2  C   UNL d   1     -50.655  25.690  33.457  0.00  0.00     0.024 A 
ATOM      3  C   UNL d   1     -49.241  25.654  33.565  0.00  0.00     0.297 A 
ATOM      4  C   UNL d   1     -50.687  24.870  33.445  0.00  0.00     0.020 A 
ATOM      5  N   UNL d   1     -49.253  24.826  33.555  0.00  0.00    -0.207 NA
ATOM      6  C   UNL d   1     -49.986  24.438  33.495  0.00  0.00     0.085 A 
ATOM      7  C   UNL d   1     -51.398  24.478  33.386  0.00  0.00     0.008 A 
ATOM      8  O   UNL d   1     -48.506  26.044  33.626  0.00  0.00    -0.264 OA
ATOM      9  C   UNL d   1     -49.996  23.613  33.485  0.00  0.00     0.020 A 
ATOM     10  C   UNL d   1     -51.428  23.661  33.375  0.00  0.00     0.035 A 
ATOM     11  C   UNL d   1     -50.727  23.228  33.424  0.00  0.00     0.008 A 
ATOM     12 BR   UNL d   1     -52.154  23.244  33.315  0.00  0.00    -0.049 Br
ENDROOT
BRANCH   1  13
ATOM     13  N   UNL d   1     -49.901  26.921  33.529  0.00  0.00    -0.202 NA
ATOM     14  C   UNL d   1     -49.328  27.291  34.024  0.00  0.00     0.297 C 
ATOM     15  O   UNL d   1     -48.935  26.905  34.381  0.00  0.00    -0.264 OA
BRANCH  14  16
ATOM     16  C   UNL d   1     -49.288  28.110  34.036  0.00  0.00     0.144 C 
BRANCH  16  17
ATOM     17  N   UNL d   1     -48.798  28.480  34.603  0.00  0.00    -0.295 N 
ATOM     18  C   UNL d   1     -48.198  28.982  34.356  0.00  0.00     0.107 A 
ATOM     19  C   UNL d   1     -47.704  29.355  34.928  0.00  0.00     0.142 A 
ATOM     20  O   UNL d   1     -47.824  29.215  35.730  0.00  0.00    -0.300 OA
ATOM     21  C   UNL d   1     -48.450  28.692  35.973  0.00  0.00     0.142 A 
ATOM     22  C   UNL d   1     -48.925  28.335  35.406  0.00  0.00     0.107 A 
ENDBRANCH  16  17
ENDBRANCH  14  16
ENDBRANCH   1  13
BRANCH   2  23
ATOM     23  C   UNL d   1     -51.371  26.132  33.407  0.00  0.00     0.002 A 
ATOM     24  C   UNL d   1     -52.094  25.742  33.410  0.00  0.00     0.000 A 
ATOM     25  C   UNL d   1     -52.791  26.172  33.361  0.00  0.00     0.000 A 
ATOM     26  C   UNL d   1     -52.786  27.005  33.308  0.00  0.00     0.000 A 
ATOM     27  C   UNL d   1     -52.039  27.385  33.306  0.00  0.00     0.000 A 
ATOM     28  C   UNL d   1     -51.342  26.955  33.355  0.00  0.00     0.000 A 
ENDBRANCH   2  23
TORSDOF 4
ENDMDL
