MODEL 1
REMARK VINA RESULT:      -6.9      0.000      0.000
REMARK  1 active torsions:
REMARK  status: ('A' for Active; 'I' for Inactive)
REMARK    1  A    between atoms: C_6  and  N_1 
ROOT
ATOM      1  C   UNL d   1     -47.092  13.212  23.044  0.00  0.00     0.086 A 
ATOM      2  C   UNL d   1     -46.741  13.945  22.945  0.00  0.00     0.023 A 
ATOM      3  C   UNL d   1     -47.902  13.117  22.912  0.00  0.00     0.023 A 
ATOM      4  C   UNL d   1     -47.999  14.503  22.579  0.00  0.00     0.196 A 
ATOM      5  C   UNL d   1     -48.357  13.765  22.678  0.00  0.00     0.044 A 
ATOM      6  C   UNL d   1     -47.196  14.592  22.712  0.00  0.00     0.044 A 
ATOM      7  O   UNL d   1     -48.452  15.147  22.347  0.00  0.00    -0.287 OA
ENDROOT
BRANCH   1   8
ATOM      8  N   UNL d   1     -46.638  12.573  23.276  0.00  0.00    -0.189 N 
ATOM      9  N   UNL d   1     -45.814  12.548  23.315  0.00  0.00    -0.038 NA
ATOM     10  N   UNL d   1     -45.596  11.796  23.575  0.00  0.00    -0.022 NA
ATOM     11  N   UNL d   1     -46.273  11.363  23.694  0.00  0.00    -0.104 NA
ATOM     12  C   UNL d   1     -46.923  11.839  23.510  0.00  0.00     0.226 A 
ENDBRANCH   1   8
TORSDOF 1
ENDMDL
MODEL 2
REMARK VINA RESULT:      -6.9      1.642      2.343
REMARK  1 active torsions:
REMARK  status: ('A' for Active; 'I' for Inactive)
REMARK    1  A    between atoms: C_6  and  N_1 
ROOT
ATOM      1  C   UNL d   1     -47.776  12.530  23.327  0.00  0.00     0.086 A 
ATOM      2  C   UNL d   1     -48.466  12.842  23.014  0.00  0.00     0.023 A 
ATOM      3  C   UNL d   1     -47.779  11.778  23.670  0.00  0.00     0.023 A 
ATOM      4  C   UNL d   1     -49.173  11.662  23.381  0.00  0.00     0.196 A 
ATOM      5  C   UNL d   1     -48.480  11.343  23.697  0.00  0.00     0.044 A 
ATOM      6  C   UNL d   1     -49.166  12.407  23.041  0.00  0.00     0.044 A 
ATOM      7  O   UNL d   1     -49.870  11.229  23.407  0.00  0.00    -0.287 OA
ENDROOT
BRANCH   1   8
ATOM      8  N   UNL d   1     -47.085  12.964  23.299  0.00  0.00    -0.189 N 
ATOM      9  N   UNL d   1     -46.345  12.722  23.575  0.00  0.00    -0.038 NA
ATOM     10  N   UNL d   1     -45.810  13.334  23.433  0.00  0.00    -0.022 NA
ATOM     11  N   UNL d   1     -46.212  13.944  23.076  0.00  0.00    -0.104 NA
ATOM     12  C   UNL d   1     -47.003  13.720  22.990  0.00  0.00     0.226 A 
ENDBRANCH   1   8
TORSDOF 1
ENDMDL
MODEL 3
REMARK VINA RESULT:      -6.7      1.959      2.493
REMARK  1 active torsions:
REMARK  status: ('A' for Active; 'I' for Inactive)
REMARK    1  A    between atoms: C_6  and  N_1 
ROOT
ATOM      1  C   UNL d   1     -47.913  12.416  23.243  0.00  0.00     0.086 A 
ATOM      2  C   UNL d   1     -47.194  12.072  23.433  0.00  0.00     0.023 A 
ATOM      3  C   UNL d   1     -47.939  13.187  22.948  0.00  0.00     0.023 A 
ATOM      4  C   UNL d   1     -46.516  13.259  23.036  0.00  0.00     0.196 A 
ATOM      5  C   UNL d   1     -47.239  13.610  22.844  0.00  0.00     0.044 A 
ATOM      6  C   UNL d   1     -46.494  12.495  23.329  0.00  0.00     0.044 A 
ATOM      7  O   UNL d   1     -45.819  13.680  22.933  0.00  0.00    -0.287 OA
ENDROOT
BRANCH   1   8
ATOM      8  N   UNL d   1     -48.605  11.994  23.348  0.00  0.00    -0.189 N 
ATOM      9  N   UNL d   1     -48.675  11.250  23.698  0.00  0.00    -0.038 NA
ATOM     10  N   UNL d   1     -49.472  11.038  23.685  0.00  0.00    -0.022 NA
ATOM     11  N   UNL d   1     -49.888  11.641  23.333  0.00  0.00    -0.104 NA
ATOM     12  C   UNL d   1     -49.356  12.237  23.121  0.00  0.00     0.226 A 
ENDBRANCH   1   8
TORSDOF 1
ENDMDL
MODEL 4
REMARK VINA RESULT:      -6.4      2.263      3.062
REMARK  1 active torsions:
REMARK  status: ('A' for Active; 'I' for Inactive)
REMARK    1  A    between atoms: C_6  and  N_1 
ROOT
ATOM      1  C   UNL d   1     -47.853  13.044  22.535  0.00  0.00     0.086 A 
ATOM      2  C   UNL d   1     -47.878  12.348  22.966  0.00  0.00     0.023 A 
ATOM      3  C   UNL d   1     -47.152  13.478  22.487  0.00  0.00     0.023 A 
ATOM      4  C   UNL d   1     -46.505  12.505  23.308  0.00  0.00     0.196 A 
ATOM      5  C   UNL d   1     -46.476  13.208  22.875  0.00  0.00     0.044 A 
ATOM      6  C   UNL d   1     -47.202  12.078  23.353  0.00  0.00     0.044 A 
ATOM      7  O   UNL d   1     -45.832  12.237  23.694  0.00  0.00    -0.287 OA
ENDROOT
BRANCH   1   8
ATOM      8  N   UNL d   1     -48.525  13.309  22.152  0.00  0.00    -0.189 N 
ATOM      9  N   UNL d   1     -49.032  13.906  22.413  0.00  0.00    -0.038 NA
ATOM     10  N   UNL d   1     -49.634  13.987  21.854  0.00  0.00    -0.022 NA
ATOM     11  N   UNL d   1     -49.501  13.450  21.259  0.00  0.00    -0.104 NA
ATOM     12  C   UNL d   1     -48.815  13.026  21.438  0.00  0.00     0.226 A 
ENDBRANCH   1   8
TORSDOF 1
ENDMDL
