MODEL 1
REMARK VINA RESULT:       0.6      0.000      0.000
REMARK  9 active torsions:
REMARK  status: ('A' for Active; 'I' for Inactive)
REMARK    1  A    between atoms: C_21  and  N_1 
REMARK    2  A    between atoms: S_7  and  C_2 
REMARK       I    between atoms: C_6  and  N_18 
REMARK    3  A    between atoms: C_15  and  C_6 
REMARK    4  A    between atoms: C_19  and  S_7 
REMARK    5  A    between atoms: C_8  and  C_19 
REMARK       I    between atoms: N_11  and  C_8 
REMARK    6  A    between atoms: C_9  and  C_20 
REMARK    7  A    between atoms: C_20  and  N_11 
REMARK    8  A    between atoms: N_18  and  C_23 
REMARK    9  A    between atoms: C_23  and  C_21 
ROOT
ATOM      1  N   UNL d   1      59.296  -1.225  28.922  0.00  0.00    -0.302 N 
ATOM      2  C   UNL d   1      58.700  -0.283  29.665  0.00  0.00     0.049 A 
ATOM      3  C   UNL d   1      58.563  -0.970  29.238  0.00  0.00     0.087 A 
ATOM      4  C   UNL d   1      59.510  -0.102  29.621  0.00  0.00     0.024 A 
ATOM      5  C   UNL d   1      59.875  -0.685  29.162  0.00  0.00     0.065 A 
ATOM      6  C   UNL d   1      59.950   0.515  29.940  0.00  0.00     0.002 A 
ATOM      7  C   UNL d   1      60.683  -0.645  29.026  0.00  0.00     0.018 A 
ATOM      8  C   UNL d   1      60.764   0.551  29.800  0.00  0.00     0.000 A 
ATOM      9  C   UNL d   1      61.133  -0.027  29.343  0.00  0.00     0.002 A 
ENDROOT
BRANCH   1  10
ATOM     10  C   UNL d   1      59.425  -1.892  28.455  0.00  0.00     0.101 C 
BRANCH  10  11
ATOM     11  C   UNL d   1      59.930  -2.489  28.719  0.00  0.00     0.121 C 
BRANCH  11  12
ATOM     12  N   UNL d   1      59.728  -3.286  28.592  0.00  0.00    -0.205 NA
ATOM     13  C   UNL d   1      60.245  -3.887  28.835  0.00  0.00     0.279 C 
ATOM     14  O   UNL d   1      60.964  -3.690  29.204  0.00  0.00    -0.265 OA
BRANCH  13  15
ATOM     15  C   UNL d   1      60.044  -4.675  28.709  0.00  0.00     0.058 A 
ATOM     16  C   UNL d   1      59.266  -4.900  28.677  0.00  0.00     0.005 A 
ATOM     17  C   UNL d   1      59.046  -5.686  28.552  0.00  0.00     0.000 A 
ATOM     18  C   UNL d   1      59.633  -6.262  28.456  0.00  0.00     0.000 A 
ATOM     19  C   UNL d   1      60.435  -6.040  28.487  0.00  0.00     0.000 A 
ATOM     20  C   UNL d   1      60.639  -5.247  28.614  0.00  0.00     0.005 A 
ENDBRANCH  13  15
ENDBRANCH  11  12
ENDBRANCH  10  11
ENDBRANCH   1  10
BRANCH   2  21
ATOM     21  S   UNL d   1      58.131   0.159  30.072  0.00  0.00    -0.080 SA
BRANCH  21  22
ATOM     22  C   UNL d   1      57.596  -0.226  30.569  0.00  0.00     0.098 C 
BRANCH  22  23
ATOM     23  C   UNL d   1      56.874   0.118  30.752  0.00  0.00     0.286 C 
ATOM     24  N   UNL d   1      56.497  -0.042  31.464  0.00  0.00    -0.204 NA
ATOM     25  O   UNL d   1      56.521   0.633  30.210  0.00  0.00    -0.265 OA
BRANCH  24  26
ATOM     26  C   UNL d   1      56.849  -0.553  31.999  0.00  0.00     0.127 C 
BRANCH  26  27
ATOM     27  C   UNL d   1      56.451  -0.759  32.693  0.00  0.00     0.119 A 
ATOM     28  O   UNL d   1      56.269  -0.250  33.308  0.00  0.00    -0.304 OA
ATOM     29  C   UNL d   1      55.874  -0.682  33.884  0.00  0.00     0.123 A 
ATOM     30  C   UNL d   1      55.812  -1.453  33.628  0.00  0.00     0.029 A 
ATOM     31  C   UNL d   1      56.169  -1.503  32.891  0.00  0.00     0.028 A 
ENDBRANCH  26  27
ENDBRANCH  24  26
ENDBRANCH  22  23
ENDBRANCH  21  22
ENDBRANCH   2  21
TORSDOF 9
ENDMDL
