MODEL 1
REMARK VINA RESULT:       5.4      0.000      0.000
REMARK  6 active torsions:
REMARK  status: ('A' for Active; 'I' for Inactive)
REMARK    1  A    between atoms: N_6  and  S_1 
REMARK    2  A    between atoms: C_7  and  S_1 
REMARK       I    between atoms: C_2  and  N_4 
REMARK    3  A    between atoms: C_8  and  C_2 
REMARK    4  A    between atoms: C_3  and  C_12 
REMARK       I    between atoms: N_5  and  C_3 
REMARK    5  A    between atoms: C_23  and  N_6 
REMARK    6  A    between atoms: O_29  and  C_26 
ROOT
ATOM      1  C   UNL d   1     -41.682-121.907 -51.482  0.00  0.00     0.057 A 
ATOM      2  C   UNL d   1     -41.883-123.176 -50.452  0.00  0.00     0.094 A 
ATOM      3  C   UNL d   1     -42.148-121.825 -50.802  0.00  0.00     0.006 A 
ATOM      4  C   UNL d   1     -41.317-122.625 -51.645  0.00  0.00     0.006 A 
ATOM      5  C   UNL d   1     -42.245-122.468 -50.287  0.00  0.00     0.020 A 
ATOM      6  C   UNL d   1     -41.418-123.262 -51.128  0.00  0.00     0.020 A 
ENDROOT
BRANCH   1   7
ATOM      7  C   UNL d   1     -41.582-121.263 -52.002  0.00  0.00     0.265 C 
ATOM      8  N   UNL d   1     -41.696-121.358 -52.818  0.00  0.00    -0.269 N 
ATOM      9  C   UNL d   1     -41.597-120.719 -53.332  0.00  0.00     0.102 A 
ATOM     10  C   UNL d   1     -41.912-122.096 -53.119  0.00  0.00     0.102 A 
ATOM     11  C   UNL d   1     -41.712-120.819 -54.141  0.00  0.00     0.102 A 
ATOM     12  N   UNL d   1     -41.927-121.561 -54.430  0.00  0.00    -0.267 N 
ATOM     13  C   UNL d   1     -42.043-121.665 -55.237  0.00  0.00     0.288 C 
ATOM     14  C   UNL d   1     -42.026-122.196 -53.923  0.00  0.00     0.102 A 
ATOM     15  O   UNL d   1     -41.943-121.023 -55.753  0.00  0.00    -0.264 OA
ATOM     16  O   UNL d   1     -41.366-120.522 -51.698  0.00  0.00    -0.267 OA
BRANCH  13  17
ATOM     17  C   UNL d   1     -42.256-122.396 -55.533  0.00  0.00     0.156 A 
ATOM     18  O   UNL d   1     -41.789-123.083 -55.534  0.00  0.00    -0.300 OA
ATOM     19  C   UNL d   1     -42.224-123.683 -55.885  0.00  0.00     0.123 A 
ATOM     20  C   UNL d   1     -42.961-123.383 -56.106  0.00  0.00     0.029 A 
ATOM     21  C   UNL d   1     -42.980-122.588 -55.889  0.00  0.00     0.032 A 
ENDBRANCH  13  17
ENDBRANCH   1   7
BRANCH   2  22
ATOM     22  N   UNL d   1     -41.981-123.815 -49.938  0.00  0.00    -0.158 NA
BRANCH  22  23
ATOM     23  S   UNL d   1     -41.970-123.691 -49.130  0.00  0.00     0.285 S 
ATOM     24  O   UNL d   1     -42.793-123.630 -49.126  0.00  0.00    -0.198 OA
ATOM     25  O   UNL d   1     -41.149-123.750 -49.127  0.00  0.00    -0.198 OA
BRANCH  23  26
ATOM     26  C   UNL d   1     -41.960-123.565 -48.314  0.00  0.00     0.107 A 
ATOM     27  C   UNL d   1     -42.665-123.418 -47.912  0.00  0.00     0.037 A 
ATOM     28  C   UNL d   1     -42.656-123.292 -47.095  0.00  0.00     0.095 A 
ATOM     29  C   UNL d   1     -41.940-123.314 -46.685  0.00  0.00     0.024 A 
ATOM     30  C   UNL d   1     -41.241-123.460 -47.084  0.00  0.00     0.003 A 
ATOM     31  C   UNL d   1     -41.247-123.586 -47.899  0.00  0.00     0.013 A 
BRANCH  28  32
ATOM     32  O   UNL d   1     -43.365-123.142 -46.682  0.00  0.00    -0.328 OA
ATOM     33  C   UNL d   1     -44.022-123.632 -46.790  0.00  0.00     0.181 C 
ENDBRANCH  28  32
ENDBRANCH  23  26
ENDBRANCH  22  23
ENDBRANCH   2  22
TORSDOF 6
ENDMDL
