MODEL 1
REMARK VINA RESULT:      -9.4      0.000      0.000
REMARK  6 active torsions:
REMARK  status: ('A' for Active; 'I' for Inactive)
REMARK    1  A    between atoms: N_2  and  S_1 
REMARK    2  A    between atoms: C_3  and  S_1 
REMARK    3  A    between atoms: C_4  and  C_9 
REMARK    4  A    between atoms: O_12  and  C_4 
REMARK    5  A    between atoms: C_19  and  O_12 
REMARK    6  A    between atoms: C_18  and  C_19 
ROOT
ATOM      1  C   UNL d   1      52.433  33.227  53.092  0.00  0.00     0.104 A 
ATOM      2  C   UNL d   1      51.735  33.388  52.667  0.00  0.00     0.018 A 
ATOM      3  C   UNL d   1      51.491  34.173  52.573  0.00  0.00     0.064 A 
ATOM      4  C   UNL d   1      52.880  33.838  53.419  0.00  0.00     0.013 A 
ATOM      5  C   UNL d   1      51.939  34.790  52.902  0.00  0.00     0.005 A 
ATOM      6  C   UNL d   1      52.635  34.623  53.326  0.00  0.00     0.001 A 
ENDROOT
BRANCH   3   7
ATOM      7  C   UNL d   1      50.799  34.351  52.153  0.00  0.00     0.300 C 
ATOM      8  O   UNL d   1      50.754  34.208  51.340  0.00  0.00    -0.259 OA
BRANCH   7   9
ATOM      9  O   UNL d   1      50.153  34.673  52.555  0.00  0.00    -0.271 OA
BRANCH   9  10
ATOM     10  C   UNL d   1      49.410  34.678  52.200  0.00  0.00     0.126 C 
BRANCH  10  11
ATOM     11  C   UNL d   1      48.827  35.174  52.485  0.00  0.00     0.027 A 
ATOM     12  C   UNL d   1      48.212  35.391  52.000  0.00  0.00     0.028 A 
ATOM     13  C   UNL d   1      47.626  35.891  52.289  0.00  0.00     0.119 A 
ATOM     14  O   UNL d   1      46.942  36.205  51.936  0.00  0.00    -0.300 OA
ATOM     15  C   UNL d   1      47.658  36.170  53.059  0.00  0.00     0.119 A 
ATOM     16  C   UNL d   1      46.564  36.674  52.499  0.00  0.00     0.304 A 
ATOM     17  O   UNL d   1      47.005  36.653  53.190  0.00  0.00    -0.300 OA
ATOM     18  C   UNL d   1      48.283  35.948  53.548  0.00  0.00     0.026 A 
ATOM     19  C   UNL d   1      48.868  35.449  53.260  0.00  0.00     0.004 A 
ENDBRANCH  10  11
ENDBRANCH   9  10
ENDBRANCH   7   9
ENDBRANCH   3   7
BRANCH   1  20
ATOM     20  S   UNL d   1      52.677  32.443  53.185  0.00  0.00     0.271 S 
ATOM     21  O   UNL d   1      53.112  32.457  52.477  0.00  0.00    -0.200 OA
ATOM     22  O   UNL d   1      52.243  32.426  53.895  0.00  0.00    -0.200 OA
BRANCH  20  23
ATOM     23  N   UNL d   1      52.930  31.655  53.266  0.00  0.00    -0.229 N 
ATOM     24  C   UNL d   1      53.602  31.484  53.728  0.00  0.00     0.092 A 
ATOM     25  C   UNL d   1      53.844  30.699  53.802  0.00  0.00     0.020 A 
ATOM     26  C   UNL d   1      53.436  30.081  53.429  0.00  0.00     0.003 A 
ATOM     27  C   UNL d   1      52.773  30.261  52.975  0.00  0.00     0.020 A 
ATOM     28  C   UNL d   1      52.519  31.048  52.894  0.00  0.00     0.092 A 
ENDBRANCH  20  23
ENDBRANCH   1  20
TORSDOF 6
ENDMDL
MODEL 2
REMARK VINA RESULT:      -8.7      2.054      5.798
REMARK  6 active torsions:
REMARK  status: ('A' for Active; 'I' for Inactive)
REMARK    1  A    between atoms: N_2  and  S_1 
REMARK    2  A    between atoms: C_3  and  S_1 
REMARK    3  A    between atoms: C_4  and  C_9 
REMARK    4  A    between atoms: O_12  and  C_4 
REMARK    5  A    between atoms: C_19  and  O_12 
REMARK    6  A    between atoms: C_18  and  C_19 
ROOT
ATOM      1  C   UNL d   1      52.318  34.421  53.585  0.00  0.00     0.104 A 
ATOM      2  C   UNL d   1      52.801  33.742  53.569  0.00  0.00     0.018 A 
ATOM      3  C   UNL d   1      53.493  33.729  54.022  0.00  0.00     0.064 A 
ATOM      4  C   UNL d   1      52.522  35.075  54.044  0.00  0.00     0.013 A 
ATOM      5  C   UNL d   1      53.701  34.385  54.485  0.00  0.00     0.005 A 
ATOM      6  C   UNL d   1      53.214  35.061  54.496  0.00  0.00     0.001 A 
ENDROOT
BRANCH   3   7
ATOM      7  C   UNL d   1      53.985  33.061  54.018  0.00  0.00     0.300 C 
ATOM      8  O   UNL d   1      54.806  33.146  54.005  0.00  0.00    -0.259 OA
BRANCH   7   9
ATOM      9  O   UNL d   1      53.644  32.308  54.026  0.00  0.00    -0.271 OA
BRANCH   9  10
ATOM     10  C   UNL d   1      54.046  31.673  53.690  0.00  0.00     0.126 C 
BRANCH  10  11
ATOM     11  C   UNL d   1      53.692  30.937  53.662  0.00  0.00     0.027 A 
ATOM     12  C   UNL d   1      53.780  30.425  54.287  0.00  0.00     0.028 A 
ATOM     13  C   UNL d   1      53.423  29.685  54.258  0.00  0.00     0.119 A 
ATOM     14  O   UNL d   1      53.411  29.053  54.797  0.00  0.00    -0.300 OA
ATOM     15  C   UNL d   1      52.980  29.461  53.605  0.00  0.00     0.119 A 
ATOM     16  C   UNL d   1      52.959  28.449  54.464  0.00  0.00     0.304 A 
ATOM     17  O   UNL d   1      52.693  28.700  53.730  0.00  0.00    -0.300 OA
ATOM     18  C   UNL d   1      52.892  29.983  52.972  0.00  0.00     0.026 A 
ATOM     19  C   UNL d   1      53.250  30.722  53.002  0.00  0.00     0.004 A 
ENDBRANCH  10  11
ENDBRANCH   9  10
ENDBRANCH   7   9
ENDBRANCH   3   7
BRANCH   1  20
ATOM     20  S   UNL d   1      51.626  34.435  53.132  0.00  0.00     0.271 S 
ATOM     21  O   UNL d   1      51.208  33.987  53.693  0.00  0.00    -0.200 OA
ATOM     22  O   UNL d   1      52.042  34.884  52.569  0.00  0.00    -0.200 OA
BRANCH  20  23
ATOM     23  N   UNL d   1      50.924  34.441  52.687  0.00  0.00    -0.229 N 
ATOM     24  C   UNL d   1      50.940  34.201  51.890  0.00  0.00     0.092 A 
ATOM     25  C   UNL d   1      50.237  34.211  51.458  0.00  0.00     0.020 A 
ATOM     26  C   UNL d   1      49.521  34.453  51.798  0.00  0.00     0.003 A 
ATOM     27  C   UNL d   1      49.516  34.688  52.587  0.00  0.00     0.020 A 
ATOM     28  C   UNL d   1      50.218  34.682  53.032  0.00  0.00     0.092 A 
ENDBRANCH  20  23
ENDBRANCH   1  20
TORSDOF 6
ENDMDL
MODEL 3
REMARK VINA RESULT:      -8.5      1.318      2.073
REMARK  6 active torsions:
REMARK  status: ('A' for Active; 'I' for Inactive)
REMARK    1  A    between atoms: N_2  and  S_1 
REMARK    2  A    between atoms: C_3  and  S_1 
REMARK    3  A    between atoms: C_4  and  C_9 
REMARK    4  A    between atoms: O_12  and  C_4 
REMARK    5  A    between atoms: C_19  and  O_12 
REMARK    6  A    between atoms: C_18  and  C_19 
ROOT
ATOM      1  C   UNL d   1      53.580  32.332  53.634  0.00  0.00     0.104 A 
ATOM      2  C   UNL d   1      52.945  32.871  53.655  0.00  0.00     0.018 A 
ATOM      3  C   UNL d   1      53.104  33.682  53.666  0.00  0.00     0.064 A 
ATOM      4  C   UNL d   1      54.360  32.599  53.624  0.00  0.00     0.013 A 
ATOM      5  C   UNL d   1      53.888  33.953  53.656  0.00  0.00     0.005 A 
ATOM      6  C   UNL d   1      54.519  33.410  53.635  0.00  0.00     0.001 A 
ENDROOT
BRANCH   3   7
ATOM      7  C   UNL d   1      52.483  34.232  53.687  0.00  0.00     0.300 C 
ATOM      8  O   UNL d   1      52.461  34.817  54.270  0.00  0.00    -0.259 OA
BRANCH   7   9
ATOM      9  O   UNL d   1      51.886  34.190  53.117  0.00  0.00    -0.271 OA
BRANCH   9  10
ATOM     10  C   UNL d   1      51.148  34.519  53.273  0.00  0.00     0.126 C 
BRANCH  10  11
ATOM     11  C   UNL d   1      50.574  34.522  52.691  0.00  0.00     0.027 A 
ATOM     12  C   UNL d   1      49.842  34.838  52.851  0.00  0.00     0.028 A 
ATOM     13  C   UNL d   1      49.266  34.841  52.264  0.00  0.00     0.119 A 
ATOM     14  O   UNL d   1      48.483  35.119  52.259  0.00  0.00    -0.300 OA
ATOM     15  C   UNL d   1      49.424  34.528  51.523  0.00  0.00     0.119 A 
ATOM     16  C   UNL d   1      48.171  34.970  51.509  0.00  0.00     0.304 A 
ATOM     17  O   UNL d   1      48.751  34.607  51.056  0.00  0.00    -0.300 OA
ATOM     18  C   UNL d   1      50.166  34.208  51.364  0.00  0.00     0.026 A 
ATOM     19  C   UNL d   1      50.742  34.205  51.950  0.00  0.00     0.004 A 
ENDBRANCH  10  11
ENDBRANCH   9  10
ENDBRANCH   7   9
ENDBRANCH   3   7
BRANCH   1  20
ATOM     20  S   UNL d   1      53.421  31.521  53.623  0.00  0.00     0.271 S 
ATOM     21  O   UNL d   1      53.180  31.543  52.828  0.00  0.00    -0.200 OA
ATOM     22  O   UNL d   1      53.662  31.495  54.419  0.00  0.00    -0.200 OA
BRANCH  20  23
ATOM     23  N   UNL d   1      53.257  30.706  53.598  0.00  0.00    -0.229 N 
ATOM     24  C   UNL d   1      53.461  30.225  54.247  0.00  0.00     0.092 A 
ATOM     25  C   UNL d   1      53.294  29.418  54.212  0.00  0.00     0.020 A 
ATOM     26  C   UNL d   1      52.930  29.078  53.549  0.00  0.00     0.003 A 
ATOM     27  C   UNL d   1      52.733  29.562  52.913  0.00  0.00     0.020 A 
ATOM     28  C   UNL d   1      52.897  30.377  52.937  0.00  0.00     0.092 A 
ENDBRANCH  20  23
ENDBRANCH   1  20
TORSDOF 6
ENDMDL
MODEL 4
REMARK VINA RESULT:      -8.0      1.197      1.817
REMARK  6 active torsions:
REMARK  status: ('A' for Active; 'I' for Inactive)
REMARK    1  A    between atoms: N_2  and  S_1 
REMARK    2  A    between atoms: C_3  and  S_1 
REMARK    3  A    between atoms: C_4  and  C_9 
REMARK    4  A    between atoms: O_12  and  C_4 
REMARK    5  A    between atoms: C_19  and  O_12 
REMARK    6  A    between atoms: C_18  and  C_19 
ROOT
ATOM      1  C   UNL d   1      52.144  33.126  53.514  0.00  0.00     0.104 A 
ATOM      2  C   UNL d   1      51.778  33.742  53.090  0.00  0.00     0.018 A 
ATOM      3  C   UNL d   1      51.024  33.620  52.772  0.00  0.00     0.064 A 
ATOM      4  C   UNL d   1      51.767  32.401  53.619  0.00  0.00     0.013 A 
ATOM      5  C   UNL d   1      50.642  32.891  52.875  0.00  0.00     0.005 A 
ATOM      6  C   UNL d   1      51.013  32.279  53.300  0.00  0.00     0.001 A 
ENDROOT
BRANCH   3   7
ATOM      7  C   UNL d   1      50.645  34.223  52.347  0.00  0.00     0.300 C 
ATOM      8  O   UNL d   1      50.972  34.511  51.645  0.00  0.00    -0.259 OA
BRANCH   7   9
ATOM      9  O   UNL d   1      49.934  34.533  52.633  0.00  0.00    -0.271 OA
BRANCH   9  10
ATOM     10  C   UNL d   1      49.493  35.045  52.164  0.00  0.00     0.126 C 
BRANCH  10  11
ATOM     11  C   UNL d   1      48.813  35.386  52.463  0.00  0.00     0.027 A 
ATOM     12  C   UNL d   1      48.157  35.458  51.988  0.00  0.00     0.028 A 
ATOM     13  C   UNL d   1      47.474  35.802  52.291  0.00  0.00     0.119 A 
ATOM     14  O   UNL d   1      46.731  35.950  51.951  0.00  0.00    -0.300 OA
ATOM     15  C   UNL d   1      47.450  36.071  53.065  0.00  0.00     0.119 A 
ATOM     16  C   UNL d   1      46.261  36.309  52.526  0.00  0.00     0.304 A 
ATOM     17  O   UNL d   1      46.704  36.384  53.212  0.00  0.00    -0.300 OA
ATOM     18  C   UNL d   1      48.117  35.997  53.545  0.00  0.00     0.026 A 
ATOM     19  C   UNL d   1      48.800  35.653  53.242  0.00  0.00     0.004 A 
ENDBRANCH  10  11
ENDBRANCH   9  10
ENDBRANCH   7   9
ENDBRANCH   3   7
BRANCH   1  20
ATOM     20  S   UNL d   1      52.898  33.248  53.833  0.00  0.00     0.271 S 
ATOM     21  O   UNL d   1      52.601  33.727  54.444  0.00  0.00    -0.200 OA
ATOM     22  O   UNL d   1      53.198  32.769  53.223  0.00  0.00    -0.200 OA
BRANCH  20  23
ATOM     23  N   UNL d   1      53.649  33.379  54.163  0.00  0.00    -0.229 N 
ATOM     24  C   UNL d   1      53.714  33.770  54.896  0.00  0.00     0.092 A 
ATOM     25  C   UNL d   1      54.465  33.895  55.215  0.00  0.00     0.020 A 
ATOM     26  C   UNL d   1      55.151  33.641  54.824  0.00  0.00     0.003 A 
ATOM     27  C   UNL d   1      55.075  33.255  54.101  0.00  0.00     0.020 A 
ATOM     28  C   UNL d   1      54.325  33.124  53.770  0.00  0.00     0.092 A 
ENDBRANCH  20  23
ENDBRANCH   1  20
TORSDOF 6
ENDMDL
MODEL 5
REMARK VINA RESULT:      -8.0      2.051      5.961
REMARK  6 active torsions:
REMARK  status: ('A' for Active; 'I' for Inactive)
REMARK    1  A    between atoms: N_2  and  S_1 
REMARK    2  A    between atoms: C_3  and  S_1 
REMARK    3  A    between atoms: C_4  and  C_9 
REMARK    4  A    between atoms: O_12  and  C_4 
REMARK    5  A    between atoms: C_19  and  O_12 
REMARK    6  A    between atoms: C_18  and  C_19 
ROOT
ATOM      1  C   UNL d   1      49.699  34.737  52.381  0.00  0.00     0.104 A 
ATOM      2  C   UNL d   1      50.078  34.237  52.929  0.00  0.00     0.018 A 
ATOM      3  C   UNL d   1      50.738  33.802  52.689  0.00  0.00     0.064 A 
ATOM      4  C   UNL d   1      49.975  34.802  51.606  0.00  0.00     0.013 A 
ATOM      5  C   UNL d   1      51.018  33.865  51.909  0.00  0.00     0.005 A 
ATOM      6  C   UNL d   1      50.635  34.366  51.366  0.00  0.00     0.001 A 
ENDROOT
BRANCH   3   7
ATOM      7  C   UNL d   1      51.128  33.299  53.221  0.00  0.00     0.300 C 
ATOM      8  O   UNL d   1      50.724  32.671  53.575  0.00  0.00    -0.259 OA
BRANCH   7   9
ATOM      9  O   UNL d   1      51.924  33.433  53.396  0.00  0.00    -0.271 OA
BRANCH   9  10
ATOM     10  C   UNL d   1      52.339  32.892  53.857  0.00  0.00     0.126 C 
BRANCH  10  11
ATOM     11  C   UNL d   1      53.132  33.016  54.012  0.00  0.00     0.027 A 
ATOM     12  C   UNL d   1      53.349  33.503  54.626  0.00  0.00     0.028 A 
ATOM     13  C   UNL d   1      54.147  33.627  54.781  0.00  0.00     0.119 A 
ATOM     14  O   UNL d   1      54.535  34.084  55.356  0.00  0.00    -0.300 OA
ATOM     15  C   UNL d   1      54.722  33.263  54.324  0.00  0.00     0.119 A 
ATOM     16  C   UNL d   1      55.347  33.992  55.241  0.00  0.00     0.304 A 
ATOM     17  O   UNL d   1      55.462  33.487  54.606  0.00  0.00    -0.300 OA
ATOM     18  C   UNL d   1      54.499  32.769  53.703  0.00  0.00     0.026 A 
ATOM     19  C   UNL d   1      53.701  32.646  53.548  0.00  0.00     0.004 A 
ENDBRANCH  10  11
ENDBRANCH   9  10
ENDBRANCH   7   9
ENDBRANCH   3   7
BRANCH   1  20
ATOM     20  S   UNL d   1      49.039  35.173  52.621  0.00  0.00     0.271 S 
ATOM     21  O   UNL d   1      49.453  35.520  53.253  0.00  0.00    -0.200 OA
ATOM     22  O   UNL d   1      48.621  34.828  51.989  0.00  0.00    -0.200 OA
BRANCH  20  23
ATOM     23  N   UNL d   1      48.383  35.617  52.873  0.00  0.00    -0.229 N 
ATOM     24  C   UNL d   1      47.746  35.743  52.352  0.00  0.00     0.092 A 
ATOM     25  C   UNL d   1      47.100  36.184  52.613  0.00  0.00     0.020 A 
ATOM     26  C   UNL d   1      47.071  36.503  53.377  0.00  0.00     0.003 A 
ATOM     27  C   UNL d   1      47.706  36.373  53.885  0.00  0.00     0.020 A 
ATOM     28  C   UNL d   1      48.363  35.930  53.633  0.00  0.00     0.092 A 
ENDBRANCH  20  23
ENDBRANCH   1  20
TORSDOF 6
ENDMDL
MODEL 6
REMARK VINA RESULT:      -7.6      2.326      6.364
REMARK  6 active torsions:
REMARK  status: ('A' for Active; 'I' for Inactive)
REMARK    1  A    between atoms: N_2  and  S_1 
REMARK    2  A    between atoms: C_3  and  S_1 
REMARK    3  A    between atoms: C_4  and  C_9 
REMARK    4  A    between atoms: O_12  and  C_4 
REMARK    5  A    between atoms: C_19  and  O_12 
REMARK    6  A    between atoms: C_18  and  C_19 
ROOT
ATOM      1  C   UNL d   1      47.451  35.836  52.549  0.00  0.00     0.104 A 
ATOM      2  C   UNL d   1      48.031  35.362  52.185  0.00  0.00     0.018 A 
ATOM      3  C   UNL d   1      48.751  35.238  52.571  0.00  0.00     0.064 A 
ATOM      4  C   UNL d   1      47.587  36.181  53.285  0.00  0.00     0.013 A 
ATOM      5  C   UNL d   1      48.892  35.585  53.312  0.00  0.00     0.005 A 
ATOM      6  C   UNL d   1      48.308  36.058  53.671  0.00  0.00     0.001 A 
ENDROOT
BRANCH   3   7
ATOM      7  C   UNL d   1      49.340  34.769  52.222  0.00  0.00     0.300 C 
ATOM      8  O   UNL d   1      49.235  34.460  51.464  0.00  0.00    -0.259 OA
BRANCH   7   9
ATOM      9  O   UNL d   1      50.035  34.614  52.642  0.00  0.00    -0.271 OA
BRANCH   9  10
ATOM     10  C   UNL d   1      50.658  34.223  52.273  0.00  0.00     0.126 C 
BRANCH  10  11
ATOM     11  C   UNL d   1      51.351  34.085  52.684  0.00  0.00     0.027 A 
ATOM     12  C   UNL d   1      51.550  33.324  52.890  0.00  0.00     0.028 A 
ATOM     13  C   UNL d   1      52.247  33.187  53.303  0.00  0.00     0.119 A 
ATOM     14  O   UNL d   1      52.594  32.487  53.586  0.00  0.00    -0.300 OA
ATOM     15  C   UNL d   1      52.741  33.809  53.508  0.00  0.00     0.119 A 
ATOM     16  C   UNL d   1      53.299  32.693  53.962  0.00  0.00     0.304 A 
ATOM     17  O   UNL d   1      53.389  33.506  53.914  0.00  0.00    -0.300 OA
ATOM     18  C   UNL d   1      52.536  34.579  53.298  0.00  0.00     0.026 A 
ATOM     19  C   UNL d   1      51.839  34.716  52.885  0.00  0.00     0.004 A 
ENDBRANCH  10  11
ENDBRANCH   9  10
ENDBRANCH   7   9
ENDBRANCH   3   7
BRANCH   1  20
ATOM     20  S   UNL d   1      46.730  35.959  52.164  0.00  0.00     0.271 S 
ATOM     21  O   UNL d   1      46.381  35.299  52.529  0.00  0.00    -0.200 OA
ATOM     22  O   UNL d   1      47.076  36.621  51.796  0.00  0.00    -0.200 OA
BRANCH  20  23
ATOM     23  N   UNL d   1      45.999  36.072  51.782  0.00  0.00    -0.229 N 
ATOM     24  C   UNL d   1      45.423  36.560  52.133  0.00  0.00     0.092 A 
ATOM     25  C   UNL d   1      44.702  36.665  51.747  0.00  0.00     0.020 A 
ATOM     26  C   UNL d   1      44.540  36.297  51.021  0.00  0.00     0.003 A 
ATOM     27  C   UNL d   1      45.117  35.817  50.683  0.00  0.00     0.020 A 
ATOM     28  C   UNL d   1      45.847  35.704  51.063  0.00  0.00     0.092 A 
ENDBRANCH  20  23
ENDBRANCH   1  20
TORSDOF 6
ENDMDL
MODEL 7
REMARK VINA RESULT:      -6.7      2.560      5.957
REMARK  6 active torsions:
REMARK  status: ('A' for Active; 'I' for Inactive)
REMARK    1  A    between atoms: N_2  and  S_1 
REMARK    2  A    between atoms: C_3  and  S_1 
REMARK    3  A    between atoms: C_4  and  C_9 
REMARK    4  A    between atoms: O_12  and  C_4 
REMARK    5  A    between atoms: C_19  and  O_12 
REMARK    6  A    between atoms: C_18  and  C_19 
ROOT
ATOM      1  C   UNL d   1      47.405  35.917  52.476  0.00  0.00     0.104 A 
ATOM      2  C   UNL d   1      47.984  35.320  52.419  0.00  0.00     0.018 A 
ATOM      3  C   UNL d   1      48.310  35.144  51.680  0.00  0.00     0.064 A 
ATOM      4  C   UNL d   1      47.157  36.331  51.807  0.00  0.00     0.013 A 
ATOM      5  C   UNL d   1      48.062  35.559  51.005  0.00  0.00     0.005 A 
ATOM      6  C   UNL d   1      47.484  36.155  51.068  0.00  0.00     0.001 A 
ENDROOT
BRANCH   3   7
ATOM      7  C   UNL d   1      48.887  34.552  51.605  0.00  0.00     0.300 C 
ATOM      8  O   UNL d   1      48.824  33.979  51.015  0.00  0.00    -0.259 OA
BRANCH   7   9
ATOM      9  O   UNL d   1      49.527  34.543  52.129  0.00  0.00    -0.271 OA
BRANCH   9  10
ATOM     10  C   UNL d   1      50.222  34.157  51.918  0.00  0.00     0.126 C 
BRANCH  10  11
ATOM     11  C   UNL d   1      50.819  34.068  52.469  0.00  0.00     0.027 A 
ATOM     12  C   UNL d   1      51.468  34.558  52.441  0.00  0.00     0.028 A 
ATOM     13  C   UNL d   1      52.068  34.468  52.995  0.00  0.00     0.119 A 
ATOM     14  O   UNL d   1      52.784  34.874  53.108  0.00  0.00    -0.300 OA
ATOM     15  C   UNL d   1      52.017  33.889  53.574  0.00  0.00     0.119 A 
ATOM     16  C   UNL d   1      53.163  34.535  53.758  0.00  0.00     0.304 A 
ATOM     17  O   UNL d   1      52.691  33.929  54.045  0.00  0.00    -0.300 OA
ATOM     18  C   UNL d   1      51.359  33.394  53.600  0.00  0.00     0.026 A 
ATOM     19  C   UNL d   1      50.759  33.484  53.046  0.00  0.00     0.004 A 
ENDBRANCH  10  11
ENDBRANCH   9  10
ENDBRANCH   7   9
ENDBRANCH   3   7
BRANCH   1  20
ATOM     20  S   UNL d   1      47.079  36.094  53.215  0.00  0.00     0.271 S 
ATOM     21  O   UNL d   1      47.738  36.550  53.437  0.00  0.00    -0.200 OA
ATOM     22  O   UNL d   1      46.418  35.638  52.996  0.00  0.00    -0.200 OA
BRANCH  20  23
ATOM     23  N   UNL d   1      46.762  36.279  53.961  0.00  0.00    -0.229 N 
ATOM     24  C   UNL d   1      47.270  36.528  54.573  0.00  0.00     0.092 A 
ATOM     25  C   UNL d   1      46.945  36.709  55.309  0.00  0.00     0.020 A 
ATOM     26  C   UNL d   1      46.130  36.649  55.452  0.00  0.00     0.003 A 
ATOM     27  C   UNL d   1      45.638  36.401  54.840  0.00  0.00     0.020 A 
ATOM     28  C   UNL d   1      45.953  36.216  54.094  0.00  0.00     0.092 A 
ENDBRANCH  20  23
ENDBRANCH   1  20
TORSDOF 6
ENDMDL
