MODEL 1
REMARK VINA RESULT:      -3.1      0.000      0.000
REMARK  8 active torsions:
REMARK  status: ('A' for Active; 'I' for Inactive)
REMARK    1  A    between atoms: S_7  and  C_3 
REMARK    2  A    between atoms: C_8  and  C_4 
REMARK    3  A    between atoms: C_14  and  S_7 
REMARK    4  A    between atoms: C_17  and  C_8 
REMARK    5  A    between atoms: C_9  and  C_14 
REMARK       I    between atoms: N_12  and  C_9 
REMARK    6  A    between atoms: C_15  and  N_12 
REMARK    7  A    between atoms: O_22  and  C_16 
REMARK    8  A    between atoms: C_23  and  O_22 
ROOT
ATOM      1  N   UNL d   1      59.534  -0.139  29.450  0.00  0.00    -0.149 N 
ATOM      2  C   UNL d   1      59.958  -0.680  29.026  0.00  0.00     0.303 A 
ATOM      3  C   UNL d   1      58.807  -0.340  29.783  0.00  0.00     0.220 A 
ATOM      4  C   UNL d   1      59.654  -1.435  28.932  0.00  0.00     0.161 A 
ATOM      5  N   UNL d   1      58.940  -1.654  29.253  0.00  0.00    -0.141 NA
ATOM      6  N   UNL d   1      58.516  -1.113  29.676  0.00  0.00    -0.121 NA
ATOM      7  O   UNL d   1      60.691  -0.473  28.691  0.00  0.00    -0.263 OA
ATOM      8  N   UNL d   1      59.817   0.645  29.565  0.00  0.00    -0.037 N 
ENDROOT
BRANCH   3   9
ATOM      9  S   UNL d   1      58.373   0.202  30.213  0.00  0.00    -0.041 SA
BRANCH   9  10
ATOM     10  C   UNL d   1      58.378   0.170  31.043  0.00  0.00     0.101 C 
BRANCH  10  11
ATOM     11  C   UNL d   1      57.675   0.259  31.450  0.00  0.00     0.286 C 
ATOM     12  N   UNL d   1      57.597  -0.065  32.204  0.00  0.00    -0.208 NA
ATOM     13  O   UNL d   1      57.024   0.664  31.142  0.00  0.00    -0.265 OA
BRANCH  12  14
ATOM     14  C   UNL d   1      56.901   0.016  32.622  0.00  0.00     0.085 A 
ATOM     15  C   UNL d   1      56.245  -0.478  32.480  0.00  0.00     0.021 A 
ATOM     16  C   UNL d   1      55.547  -0.384  32.911  0.00  0.00     0.026 A 
ATOM     17  C   UNL d   1      55.476   0.188  33.486  0.00  0.00     0.100 A 
ATOM     18  C   UNL d   1      56.131   0.682  33.629  0.00  0.00     0.026 A 
ATOM     19  C   UNL d   1      56.815   0.602  33.218  0.00  0.00     0.021 A 
BRANCH  17  20
ATOM     20  O   UNL d   1      54.794   0.268  33.896  0.00  0.00    -0.305 OA
BRANCH  20  21
ATOM     21  C   UNL d   1      54.779   0.275  34.723  0.00  0.00     0.123 C 
ATOM     22  C   UNL d   1      54.084   0.411  35.145  0.00  0.00     0.029 C 
ENDBRANCH  20  21
ENDBRANCH  17  20
ENDBRANCH  12  14
ENDBRANCH  10  11
ENDBRANCH   9  10
ENDBRANCH   3   9
BRANCH   4  23
ATOM     23  C   UNL d   1      60.096  -2.000  28.490  0.00  0.00     0.026 C 
BRANCH  23  24
ATOM     24  C   UNL d   1      60.209  -2.744  28.799  0.00  0.00     0.002 A 
ATOM     25  C   UNL d   1      59.676  -3.352  28.668  0.00  0.00     0.000 A 
ATOM     26  C   UNL d   1      59.790  -4.088  28.975  0.00  0.00     0.000 A 
ATOM     27  C   UNL d   1      60.473  -4.239  29.442  0.00  0.00     0.000 A 
ATOM     28  C   UNL d   1      61.020  -3.633  29.582  0.00  0.00     0.000 A 
ATOM     29  C   UNL d   1      60.892  -2.895  29.265  0.00  0.00     0.000 A 
ENDBRANCH  23  24
ENDBRANCH   4  23
TORSDOF 8
ENDMDL
