MODEL 1
REMARK VINA RESULT:      -3.7      0.000      0.000
REMARK  4 active torsions:
REMARK  status: ('A' for Active; 'I' for Inactive)
REMARK    1  A    between atoms: C_10  and  N_2 
REMARK    2  A    between atoms: N_6  and  C_3 
REMARK    3  A    between atoms: N_7  and  N_6 
REMARK    4  A    between atoms: C_11  and  N_7 
ROOT
ATOM      1  C   UNL d   1      58.514  -1.213  29.930  0.00  0.00     0.206 A 
ATOM      2  N   UNL d   1      58.954  -1.014  29.256  0.00  0.00    -0.209 N 
ATOM      3  C   UNL d   1      57.975  -0.583  30.041  0.00  0.00     0.160 A 
ATOM      4  N   UNL d   1      58.704  -0.312  28.972  0.00  0.00    -0.162 NA
ATOM      5  C   UNL d   1      58.101  -0.033  29.444  0.00  0.00     0.124 A 
ATOM      6  N   UNL d   1      58.585  -1.892  30.404  0.00  0.00    -0.125 N 
ATOM      7  C   UNL d   1      57.680   0.682  29.348  0.00  0.00     0.024 C 
ENDROOT
BRANCH   3   8
ATOM      8  N   UNL d   1      57.410  -0.467  30.603  0.00  0.00    -0.143 NA
BRANCH   8   9
ATOM      9  N   UNL d   1      57.638  -0.266  31.384  0.00  0.00    -0.148 NA
BRANCH   9  10
ATOM     10  C   UNL d   1      57.081  -0.331  32.001  0.00  0.00     0.103 A 
ATOM     11  C   UNL d   1      57.158   0.127  32.690  0.00  0.00     0.019 A 
ATOM     12  C   UNL d   1      56.620   0.070  33.295  0.00  0.00     0.002 A 
ATOM     13  C   UNL d   1      57.806   0.659  32.759  0.00  0.00     0.002 C 
ATOM     14  C   UNL d   1      56.699   0.527  33.980  0.00  0.00     0.000 C 
ATOM     15  C   UNL d   1      55.994  -0.459  33.202  0.00  0.00     0.000 A 
ATOM     16  C   UNL d   1      55.912  -0.908  32.537  0.00  0.00     0.002 A 
ATOM     17  C   UNL d   1      56.464  -0.841  31.930  0.00  0.00     0.021 A 
ENDBRANCH   9  10
ENDBRANCH   8   9
ENDBRANCH   3   8
BRANCH   2  18
ATOM     18  C   UNL d   1      59.527  -1.560  29.037  0.00  0.00     0.085 A 
ATOM     19  C   UNL d   1      60.311  -1.392  29.165  0.00  0.00     0.019 A 
ATOM     20  C   UNL d   1      60.889  -1.949  28.941  0.00  0.00     0.002 A 
ATOM     21  C   UNL d   1      60.688  -2.647  28.602  0.00  0.00     0.000 A 
ATOM     22  C   UNL d   1      59.892  -2.826  28.469  0.00  0.00     0.002 A 
ATOM     23  C   UNL d   1      59.311  -2.298  28.679  0.00  0.00     0.019 A 
ENDBRANCH   2  18
TORSDOF 4
ENDMDL
MODEL 2
REMARK VINA RESULT:      -3.0      1.018      4.929
REMARK  4 active torsions:
REMARK  status: ('A' for Active; 'I' for Inactive)
REMARK    1  A    between atoms: C_10  and  N_2 
REMARK    2  A    between atoms: N_6  and  C_3 
REMARK    3  A    between atoms: N_7  and  N_6 
REMARK    4  A    between atoms: C_11  and  N_7 
ROOT
ATOM      1  C   UNL d   1      56.778   0.105  31.867  0.00  0.00     0.206 A 
ATOM      2  N   UNL d   1      56.795   0.196  32.691  0.00  0.00    -0.209 N 
ATOM      3  C   UNL d   1      57.552   0.280  31.604  0.00  0.00     0.160 A 
ATOM      4  N   UNL d   1      57.528   0.411  32.920  0.00  0.00    -0.162 NA
ATOM      5  C   UNL d   1      58.007   0.467  32.262  0.00  0.00     0.124 A 
ATOM      6  N   UNL d   1      56.132  -0.113  31.392  0.00  0.00    -0.125 N 
ATOM      7  C   UNL d   1      58.815   0.677  32.247  0.00  0.00     0.024 C 
ENDROOT
BRANCH   3   8
ATOM      8  N   UNL d   1      57.868   0.285  30.863  0.00  0.00    -0.143 NA
BRANCH   8   9
ATOM      9  N   UNL d   1      57.937  -0.435  30.439  0.00  0.00    -0.148 NA
BRANCH   9  10
ATOM     10  C   UNL d   1      58.429  -0.465  29.766  0.00  0.00     0.103 A 
ATOM     11  C   UNL d   1      58.697  -1.193  29.471  0.00  0.00     0.019 A 
ATOM     12  C   UNL d   1      59.176  -1.232  28.817  0.00  0.00     0.002 A 
ATOM     13  C   UNL d   1      58.466  -1.904  29.859  0.00  0.00     0.002 C 
ATOM     14  C   UNL d   1      59.441  -1.959  28.525  0.00  0.00     0.000 C 
ATOM     15  C   UNL d   1      59.387  -0.521  28.455  0.00  0.00     0.000 A 
ATOM     16  C   UNL d   1      59.131   0.191  28.735  0.00  0.00     0.002 A 
ATOM     17  C   UNL d   1      58.646   0.216  29.399  0.00  0.00     0.021 A 
ENDBRANCH   9  10
ENDBRANCH   8   9
ENDBRANCH   3   8
BRANCH   2  18
ATOM     18  C   UNL d   1      56.085   0.051  33.076  0.00  0.00     0.085 A 
ATOM     19  C   UNL d   1      55.910  -0.702  33.324  0.00  0.00     0.019 A 
ATOM     20  C   UNL d   1      55.187  -0.845  33.714  0.00  0.00     0.002 A 
ATOM     21  C   UNL d   1      54.661  -0.256  33.850  0.00  0.00     0.000 A 
ATOM     22  C   UNL d   1      54.832   0.514  33.601  0.00  0.00     0.002 A 
ATOM     23  C   UNL d   1      55.530   0.677  33.218  0.00  0.00     0.019 A 
ENDBRANCH   2  18
TORSDOF 4
ENDMDL
MODEL 3
REMARK VINA RESULT:      -1.9      0.726      4.562
REMARK  4 active torsions:
REMARK  status: ('A' for Active; 'I' for Inactive)
REMARK    1  A    between atoms: C_10  and  N_2 
REMARK    2  A    between atoms: N_6  and  C_3 
REMARK    3  A    between atoms: N_7  and  N_6 
REMARK    4  A    between atoms: C_11  and  N_7 
ROOT
ATOM      1  C   UNL d   1      57.555  -0.613  30.887  0.00  0.00     0.206 A 
ATOM      2  N   UNL d   1      57.391   0.155  31.152  0.00  0.00    -0.209 N 
ATOM      3  C   UNL d   1      57.888  -0.523  30.126  0.00  0.00     0.160 A 
ATOM      4  N   UNL d   1      57.607   0.682  30.594  0.00  0.00    -0.162 NA
ATOM      5  C   UNL d   1      57.915   0.281  29.954  0.00  0.00     0.124 A 
ATOM      6  N   UNL d   1      57.421  -1.329  31.286  0.00  0.00    -0.125 N 
ATOM      7  C   UNL d   1      58.209   0.615  29.248  0.00  0.00     0.024 C 
ENDROOT
BRANCH   3   8
ATOM      8  N   UNL d   1      58.155  -1.071  29.599  0.00  0.00    -0.143 NA
BRANCH   8   9
ATOM      9  N   UNL d   1      58.922  -1.394  29.693  0.00  0.00    -0.148 NA
BRANCH   9  10
ATOM     10  C   UNL d   1      59.127  -2.085  29.273  0.00  0.00     0.103 A 
ATOM     11  C   UNL d   1      59.924  -2.294  29.166  0.00  0.00     0.019 A 
ATOM     12  C   UNL d   1      60.132  -2.964  28.759  0.00  0.00     0.002 A 
ATOM     13  C   UNL d   1      60.525  -1.799  29.487  0.00  0.00     0.002 C 
ATOM     14  C   UNL d   1      60.927  -3.170  28.653  0.00  0.00     0.000 C 
ATOM     15  C   UNL d   1      59.525  -3.432  28.455  0.00  0.00     0.000 A 
ATOM     16  C   UNL d   1      58.748  -3.237  28.555  0.00  0.00     0.002 A 
ATOM     17  C   UNL d   1      58.550  -2.554  28.969  0.00  0.00     0.021 A 
ENDBRANCH   9  10
ENDBRANCH   8   9
ENDBRANCH   3   8
BRANCH   2  18
ATOM     18  C   UNL d   1      57.055   0.205  31.900  0.00  0.00     0.085 A 
ATOM     19  C   UNL d   1      57.506   0.460  32.525  0.00  0.00     0.019 A 
ATOM     20  C   UNL d   1      57.162   0.509  33.283  0.00  0.00     0.002 A 
ATOM     21  C   UNL d   1      56.395   0.309  33.408  0.00  0.00     0.000 A 
ATOM     22  C   UNL d   1      55.930   0.048  32.777  0.00  0.00     0.002 A 
ATOM     23  C   UNL d   1      56.244  -0.007  32.029  0.00  0.00     0.019 A 
ENDBRANCH   2  18
TORSDOF 4
ENDMDL
MODEL 4
REMARK VINA RESULT:      -1.6      1.464      2.478
REMARK  4 active torsions:
REMARK  status: ('A' for Active; 'I' for Inactive)
REMARK    1  A    between atoms: C_10  and  N_2 
REMARK    2  A    between atoms: N_6  and  C_3 
REMARK    3  A    between atoms: N_7  and  N_6 
REMARK    4  A    between atoms: C_11  and  N_7 
ROOT
ATOM      1  C   UNL d   1      57.294  -0.134  31.208  0.00  0.00     0.206 A 
ATOM      2  N   UNL d   1      57.684  -0.794  30.890  0.00  0.00    -0.209 N 
ATOM      3  C   UNL d   1      56.743  -0.441  31.756  0.00  0.00     0.160 A 
ATOM      4  N   UNL d   1      57.393  -1.459  31.218  0.00  0.00    -0.162 NA
ATOM      5  C   UNL d   1      56.812  -1.260  31.754  0.00  0.00     0.124 A 
ATOM      6  N   UNL d   1      57.418   0.667  31.028  0.00  0.00    -0.125 N 
ATOM      7  C   UNL d   1      56.361  -1.784  32.223  0.00  0.00     0.024 C 
ENDROOT
BRANCH   3   8
ATOM      8  N   UNL d   1      56.211  -0.068  32.232  0.00  0.00    -0.143 NA
BRANCH   8   9
ATOM      9  N   UNL d   1      56.449   0.195  32.992  0.00  0.00    -0.148 NA
BRANCH   9  10
ATOM     10  C   UNL d   1      55.868   0.356  33.568  0.00  0.00     0.103 A 
ATOM     11  C   UNL d   1      56.077   0.441  34.367  0.00  0.00     0.019 A 
ATOM     12  C   UNL d   1      55.518   0.598  34.934  0.00  0.00     0.002 A 
ATOM     13  C   UNL d   1      56.885   0.361  34.591  0.00  0.00     0.002 C 
ATOM     14  C   UNL d   1      55.729   0.681  35.730  0.00  0.00     0.000 C 
ATOM     15  C   UNL d   1      54.734   0.671  34.689  0.00  0.00     0.000 A 
ATOM     16  C   UNL d   1      54.522   0.591  33.914  0.00  0.00     0.002 A 
ATOM     17  C   UNL d   1      55.098   0.431  33.349  0.00  0.00     0.021 A 
ENDBRANCH   9  10
ENDBRANCH   8   9
ENDBRANCH   3   8
BRANCH   2  18
ATOM     18  C   UNL d   1      58.260  -0.625  30.329  0.00  0.00     0.085 A 
ATOM     19  C   UNL d   1      58.168  -0.891  29.568  0.00  0.00     0.019 A 
ATOM     20  C   UNL d   1      58.755  -0.717  29.002  0.00  0.00     0.002 A 
ATOM     21  C   UNL d   1      59.408  -0.293  29.194  0.00  0.00     0.000 A 
ATOM     22  C   UNL d   1      59.509  -0.019  29.967  0.00  0.00     0.002 A 
ATOM     23  C   UNL d   1      58.949  -0.176  30.535  0.00  0.00     0.019 A 
ENDBRANCH   2  18
TORSDOF 4
ENDMDL
