MODEL 1
REMARK VINA RESULT:     101.8      0.000      0.000
REMARK  7 active torsions:
REMARK  status: ('A' for Active; 'I' for Inactive)
REMARK    1  A    between atoms: C_11  and  C_3 
REMARK    2  A    between atoms: C_10  and  C_4 
REMARK    3  A    between atoms: O_16  and  C_10 
REMARK    4  A    between atoms: N_14  and  C_11 
REMARK    5  A    between atoms: C_21  and  N_14 
REMARK    6  A    between atoms: C_23  and  O_16 
REMARK    7  A    between atoms: C_20  and  C_21 
ROOT
ATOM      1  C   UNL d   1      60.795  48.189  50.646  0.00  0.00     0.035 A 
ATOM      2  C   UNL d   1      61.393  48.294  51.215  0.00  0.00     0.100 A 
ATOM      3  C   UNL d   1      60.066  48.555  50.759  0.00  0.00     0.060 A 
ATOM      4  C   UNL d   1      61.076  47.705  50.043  0.00  0.00     0.088 A 
ATOM      5  O   UNL d   1      62.067  47.854  50.946  0.00  0.00    -0.307 OA
ATOM      6  C   UNL d   1      61.861  47.512  50.250  0.00  0.00     0.105 A 
ATOM      7  C   UNL d   1      59.940  49.024  51.442  0.00  0.00     0.197 A 
ATOM      8  C   UNL d   1      61.278  48.760  51.901  0.00  0.00     0.026 A 
ATOM      9  C   UNL d   1      60.549  49.126  52.014  0.00  0.00     0.041 A 
ATOM     10  O   UNL d   1      59.195  49.399  51.558  0.00  0.00    -0.286 OA
ATOM     11  C   UNL d   1      62.372  47.024  49.793  0.00  0.00     0.027 C 
ATOM     12  C   UNL d   1      61.870  48.858  52.454  0.00  0.00     0.002 A 
ATOM     13  C   UNL d   1      60.417  49.588  52.680  0.00  0.00     0.003 A 
ATOM     14  C   UNL d   1      61.025  49.689  53.248  0.00  0.00     0.000 A 
ATOM     15  C   UNL d   1      61.753  49.323  53.135  0.00  0.00     0.000 A 
ENDROOT
BRANCH   3  16
ATOM     16  C   UNL d   1      59.470  48.433  50.163  0.00  0.00     0.102 C 
BRANCH  16  17
ATOM     17  N   UNL d   1      58.662  48.696  50.331  0.00  0.00    -0.240 NA
BRANCH  17  18
ATOM     18  C   UNL d   1      58.291  49.221  49.799  0.00  0.00     0.124 C 
BRANCH  18  19
ATOM     19  C   UNL d   1      57.473  49.309  49.826  0.00  0.00     0.119 A 
ATOM     20  O   UNL d   1      57.095  49.610  50.521  0.00  0.00    -0.304 OA
ATOM     21  C   UNL d   1      56.292  49.630  50.375  0.00  0.00     0.123 A 
ATOM     22  C   UNL d   1      56.169  49.358  49.629  0.00  0.00     0.029 A 
ATOM     23  C   UNL d   1      56.877  49.158  49.282  0.00  0.00     0.028 A 
ENDBRANCH  18  19
ENDBRANCH  17  18
ENDBRANCH  16  17
ENDBRANCH   3  16
BRANCH   4  24
ATOM     24  C   UNL d   1      60.675  47.445  49.352  0.00  0.00     0.302 C 
ATOM     25  O   UNL d   1      59.931  47.796  49.132  0.00  0.00    -0.259 OA
BRANCH  24  26
ATOM     26  O   UNL d   1      60.990  46.848  48.873  0.00  0.00    -0.271 OA
BRANCH  26  27
ATOM     27  C   UNL d   1      60.704  46.081  48.937  0.00  0.00     0.126 C 
ATOM     28  C   UNL d   1      61.208  45.452  48.854  0.00  0.00     0.029 C 
ENDBRANCH  26  27
ENDBRANCH  24  26
ENDBRANCH   4  24
TORSDOF 7
ENDMDL
MODEL 2
REMARK VINA RESULT:     102.9      1.638      4.031
REMARK  7 active torsions:
REMARK  status: ('A' for Active; 'I' for Inactive)
REMARK    1  A    between atoms: C_11  and  C_3 
REMARK    2  A    between atoms: C_10  and  C_4 
REMARK    3  A    between atoms: O_16  and  C_10 
REMARK    4  A    between atoms: N_14  and  C_11 
REMARK    5  A    between atoms: C_21  and  N_14 
REMARK    6  A    between atoms: C_23  and  O_16 
REMARK    7  A    between atoms: C_20  and  C_21 
ROOT
ATOM      1  C   UNL d   1      59.661  48.667  50.471  0.00  0.00     0.035 A 
ATOM      2  C   UNL d   1      59.221  49.174  49.978  0.00  0.00     0.100 A 
ATOM      3  C   UNL d   1      59.260  48.153  50.974  0.00  0.00     0.060 A 
ATOM      4  C   UNL d   1      60.463  48.793  50.344  0.00  0.00     0.088 A 
ATOM      5  O   UNL d   1      59.782  49.628  49.532  0.00  0.00    -0.307 OA
ATOM      6  C   UNL d   1      60.513  49.389  49.761  0.00  0.00     0.105 A 
ATOM      7  C   UNL d   1      58.423  48.149  50.982  0.00  0.00     0.197 A 
ATOM      8  C   UNL d   1      58.384  49.178  49.977  0.00  0.00     0.026 A 
ATOM      9  C   UNL d   1      57.984  48.664  50.480  0.00  0.00     0.041 A 
ATOM     10  O   UNL d   1      58.013  47.623  51.497  0.00  0.00    -0.286 OA
ATOM     11  C   UNL d   1      61.232  49.702  49.453  0.00  0.00     0.027 C 
ATOM     12  C   UNL d   1      57.961  49.678  49.491  0.00  0.00     0.002 A 
ATOM     13  C   UNL d   1      57.162  48.653  50.495  0.00  0.00     0.003 A 
ATOM     14  C   UNL d   1      56.728  49.167  49.995  0.00  0.00     0.000 A 
ATOM     15  C   UNL d   1      57.128  49.681  49.492  0.00  0.00     0.000 A 
ENDROOT
BRANCH   3  16
ATOM     16  C   UNL d   1      59.732  47.644  51.469  0.00  0.00     0.102 C 
BRANCH  16  17
ATOM     17  N   UNL d   1      59.603  46.789  51.418  0.00  0.00    -0.240 NA
BRANCH  17  18
ATOM     18  C   UNL d   1      60.134  46.329  50.968  0.00  0.00     0.124 C 
BRANCH  18  19
ATOM     19  C   UNL d   1      60.555  45.725  51.339  0.00  0.00     0.119 A 
ATOM     20  O   UNL d   1      60.900  45.099  50.886  0.00  0.00    -0.304 OA
ATOM     21  C   UNL d   1      61.274  44.595  51.408  0.00  0.00     0.123 A 
ATOM     22  C   UNL d   1      61.172  44.887  52.150  0.00  0.00     0.029 A 
ATOM     23  C   UNL d   1      60.737  45.573  52.125  0.00  0.00     0.028 A 
ENDBRANCH  18  19
ENDBRANCH  17  18
ENDBRANCH  16  17
ENDBRANCH   3  16
BRANCH   4  24
ATOM     24  C   UNL d   1      61.117  48.414  50.711  0.00  0.00     0.302 C 
ATOM     25  O   UNL d   1      61.527  47.785  50.308  0.00  0.00    -0.259 OA
BRANCH  24  26
ATOM     26  O   UNL d   1      61.377  48.640  51.463  0.00  0.00    -0.271 OA
BRANCH  26  27
ATOM     27  C   UNL d   1      61.770  49.355  51.561  0.00  0.00     0.126 C 
ATOM     28  C   UNL d   1      61.832  49.687  52.297  0.00  0.00     0.029 C 
ENDBRANCH  26  27
ENDBRANCH  24  26
ENDBRANCH   4  24
TORSDOF 7
ENDMDL
