MODEL 1
REMARK VINA RESULT:      74.2      0.000      0.000
REMARK  3 active torsions:
REMARK  status: ('A' for Active; 'I' for Inactive)
REMARK    1  A    between atoms: C_8  and  N_1 
REMARK    2  A    between atoms: N_7  and  C_2 
REMARK    3  A    between atoms: C_16  and  C_8 
ROOT
ATOM      1  N   UNL d   1     -48.290  28.282  35.235  0.00  0.00    -0.225 N 
ATOM      2  C   UNL d   1     -49.408  27.347  34.469  0.00  0.00     0.158 A 
ATOM      3  C   UNL d   1     -49.034  28.160  35.576  0.00  0.00     0.358 A 
ATOM      4  N   UNL d   1     -49.588  27.695  35.192  0.00  0.00    -0.174 NA
ATOM      5  C   UNL d   1     -48.102  27.938  34.512  0.00  0.00     0.271 A 
ATOM      6  C   UNL d   1     -48.664  27.469  34.128  0.00  0.00     0.099 A 
ATOM      7  O   UNL d   1     -49.217  28.509  36.305  0.00  0.00    -0.244 OA
ATOM      8  O   UNL d   1     -47.358  28.060  34.171  0.00  0.00    -0.266 OA
ENDROOT
BRANCH   1   9
ATOM      9  C   UNL d   1     -47.732  28.750  35.621  0.00  0.00     0.087 C 
BRANCH   9  10
ATOM     10  C   UNL d   1     -47.690  29.559  35.459  0.00  0.00     0.018 A 
ATOM     11  C   UNL d   1     -47.231  30.043  35.948  0.00  0.00     0.004 A 
ATOM     12  C   UNL d   1     -47.189  30.851  35.787  0.00  0.00     0.030 A 
ATOM     13  C   UNL d   1     -47.601  31.162  35.148  0.00  0.00     0.140 A 
ATOM     14  C   UNL d   1     -48.052  30.681  34.670  0.00  0.00     0.030 A 
ATOM     15  F   UNL d   1     -47.554  31.975  34.992  0.00  0.00    -0.204 F 
ATOM     16  C   UNL d   1     -48.098  29.876  34.823  0.00  0.00     0.004 A 
ENDBRANCH   9  10
ENDBRANCH   1   9
BRANCH   2  17
ATOM     17  N   UNL d   1     -49.963  26.879  34.082  0.00  0.00    -0.285 N 
ATOM     18  C   UNL d   1     -49.784  26.107  33.889  0.00  0.00     0.106 A 
ATOM     19  C   UNL d   1     -50.340  25.639  33.502  0.00  0.00     0.118 A 
ATOM     20  C   UNL d   1     -50.160  24.858  33.306  0.00  0.00     0.028 C 
ATOM     21  O   UNL d   1     -51.075  25.940  33.306  0.00  0.00    -0.304 OA
ATOM     22  C   UNL d   1     -51.263  26.737  33.503  0.00  0.00     0.118 A 
ATOM     23  C   UNL d   1     -50.705  27.203  33.891  0.00  0.00     0.106 A 
ATOM     24  C   UNL d   1     -52.002  27.043  33.308  0.00  0.00     0.028 C 
ENDBRANCH   2  17
TORSDOF 3
ENDMDL
MODEL 2
REMARK VINA RESULT:      74.4      0.351      1.541
REMARK  3 active torsions:
REMARK  status: ('A' for Active; 'I' for Inactive)
REMARK    1  A    between atoms: C_8  and  N_1 
REMARK    2  A    between atoms: N_7  and  C_2 
REMARK    3  A    between atoms: C_16  and  C_8 
ROOT
ATOM      1  N   UNL d   1     -48.326  28.266  35.261  0.00  0.00    -0.225 N 
ATOM      2  C   UNL d   1     -49.427  27.329  34.475  0.00  0.00     0.158 A 
ATOM      3  C   UNL d   1     -48.160  27.975  34.504  0.00  0.00     0.358 A 
ATOM      4  N   UNL d   1     -48.709  27.509  34.115  0.00  0.00    -0.174 NA
ATOM      5  C   UNL d   1     -49.041  28.090  35.627  0.00  0.00     0.271 A 
ATOM      6  C   UNL d   1     -49.593  27.620  35.231  0.00  0.00     0.099 A 
ATOM      7  O   UNL d   1     -47.436  28.156  34.142  0.00  0.00    -0.244 OA
ATOM      8  O   UNL d   1     -49.207  28.381  36.383  0.00  0.00    -0.266 OA
ENDROOT
BRANCH   1   9
ATOM      9  C   UNL d   1     -47.772  28.735  35.653  0.00  0.00     0.087 C 
BRANCH   9  10
ATOM     10  C   UNL d   1     -47.715  29.540  35.477  0.00  0.00     0.018 A 
ATOM     11  C   UNL d   1     -48.290  29.888  34.995  0.00  0.00     0.004 A 
ATOM     12  C   UNL d   1     -48.234  30.691  34.818  0.00  0.00     0.030 A 
ATOM     13  C   UNL d   1     -47.611  31.133  35.122  0.00  0.00     0.140 A 
ATOM     14  C   UNL d   1     -47.048  30.786  35.596  0.00  0.00     0.030 A 
ATOM     15  F   UNL d   1     -47.561  31.940  34.940  0.00  0.00    -0.204 F 
ATOM     16  C   UNL d   1     -47.097  29.987  35.776  0.00  0.00     0.004 A 
ENDBRANCH   9  10
ENDBRANCH   1   9
BRANCH   2  17
ATOM     17  N   UNL d   1     -49.981  26.861  34.086  0.00  0.00    -0.285 N 
ATOM     18  C   UNL d   1     -50.712  27.167  33.892  0.00  0.00     0.106 A 
ATOM     19  C   UNL d   1     -51.266  26.699  33.503  0.00  0.00     0.118 A 
ATOM     20  C   UNL d   1     -52.005  27.009  33.307  0.00  0.00     0.028 C 
ATOM     21  O   UNL d   1     -51.092  25.925  33.306  0.00  0.00    -0.304 OA
ATOM     22  C   UNL d   1     -50.340  25.604  33.504  0.00  0.00     0.118 A 
ATOM     23  C   UNL d   1     -49.787  26.076  33.894  0.00  0.00     0.106 A 
ATOM     24  C   UNL d   1     -50.161  24.825  33.308  0.00  0.00     0.028 C 
ENDBRANCH   2  17
TORSDOF 3
ENDMDL
MODEL 3
REMARK VINA RESULT:      77.1      2.001      4.751
REMARK  3 active torsions:
REMARK  status: ('A' for Active; 'I' for Inactive)
REMARK    1  A    between atoms: C_8  and  N_1 
REMARK    2  A    between atoms: N_7  and  C_2 
REMARK    3  A    between atoms: C_16  and  C_8 
ROOT
ATOM      1  N   UNL d   1     -49.520  26.920  33.703  0.00  0.00    -0.225 N 
ATOM      2  C   UNL d   1     -48.814  28.177  34.498  0.00  0.00     0.158 A 
ATOM      3  C   UNL d   1     -48.802  26.811  34.099  0.00  0.00     0.358 A 
ATOM      4  N   UNL d   1     -48.453  27.437  34.494  0.00  0.00    -0.174 NA
ATOM      5  C   UNL d   1     -49.887  27.656  33.702  0.00  0.00     0.271 A 
ATOM      6  C   UNL d   1     -49.531  28.286  34.102  0.00  0.00     0.099 A 
ATOM      7  O   UNL d   1     -48.438  26.066  34.096  0.00  0.00    -0.244 OA
ATOM      8  O   UNL d   1     -50.605  27.765  33.306  0.00  0.00    -0.266 OA
ENDROOT
BRANCH   1   9
ATOM      9  C   UNL d   1     -49.872  26.289  33.306  0.00  0.00     0.087 C 
BRANCH   9  10
ATOM     10  C   UNL d   1     -50.694  26.206  33.310  0.00  0.00     0.018 A 
ATOM     11  C   UNL d   1     -51.166  26.885  33.309  0.00  0.00     0.004 A 
ATOM     12  C   UNL d   1     -51.987  26.803  33.314  0.00  0.00     0.030 A 
ATOM     13  C   UNL d   1     -52.322  26.053  33.320  0.00  0.00     0.140 A 
ATOM     14  C   UNL d   1     -51.852  25.387  33.321  0.00  0.00     0.030 A 
ATOM     15  F   UNL d   1     -53.148  25.978  33.325  0.00  0.00    -0.204 F 
ATOM     16  C   UNL d   1     -51.035  25.461  33.317  0.00  0.00     0.004 A 
ENDBRANCH   9  10
ENDBRANCH   1   9
BRANCH   2  17
ATOM     17  N   UNL d   1     -48.465  28.808  34.894  0.00  0.00    -0.285 N 
ATOM     18  C   UNL d   1     -48.188  28.711  35.655  0.00  0.00     0.106 A 
ATOM     19  C   UNL d   1     -47.839  29.343  36.051  0.00  0.00     0.118 A 
ATOM     20  C   UNL d   1     -47.560  29.245  36.821  0.00  0.00     0.028 C 
ATOM     21  O   UNL d   1     -47.765  30.072  35.689  0.00  0.00    -0.304 OA
ATOM     22  C   UNL d   1     -48.048  30.176  34.903  0.00  0.00     0.118 A 
ATOM     23  C   UNL d   1     -48.398  29.542  34.509  0.00  0.00     0.106 A 
ATOM     24  C   UNL d   1     -47.975  30.909  34.535  0.00  0.00     0.028 C 
ENDBRANCH   2  17
TORSDOF 3
ENDMDL
