MODEL 1
REMARK VINA RESULT:      -4.3      0.000      0.000
REMARK  10 active torsions:
REMARK  status: ('A' for Active; 'I' for Inactive)
REMARK    1  A    between atoms: C_10  and  N_1 
REMARK    2  A    between atoms: S_7  and  C_2 
REMARK    3  A    between atoms: C_9  and  C_3 
REMARK       I    between atoms: C_6  and  N_8 
REMARK    4  A    between atoms: C_11  and  C_6 
REMARK    5  A    between atoms: C_15  and  S_7 
REMARK    6  A    between atoms: N_8  and  C_9 
REMARK    7  A    between atoms: C_12  and  C_15 
REMARK    8  A    between atoms: O_21  and  C_12 
REMARK    9  A    between atoms: O_22  and  C_18 
REMARK   10  A    between atoms: C_25  and  O_21 
ROOT
ATOM      1  N   UNL d   1     -47.440  13.230  22.991  0.00  0.00    -0.268 N 
ATOM      2  C   UNL d   1     -47.679  14.020  22.966  0.00  0.00     0.201 A 
ATOM      3  C   UNL d   1     -46.608  13.229  23.019  0.00  0.00     0.190 A 
ATOM      4  N   UNL d   1     -47.003  14.499  22.979  0.00  0.00    -0.121 NA
ATOM      5  N   UNL d   1     -46.346  14.018  23.011  0.00  0.00    -0.126 NA
ENDROOT
BRANCH   3   6
ATOM      6  C   UNL d   1     -46.123  12.560  23.050  0.00  0.00     0.141 C 
BRANCH   6   7
ATOM      7  N   UNL d   1     -45.454  12.790  22.618  0.00  0.00    -0.203 NA
ATOM      8  C   UNL d   1     -44.819  12.267  22.538  0.00  0.00     0.279 C 
ATOM      9  O   UNL d   1     -44.847  11.523  22.884  0.00  0.00    -0.265 OA
BRANCH   8  10
ATOM     10  C   UNL d   1     -44.155  12.502  22.107  0.00  0.00     0.058 A 
ATOM     11  C   UNL d   1     -44.229  13.025  21.482  0.00  0.00     0.007 A 
ATOM     12  C   UNL d   1     -43.566  13.260  21.050  0.00  0.00     0.024 A 
ATOM     13  C   UNL d   1     -42.823  12.961  21.257  0.00  0.00     0.094 A 
ATOM     14  C   UNL d   1     -42.750  12.438  21.882  0.00  0.00     0.024 A 
ATOM     15  C   UNL d   1     -43.412  12.203  22.314  0.00  0.00     0.007 A 
BRANCH  13  16
ATOM     16  O   UNL d   1     -42.161  13.197  20.825  0.00  0.00    -0.328 OA
ATOM     17  C   UNL d   1     -41.595  13.674  21.177  0.00  0.00     0.181 C 
ENDBRANCH  13  16
ENDBRANCH   8  10
ENDBRANCH   6   7
ENDBRANCH   3   6
BRANCH   1  18
ATOM     18  C   UNL d   1     -47.927  12.578  22.988  0.00  0.00     0.067 A 
ATOM     19  C   UNL d   1     -48.139  12.223  23.698  0.00  0.00     0.018 A 
ATOM     20  C   UNL d   1     -48.634  11.560  23.695  0.00  0.00     0.002 A 
ATOM     21  C   UNL d   1     -48.914  11.256  22.982  0.00  0.00     0.000 A 
ATOM     22  C   UNL d   1     -48.699  11.615  22.275  0.00  0.00     0.002 A 
ATOM     23  C   UNL d   1     -48.210  12.271  22.278  0.00  0.00     0.018 A 
ENDBRANCH   1  18
BRANCH   2  24
ATOM     24  S   UNL d   1     -48.461  14.291  22.933  0.00  0.00    -0.042 SA
BRANCH  24  25
ATOM     25  C   UNL d   1     -48.634  15.030  22.611  0.00  0.00     0.107 C 
BRANCH  25  26
ATOM     26  C   UNL d   1     -49.383  15.350  22.713  0.00  0.00     0.307 C 
ATOM     27  O   UNL d   1     -49.594  15.686  23.427  0.00  0.00    -0.258 OA
BRANCH  26  28
ATOM     28  O   UNL d   1     -49.922  15.330  22.089  0.00  0.00    -0.271 OA
BRANCH  28  29
ATOM     29  C   UNL d   1     -50.675  15.028  22.213  0.00  0.00     0.126 C 
ATOM     30  C   UNL d   1     -51.063  14.634  21.601  0.00  0.00     0.029 C 
ENDBRANCH  28  29
ENDBRANCH  26  28
ENDBRANCH  25  26
ENDBRANCH  24  25
ENDBRANCH   2  24
TORSDOF 10
ENDMDL
MODEL 2
REMARK VINA RESULT:      -3.4      6.493      8.648
REMARK  10 active torsions:
REMARK  status: ('A' for Active; 'I' for Inactive)
REMARK    1  A    between atoms: C_10  and  N_1 
REMARK    2  A    between atoms: S_7  and  C_2 
REMARK    3  A    between atoms: C_9  and  C_3 
REMARK       I    between atoms: C_6  and  N_8 
REMARK    4  A    between atoms: C_11  and  C_6 
REMARK    5  A    between atoms: C_15  and  S_7 
REMARK    6  A    between atoms: N_8  and  C_9 
REMARK    7  A    between atoms: C_12  and  C_15 
REMARK    8  A    between atoms: O_21  and  C_12 
REMARK    9  A    between atoms: O_22  and  C_18 
REMARK   10  A    between atoms: C_25  and  O_21 
ROOT
ATOM      1  N   UNL d   1     -40.003  15.236  20.500  0.00  0.00    -0.268 N 
ATOM      2  C   UNL d   1     -39.367  15.486  20.964  0.00  0.00     0.201 A 
ATOM      3  C   UNL d   1     -39.857  15.500  19.724  0.00  0.00     0.190 A 
ATOM      4  N   UNL d   1     -38.836  15.900  20.479  0.00  0.00    -0.121 NA
ATOM      5  N   UNL d   1     -39.134  15.910  19.720  0.00  0.00    -0.126 NA
ENDROOT
BRANCH   3   6
ATOM      6  C   UNL d   1     -40.347  15.377  19.069  0.00  0.00     0.141 C 
BRANCH   6   7
ATOM      7  N   UNL d   1     -39.810  15.204  18.461  0.00  0.00    -0.203 NA
ATOM      8  C   UNL d   1     -40.089  15.076  17.694  0.00  0.00     0.279 C 
ATOM      9  O   UNL d   1     -40.892  15.118  17.531  0.00  0.00    -0.265 OA
BRANCH   8  10
ATOM     10  C   UNL d   1     -39.550  14.904  17.093  0.00  0.00     0.058 A 
ATOM     11  C   UNL d   1     -39.116  14.209  17.108  0.00  0.00     0.007 A 
ATOM     12  C   UNL d   1     -38.578  14.037  16.508  0.00  0.00     0.024 A 
ATOM     13  C   UNL d   1     -38.479  14.575  15.888  0.00  0.00     0.094 A 
ATOM     14  C   UNL d   1     -38.912  15.270  15.872  0.00  0.00     0.024 A 
ATOM     15  C   UNL d   1     -39.451  15.442  16.473  0.00  0.00     0.007 A 
BRANCH  13  16
ATOM     16  O   UNL d   1     -37.940  14.403  15.287  0.00  0.00    -0.328 OA
ATOM     17  C   UNL d   1     -38.062  13.752  14.806  0.00  0.00     0.181 C 
ENDBRANCH  13  16
ENDBRANCH   8  10
ENDBRANCH   6   7
ENDBRANCH   3   6
BRANCH   1  18
ATOM     18  C   UNL d   1     -40.648  14.811  20.756  0.00  0.00     0.067 A 
ATOM     19  C   UNL d   1     -40.617  13.990  20.774  0.00  0.00     0.018 A 
ATOM     20  C   UNL d   1     -41.273  13.559  21.034  0.00  0.00     0.002 A 
ATOM     21  C   UNL d   1     -41.957  13.951  21.275  0.00  0.00     0.000 A 
ATOM     22  C   UNL d   1     -41.983  14.772  21.256  0.00  0.00     0.002 A 
ATOM     23  C   UNL d   1     -41.334  15.199  20.999  0.00  0.00     0.018 A 
ENDBRANCH   1  18
BRANCH   2  24
ATOM     24  S   UNL d   1     -39.272  15.350  21.775  0.00  0.00    -0.042 SA
BRANCH  24  25
ATOM     25  C   UNL d   1     -38.522  15.366  22.116  0.00  0.00     0.107 C 
BRANCH  25  26
ATOM     26  C   UNL d   1     -38.445  15.281  22.930  0.00  0.00     0.307 C 
ATOM     27  O   UNL d   1     -38.738  15.853  23.433  0.00  0.00    -0.258 OA
BRANCH  26  28
ATOM     28  O   UNL d   1     -38.070  14.612  23.235  0.00  0.00    -0.271 OA
BRANCH  28  29
ATOM     29  C   UNL d   1     -38.505  14.063  23.662  0.00  0.00     0.126 C 
ATOM     30  C   UNL d   1     -38.250  13.280  23.698  0.00  0.00     0.029 C 
ENDBRANCH  28  29
ENDBRANCH  26  28
ENDBRANCH  25  26
ENDBRANCH  24  25
ENDBRANCH   2  24
TORSDOF 10
ENDMDL
MODEL 3
REMARK VINA RESULT:      -1.6      4.296      8.584
REMARK  10 active torsions:
REMARK  status: ('A' for Active; 'I' for Inactive)
REMARK    1  A    between atoms: C_10  and  N_1 
REMARK    2  A    between atoms: S_7  and  C_2 
REMARK    3  A    between atoms: C_9  and  C_3 
REMARK       I    between atoms: C_6  and  N_8 
REMARK    4  A    between atoms: C_11  and  C_6 
REMARK    5  A    between atoms: C_15  and  S_7 
REMARK    6  A    between atoms: N_8  and  C_9 
REMARK    7  A    between atoms: C_12  and  C_15 
REMARK    8  A    between atoms: O_21  and  C_12 
REMARK    9  A    between atoms: O_22  and  C_18 
REMARK   10  A    between atoms: C_25  and  O_21 
ROOT
ATOM      1  N   UNL d   1     -39.910  14.476  19.339  0.00  0.00    -0.268 N 
ATOM      2  C   UNL d   1     -40.059  14.483  18.527  0.00  0.00     0.201 A 
ATOM      3  C   UNL d   1     -40.546  14.078  19.700  0.00  0.00     0.190 A 
ATOM      4  N   UNL d   1     -40.777  14.093  18.389  0.00  0.00    -0.121 NA
ATOM      5  N   UNL d   1     -41.078  13.844  19.105  0.00  0.00    -0.126 NA
ENDROOT
BRANCH   3   6
ATOM      6  C   UNL d   1     -40.635  13.937  20.509  0.00  0.00     0.141 C 
BRANCH   6   7
ATOM      7  N   UNL d   1     -41.442  13.763  20.584  0.00  0.00    -0.203 NA
ATOM      8  C   UNL d   1     -41.743  13.524  21.316  0.00  0.00     0.279 C 
ATOM      9  O   UNL d   1     -41.249  13.459  21.968  0.00  0.00    -0.265 OA
BRANCH   8  10
ATOM     10  C   UNL d   1     -42.547  13.352  21.384  0.00  0.00     0.058 A 
ATOM     11  C   UNL d   1     -43.103  13.953  21.388  0.00  0.00     0.007 A 
ATOM     12  C   UNL d   1     -43.907  13.782  21.456  0.00  0.00     0.024 A 
ATOM     13  C   UNL d   1     -44.148  12.993  21.520  0.00  0.00     0.094 A 
ATOM     14  C   UNL d   1     -43.592  12.392  21.516  0.00  0.00     0.024 A 
ATOM     15  C   UNL d   1     -42.788  12.563  21.448  0.00  0.00     0.007 A 
BRANCH  13  16
ATOM     16  O   UNL d   1     -44.952  12.822  21.588  0.00  0.00    -0.328 OA
ATOM     17  C   UNL d   1     -45.310  12.837  22.325  0.00  0.00     0.181 C 
ENDBRANCH  13  16
ENDBRANCH   8  10
ENDBRANCH   6   7
ENDBRANCH   3   6
BRANCH   1  18
ATOM     18  C   UNL d   1     -39.264  14.799  19.714  0.00  0.00     0.067 A 
ATOM     19  C   UNL d   1     -39.268  15.594  19.925  0.00  0.00     0.018 A 
ATOM     20  C   UNL d   1     -38.611  15.922  20.306  0.00  0.00     0.002 A 
ATOM     21  C   UNL d   1     -37.953  15.454  20.473  0.00  0.00     0.000 A 
ATOM     22  C   UNL d   1     -37.954  14.661  20.259  0.00  0.00     0.002 A 
ATOM     23  C   UNL d   1     -38.604  14.336  19.883  0.00  0.00     0.018 A 
ENDBRANCH   1  18
BRANCH   2  24
ATOM     24  S   UNL d   1     -39.575  14.820  17.946  0.00  0.00    -0.042 SA
BRANCH  24  25
ATOM     25  C   UNL d   1     -39.647  14.592  17.157  0.00  0.00     0.107 C 
BRANCH  25  26
ATOM     26  C   UNL d   1     -39.160  14.932  16.591  0.00  0.00     0.307 C 
ATOM     27  O   UNL d   1     -39.401  15.601  16.188  0.00  0.00    -0.258 OA
BRANCH  26  28
ATOM     28  O   UNL d   1     -38.425  14.594  16.431  0.00  0.00    -0.271 OA
BRANCH  28  29
ATOM     29  C   UNL d   1     -38.165  14.538  15.654  0.00  0.00     0.126 C 
ATOM     30  C   UNL d   1     -38.212  13.815  15.260  0.00  0.00     0.029 C 
ENDBRANCH  28  29
ENDBRANCH  26  28
ENDBRANCH  25  26
ENDBRANCH  24  25
ENDBRANCH   2  24
TORSDOF 10
ENDMDL
