MODEL 1
REMARK VINA RESULT:      -2.9      0.000      0.000
REMARK  2 active torsions:
REMARK  status: ('A' for Active; 'I' for Inactive)
REMARK    1  A    between atoms: C_10  and  N_3 
REMARK    2  A    between atoms: C_15  and  C_10 
ROOT
ATOM      1  C   UNL d   1      31.131  16.447 -23.894  0.00  0.00     0.166 A 
ATOM      2  C   UNL d   1      30.842  17.136 -24.247  0.00  0.00     0.117 A 
ATOM      3  N   UNL d   1      31.948  16.487 -23.945  0.00  0.00    -0.289 N 
ATOM      4  N   UNL d   1      30.612  15.883 -23.578  0.00  0.00    -0.225 NA
ATOM      5  N   UNL d   1      30.025  17.237 -24.271  0.00  0.00    -0.241 NA
ATOM      6  C   UNL d   1      31.469  17.577 -24.503  0.00  0.00     0.037 A 
ATOM      7  C   UNL d   1      32.162  17.171 -24.313  0.00  0.00     0.067 A 
ATOM      8  C   UNL d   1      29.811  16.002 -23.612  0.00  0.00     0.101 A 
ATOM      9  C   UNL d   1      29.522  16.692 -23.965  0.00  0.00     0.099 A 
ATOM     10  C   UNL d   1      31.509  18.305 -24.888  0.00  0.00     0.003 A 
ATOM     11  C   UNL d   1      32.891  17.496 -24.511  0.00  0.00     0.018 A 
ATOM     12  C   UNL d   1      28.722  16.815 -24.001  0.00  0.00     0.021 A 
ATOM     13  C   UNL d   1      29.309  15.460 -23.308  0.00  0.00     0.021 A 
ATOM     14  C   UNL d   1      32.244  18.628 -25.085  0.00  0.00     0.000 A 
ATOM     15  C   UNL d   1      32.937  18.222 -24.895  0.00  0.00     0.002 A 
ATOM     16  C   UNL d   1      28.483  15.594 -23.349  0.00  0.00     0.002 A 
ATOM     17  C   UNL d   1      28.182  16.262 -23.691  0.00  0.00     0.002 A 
ENDROOT
BRANCH   3  18
ATOM     18  C   UNL d   1      32.462  15.925 -23.667  0.00  0.00     0.082 C 
BRANCH  18  19
ATOM     19  C   UNL d   1      32.799  16.034 -22.907  0.00  0.00     0.019 C 
ATOM     20  C   UNL d   1      33.241  15.453 -22.575  0.00  0.00     0.002 C 
ENDBRANCH  18  19
ENDBRANCH   3  18
TORSDOF 2
ENDMDL
MODEL 2
REMARK VINA RESULT:      -2.6      0.626      2.108
REMARK  2 active torsions:
REMARK  status: ('A' for Active; 'I' for Inactive)
REMARK    1  A    between atoms: C_10  and  N_3 
REMARK    2  A    between atoms: C_15  and  C_10 
ROOT
ATOM      1  C   UNL d   1      30.673  16.812 -24.156  0.00  0.00     0.166 A 
ATOM      2  C   UNL d   1      30.802  16.172 -23.651  0.00  0.00     0.117 A 
ATOM      3  N   UNL d   1      31.410  17.050 -24.421  0.00  0.00    -0.289 N 
ATOM      4  N   UNL d   1      29.904  17.088 -24.303  0.00  0.00    -0.225 NA
ATOM      5  N   UNL d   1      30.143  15.822 -23.303  0.00  0.00    -0.241 NA
ATOM      6  C   UNL d   1      31.597  16.029 -23.615  0.00  0.00     0.037 A 
ATOM      7  C   UNL d   1      31.978  16.579 -24.097  0.00  0.00     0.067 A 
ATOM      8  C   UNL d   1      29.269  16.729 -23.949  0.00  0.00     0.101 A 
ATOM      9  C   UNL d   1      29.399  16.088 -23.444  0.00  0.00     0.099 A 
ATOM     10  C   UNL d   1      32.037  15.465 -23.203  0.00  0.00     0.003 A 
ATOM     11  C   UNL d   1      32.797  16.562 -24.165  0.00  0.00     0.018 A 
ATOM     12  C   UNL d   1      28.766  15.726 -23.089  0.00  0.00     0.021 A 
ATOM     13  C   UNL d   1      28.527  16.993 -24.089  0.00  0.00     0.021 A 
ATOM     14  C   UNL d   1      32.860  15.453 -23.275  0.00  0.00     0.000 A 
ATOM     15  C   UNL d   1      33.241  16.003 -23.757  0.00  0.00     0.002 A 
ATOM     16  C   UNL d   1      27.879  16.614 -23.718  0.00  0.00     0.002 A 
ATOM     17  C   UNL d   1      27.987  15.986 -23.221  0.00  0.00     0.002 A 
ENDROOT
BRANCH   3  18
ATOM     18  C   UNL d   1      31.548  17.665 -24.932  0.00  0.00     0.082 C 
BRANCH  18  19
ATOM     19  C   UNL d   1      31.787  18.402 -24.613  0.00  0.00     0.019 C 
ATOM     20  C   UNL d   1      31.899  19.033 -25.096  0.00  0.00     0.002 C 
ENDBRANCH  18  19
ENDBRANCH   3  18
TORSDOF 2
ENDMDL
MODEL 3
REMARK VINA RESULT:      -2.6      4.021      5.352
REMARK  2 active torsions:
REMARK  status: ('A' for Active; 'I' for Inactive)
REMARK    1  A    between atoms: C_10  and  N_3 
REMARK    2  A    between atoms: C_15  and  C_10 
ROOT
ATOM      1  C   UNL d   1      33.238  20.965 -22.516  0.00  0.00     0.166 A 
ATOM      2  C   UNL d   1      33.239  21.004 -23.341  0.00  0.00     0.117 A 
ATOM      3  N   UNL d   1      33.237  21.739 -22.249  0.00  0.00    -0.289 N 
ATOM      4  N   UNL d   1      33.238  20.233 -22.126  0.00  0.00    -0.225 NA
ATOM      5  N   UNL d   1      33.240  20.293 -23.756  0.00  0.00    -0.241 NA
ATOM      6  C   UNL d   1      33.239  21.782 -23.563  0.00  0.00     0.037 A 
ATOM      7  C   UNL d   1      33.238  22.243 -22.878  0.00  0.00     0.067 A 
ATOM      8  C   UNL d   1      33.239  19.545 -22.554  0.00  0.00     0.101 A 
ATOM      9  C   UNL d   1      33.239  19.584 -23.380  0.00  0.00     0.099 A 
ATOM     10  C   UNL d   1      33.240  22.143 -24.304  0.00  0.00     0.003 A 
ATOM     11  C   UNL d   1      33.238  23.062 -22.940  0.00  0.00     0.018 A 
ATOM     12  C   UNL d   1      33.240  18.897 -23.811  0.00  0.00     0.021 A 
ATOM     13  C   UNL d   1      33.238  18.838 -22.180  0.00  0.00     0.021 A 
ATOM     14  C   UNL d   1      33.239  22.967 -24.361  0.00  0.00     0.000 A 
ATOM     15  C   UNL d   1      33.238  23.428 -23.676  0.00  0.00     0.002 A 
ATOM     16  C   UNL d   1      33.239  18.133 -22.633  0.00  0.00     0.002 A 
ATOM     17  C   UNL d   1      33.240  18.152 -23.441  0.00  0.00     0.002 A 
ENDROOT
BRANCH   3  18
ATOM     18  C   UNL d   1      33.236  21.966 -21.469  0.00  0.00     0.082 C 
BRANCH  18  19
ATOM     19  C   UNL d   1      32.499  22.091 -21.092  0.00  0.00     0.019 C 
ATOM     20  C   UNL d   1      32.469  22.232 -20.303  0.00  0.00     0.002 C 
ENDBRANCH  18  19
ENDBRANCH   3  18
TORSDOF 2
ENDMDL
MODEL 4
REMARK VINA RESULT:      -2.3      5.533      6.918
REMARK  2 active torsions:
REMARK  status: ('A' for Active; 'I' for Inactive)
REMARK    1  A    between atoms: C_10  and  N_3 
REMARK    2  A    between atoms: C_15  and  C_10 
ROOT
ATOM      1  C   UNL d   1      33.235  22.205 -21.629  0.00  0.00     0.166 A 
ATOM      2  C   UNL d   1      33.232  21.500 -21.198  0.00  0.00     0.117 A 
ATOM      3  N   UNL d   1      33.237  21.993 -22.419  0.00  0.00    -0.289 N 
ATOM      4  N   UNL d   1      33.236  22.939 -21.240  0.00  0.00    -0.225 NA
ATOM      5  N   UNL d   1      33.230  21.556 -20.377  0.00  0.00    -0.241 NA
ATOM      6  C   UNL d   1      33.232  20.881 -21.718  0.00  0.00     0.037 A 
ATOM      7  C   UNL d   1      33.235  21.189 -22.483  0.00  0.00     0.067 A 
ATOM      8  C   UNL d   1      33.234  22.970 -20.431  0.00  0.00     0.101 A 
ATOM      9  C   UNL d   1      33.231  22.264 -20.001  0.00  0.00     0.099 A 
ATOM     10  C   UNL d   1      33.230  20.064 -21.602  0.00  0.00     0.003 A 
ATOM     11  C   UNL d   1      33.236  20.679 -23.128  0.00  0.00     0.018 A 
ATOM     12  C   UNL d   1      33.229  22.293 -19.190  0.00  0.00     0.021 A 
ATOM     13  C   UNL d   1      33.235  23.676 -20.055  0.00  0.00     0.021 A 
ATOM     14  C   UNL d   1      33.230  19.555 -22.252  0.00  0.00     0.000 A 
ATOM     15  C   UNL d   1      33.233  19.864 -23.017  0.00  0.00     0.002 A 
ATOM     16  C   UNL d   1      33.233  23.697 -19.218  0.00  0.00     0.002 A 
ATOM     17  C   UNL d   1      33.230  23.017 -18.780  0.00  0.00     0.002 A 
ENDROOT
BRANCH   3  18
ATOM     18  C   UNL d   1      33.240  22.511 -23.044  0.00  0.00     0.082 C 
BRANCH  18  19
ATOM     19  C   UNL d   1      32.505  22.777 -23.344  0.00  0.00     0.019 C 
ATOM     20  C   UNL d   1      32.483  23.286 -23.963  0.00  0.00     0.002 C 
ENDBRANCH  18  19
ENDBRANCH   3  18
TORSDOF 2
ENDMDL
MODEL 5
REMARK VINA RESULT:      -2.1      6.211      7.162
REMARK  2 active torsions:
REMARK  status: ('A' for Active; 'I' for Inactive)
REMARK    1  A    between atoms: C_10  and  N_3 
REMARK    2  A    between atoms: C_15  and  C_10 
ROOT
ATOM      1  C   UNL d   1      33.046  22.150 -20.789  0.00  0.00     0.166 A 
ATOM      2  C   UNL d   1      32.850  22.940 -20.934  0.00  0.00     0.117 A 
ATOM      3  N   UNL d   1      33.069  21.780 -21.520  0.00  0.00    -0.289 N 
ATOM      4  N   UNL d   1      33.176  21.882 -20.015  0.00  0.00    -0.225 NA
ATOM      5  N   UNL d   1      32.789  23.442 -20.285  0.00  0.00    -0.241 NA
ATOM      6  C   UNL d   1      32.757  23.040 -21.731  0.00  0.00     0.037 A 
ATOM      7  C   UNL d   1      32.894  22.313 -22.098  0.00  0.00     0.067 A 
ATOM      8  C   UNL d   1      33.112  22.393 -19.391  0.00  0.00     0.101 A 
ATOM      9  C   UNL d   1      32.915  23.183 -19.536  0.00  0.00     0.099 A 
ATOM     10  C   UNL d   1      32.564  23.701 -22.184  0.00  0.00     0.003 A 
ATOM     11  C   UNL d   1      32.837  22.253 -22.916  0.00  0.00     0.018 A 
ATOM     12  C   UNL d   1      32.849  23.698 -18.914  0.00  0.00     0.021 A 
ATOM     13  C   UNL d   1      33.236  22.136 -18.644  0.00  0.00     0.021 A 
ATOM     14  C   UNL d   1      32.507  23.636 -23.006  0.00  0.00     0.000 A 
ATOM     15  C   UNL d   1      32.645  22.910 -23.372  0.00  0.00     0.002 A 
ATOM     16  C   UNL d   1      33.167  22.675 -18.006  0.00  0.00     0.002 A 
ATOM     17  C   UNL d   1      32.975  23.451 -18.129  0.00  0.00     0.002 A 
ENDROOT
BRANCH   3  18
ATOM     18  C   UNL d   1      33.241  20.996 -21.642  0.00  0.00     0.082 C 
BRANCH  18  19
ATOM     19  C   UNL d   1      32.613  20.443 -21.619  0.00  0.00     0.019 C 
ATOM     20  C   UNL d   1      32.759  19.663 -21.736  0.00  0.00     0.002 C 
ENDBRANCH  18  19
ENDBRANCH   3  18
TORSDOF 2
ENDMDL
MODEL 6
REMARK VINA RESULT:      -1.9      4.091      5.798
REMARK  2 active torsions:
REMARK  status: ('A' for Active; 'I' for Inactive)
REMARK    1  A    between atoms: C_10  and  N_3 
REMARK    2  A    between atoms: C_15  and  C_10 
ROOT
ATOM      1  C   UNL d   1      33.241  20.830 -23.140  0.00  0.00     0.166 A 
ATOM      2  C   UNL d   1      33.241  21.373 -22.518  0.00  0.00     0.117 A 
ATOM      3  N   UNL d   1      33.241  20.086 -22.797  0.00  0.00    -0.289 N 
ATOM      4  N   UNL d   1      33.241  21.088 -23.928  0.00  0.00    -0.225 NA
ATOM      5  N   UNL d   1      33.241  22.173 -22.711  0.00  0.00    -0.241 NA
ATOM      6  C   UNL d   1      33.241  20.966 -21.820  0.00  0.00     0.037 A 
ATOM      7  C   UNL d   1      33.241  20.159 -21.994  0.00  0.00     0.067 A 
ATOM      8  C   UNL d   1      33.241  21.881 -24.097  0.00  0.00     0.101 A 
ATOM      9  C   UNL d   1      33.241  22.424 -23.474  0.00  0.00     0.099 A 
ATOM     10  C   UNL d   1      33.240  21.218 -21.034  0.00  0.00     0.003 A 
ATOM     11  C   UNL d   1      33.241  19.611 -21.382  0.00  0.00     0.018 A 
ATOM     12  C   UNL d   1      33.241  23.218 -23.639  0.00  0.00     0.021 A 
ATOM     13  C   UNL d   1      33.241  22.132 -24.856  0.00  0.00     0.021 A 
ATOM     14  C   UNL d   1      33.240  20.664 -20.423  0.00  0.00     0.000 A 
ATOM     15  C   UNL d   1      33.240  19.857 -20.597  0.00  0.00     0.002 A 
ATOM     16  C   UNL d   1      33.241  22.953 -25.018  0.00  0.00     0.002 A 
ATOM     17  C   UNL d   1      33.241  23.500 -24.422  0.00  0.00     0.002 A 
ENDROOT
BRANCH   3  18
ATOM     18  C   UNL d   1      33.241  19.383 -23.202  0.00  0.00     0.082 C 
BRANCH  18  19
ATOM     19  C   UNL d   1      32.506  19.012 -23.356  0.00  0.00     0.019 C 
ATOM     20  C   UNL d   1      32.474  18.355 -23.815  0.00  0.00     0.002 C 
ENDBRANCH  18  19
ENDBRANCH   3  18
TORSDOF 2
ENDMDL
MODEL 7
REMARK VINA RESULT:      -1.5      2.344      3.487
REMARK  2 active torsions:
REMARK  status: ('A' for Active; 'I' for Inactive)
REMARK    1  A    between atoms: C_10  and  N_3 
REMARK    2  A    between atoms: C_15  and  C_10 
ROOT
ATOM      1  C   UNL d   1      32.946  18.854 -23.308  0.00  0.00     0.166 A 
ATOM      2  C   UNL d   1      32.852  18.926 -24.125  0.00  0.00     0.117 A 
ATOM      3  N   UNL d   1      33.106  19.607 -23.027  0.00  0.00    -0.289 N 
ATOM      4  N   UNL d   1      32.872  18.116 -22.936  0.00  0.00    -0.225 NA
ATOM      5  N   UNL d   1      32.684  18.242 -24.551  0.00  0.00    -0.241 NA
ATOM      6  C   UNL d   1      32.954  19.702 -24.329  0.00  0.00     0.037 A 
ATOM      7  C   UNL d   1      33.113  20.128 -23.641  0.00  0.00     0.067 A 
ATOM      8  C   UNL d   1      32.706  17.455 -23.374  0.00  0.00     0.101 A 
ATOM      9  C   UNL d   1      32.613  17.527 -24.193  0.00  0.00     0.099 A 
ATOM     10  C   UNL d   1      32.923  20.089 -25.057  0.00  0.00     0.003 A 
ATOM     11  C   UNL d   1      33.241  20.939 -23.685  0.00  0.00     0.018 A 
ATOM     12  C   UNL d   1      32.447  16.868 -24.634  0.00  0.00     0.021 A 
ATOM     13  C   UNL d   1      32.635  16.743 -23.018  0.00  0.00     0.021 A 
ATOM     14  C   UNL d   1      33.052  20.903 -25.097  0.00  0.00     0.000 A 
ATOM     15  C   UNL d   1      33.212  21.330 -24.409  0.00  0.00     0.002 A 
ATOM     16  C   UNL d   1      32.464  16.066 -23.481  0.00  0.00     0.002 A 
ATOM     17  C   UNL d   1      32.369  16.117 -24.282  0.00  0.00     0.002 A 
ENDROOT
BRANCH   3  18
ATOM     18  C   UNL d   1      33.238  19.798 -22.249  0.00  0.00     0.082 C 
BRANCH  18  19
ATOM     19  C   UNL d   1      32.635  20.201 -21.831  0.00  0.00     0.019 C 
ATOM     20  C   UNL d   1      32.759  20.438 -21.075  0.00  0.00     0.002 C 
ENDBRANCH  18  19
ENDBRANCH   3  18
TORSDOF 2
ENDMDL
MODEL 8
REMARK VINA RESULT:      -1.3      1.014      3.212
REMARK  2 active torsions:
REMARK  status: ('A' for Active; 'I' for Inactive)
REMARK    1  A    between atoms: C_10  and  N_3 
REMARK    2  A    between atoms: C_15  and  C_10 
ROOT
ATOM      1  C   UNL d   1      30.311  16.387 -23.777  0.00  0.00     0.166 A 
ATOM      2  C   UNL d   1      30.612  17.075 -24.122  0.00  0.00     0.117 A 
ATOM      3  N   UNL d   1      29.501  16.407 -23.891  0.00  0.00    -0.289 N 
ATOM      4  N   UNL d   1      30.818  15.842 -23.410  0.00  0.00    -0.225 NA
ATOM      5  N   UNL d   1      31.425  17.195 -24.087  0.00  0.00    -0.241 NA
ATOM      6  C   UNL d   1      29.996  17.496 -24.435  0.00  0.00     0.037 A 
ATOM      7  C   UNL d   1      29.300  17.077 -24.289  0.00  0.00     0.067 A 
ATOM      8  C   UNL d   1      31.616  15.980 -23.386  0.00  0.00     0.101 A 
ATOM      9  C   UNL d   1      31.915  16.669 -23.732  0.00  0.00     0.099 A 
ATOM     10  C   UNL d   1      29.969  18.215 -24.838  0.00  0.00     0.003 A 
ATOM     11  C   UNL d   1      28.581  17.380 -24.549  0.00  0.00     0.018 A 
ATOM     12  C   UNL d   1      32.713  16.810 -23.710  0.00  0.00     0.021 A 
ATOM     13  C   UNL d   1      32.105  15.456 -23.033  0.00  0.00     0.021 A 
ATOM     14  C   UNL d   1      29.244  18.515 -25.097  0.00  0.00     0.000 A 
ATOM     15  C   UNL d   1      28.548  18.097 -24.952  0.00  0.00     0.002 A 
ATOM     16  C   UNL d   1      32.929  15.609 -23.014  0.00  0.00     0.002 A 
ATOM     17  C   UNL d   1      33.240  16.277 -23.347  0.00  0.00     0.002 A 
ENDROOT
BRANCH   3  18
ATOM     18  C   UNL d   1      28.979  15.837 -23.640  0.00  0.00     0.082 C 
BRANCH  18  19
ATOM     19  C   UNL d   1      28.424  16.040 -23.046  0.00  0.00     0.019 C 
ATOM     20  C   UNL d   1      27.957  15.475 -22.720  0.00  0.00     0.002 C 
ENDBRANCH  18  19
ENDBRANCH   3  18
TORSDOF 2
ENDMDL
MODEL 9
REMARK VINA RESULT:      -1.1      2.780      4.241
REMARK  2 active torsions:
REMARK  status: ('A' for Active; 'I' for Inactive)
REMARK    1  A    between atoms: C_10  and  N_3 
REMARK    2  A    between atoms: C_15  and  C_10 
ROOT
ATOM      1  C   UNL d   1      32.908  19.530 -23.641  0.00  0.00     0.166 A 
ATOM      2  C   UNL d   1      32.799  19.256 -22.869  0.00  0.00     0.117 A 
ATOM      3  N   UNL d   1      33.090  20.326 -23.580  0.00  0.00    -0.289 N 
ATOM      4  N   UNL d   1      32.826  19.016 -24.287  0.00  0.00    -0.225 NA
ATOM      5  N   UNL d   1      32.609  18.462 -22.769  0.00  0.00    -0.241 NA
ATOM      6  C   UNL d   1      32.914  19.873 -22.359  0.00  0.00     0.037 A 
ATOM      7  C   UNL d   1      33.096  20.543 -22.804  0.00  0.00     0.067 A 
ATOM      8  C   UNL d   1      32.637  18.237 -24.167  0.00  0.00     0.101 A 
ATOM      9  C   UNL d   1      32.529  17.965 -23.394  0.00  0.00     0.099 A 
ATOM     10  C   UNL d   1      32.877  19.922 -21.536  0.00  0.00     0.003 A 
ATOM     11  C   UNL d   1      33.240  21.258 -22.425  0.00  0.00     0.018 A 
ATOM     12  C   UNL d   1      32.341  17.186 -23.270  0.00  0.00     0.021 A 
ATOM     13  C   UNL d   1      32.558  17.741 -24.789  0.00  0.00     0.021 A 
ATOM     14  C   UNL d   1      33.023  20.642 -21.159  0.00  0.00     0.000 A 
ATOM     15  C   UNL d   1      33.205  21.312 -21.605  0.00  0.00     0.002 A 
ATOM     16  C   UNL d   1      32.363  16.938 -24.652  0.00  0.00     0.002 A 
ATOM     17  C   UNL d   1      32.253  16.653 -23.903  0.00  0.00     0.002 A 
ENDROOT
BRANCH   3  18
ATOM     18  C   UNL d   1      33.241  20.820 -24.206  0.00  0.00     0.082 C 
BRANCH  18  19
ATOM     19  C   UNL d   1      32.606  21.261 -24.528  0.00  0.00     0.019 C 
ATOM     20  C   UNL d   1      32.750  21.858 -25.044  0.00  0.00     0.002 C 
ENDBRANCH  18  19
ENDBRANCH   3  18
TORSDOF 2
ENDMDL
