MODEL 1
REMARK VINA RESULT:      11.7      0.000      0.000
REMARK  8 active torsions:
REMARK  status: ('A' for Active; 'I' for Inactive)
REMARK    1  A    between atoms: N_3  and  C_1 
REMARK    2  A    between atoms: S_2  and  C_9 
REMARK    3  A    between atoms: N_10  and  S_2 
REMARK       I    between atoms: C_8  and  N_3 
REMARK    4  A    between atoms: C_15  and  C_8 
REMARK    5  A    between atoms: C_27  and  N_10 
REMARK       I    between atoms: C_16  and  N_17 
REMARK    6  A    between atoms: N_17  and  C_18 
REMARK    7  A    between atoms: C_30  and  C_27 
REMARK    8  A    between atoms: C_31  and  C_30 
ROOT
ATOM      1  N   UNL d   1     -42.057-122.498 -51.945  0.00  0.00    -0.184 NA
ATOM      2  C   UNL d   1     -41.791-123.107 -52.435  0.00  0.00     0.281 C 
ATOM      3  O   UNL d   1     -41.444-123.790 -52.107  0.00  0.00    -0.265 OA
ENDROOT
BRANCH   2   4
ATOM      4  C   UNL d   1     -41.866-123.043 -53.254  0.00  0.00     0.058 A 
ATOM      5  C   UNL d   1     -41.198-123.101 -53.736  0.00  0.00     0.005 A 
ATOM      6  C   UNL d   1     -41.274-123.037 -54.556  0.00  0.00     0.013 A 
ATOM      7  C   UNL d   1     -42.013-122.916 -54.905  0.00  0.00     0.104 A 
ATOM      8  C   UNL d   1     -42.680-122.858 -54.423  0.00  0.00     0.013 A 
ATOM      9  C   UNL d   1     -42.606-122.922 -53.599  0.00  0.00     0.005 A 
BRANCH   7  10
ATOM     10  S   UNL d   1     -42.086-122.852 -55.736  0.00  0.00     0.271 S 
ATOM     11  O   UNL d   1     -42.157-122.778 -56.560  0.00  0.00    -0.200 OA
ATOM     12  O   UNL d   1     -42.128-123.667 -55.798  0.00  0.00    -0.200 OA
BRANCH  10  13
ATOM     13  N   UNL d   1     -42.042-122.023 -55.664  0.00  0.00    -0.228 N 
ATOM     14  C   UNL d   1     -42.499-121.626 -55.096  0.00  0.00     0.111 C 
BRANCH  13  15
ATOM     15  C   UNL d   1     -41.541-121.595 -56.159  0.00  0.00     0.092 C 
BRANCH  15  16
ATOM     16  C   UNL d   1     -41.841-120.978 -56.607  0.00  0.00     0.020 C 
BRANCH  16  17
ATOM     17  C   UNL d   1     -41.342-120.534 -57.072  0.00  0.00     0.002 C 
ATOM     18  C   UNL d   1     -41.633-119.838 -57.441  0.00  0.00     0.000 C 
ENDBRANCH  16  17
ENDBRANCH  15  16
ENDBRANCH  13  15
ENDBRANCH  10  13
ENDBRANCH   7  10
ENDBRANCH   2   4
BRANCH   1  19
ATOM     19  C   UNL d   1     -41.981-122.565 -51.119  0.00  0.00     0.182 A 
ATOM     20  N   UNL d   1     -41.553-122.056 -50.635  0.00  0.00    -0.283 N 
ATOM     21  C   UNL d   1     -41.615-122.312 -49.855  0.00  0.00     0.072 A 
ATOM     22  C   UNL d   1     -41.125-121.389 -50.898  0.00  0.00     0.101 C 
ATOM     23  C   UNL d   1     -41.303-122.016 -49.146  0.00  0.00     0.020 A 
ATOM     24  C   UNL d   1     -42.086-122.988 -49.837  0.00  0.00     0.050 A 
ATOM     25  C   UNL d   1     -41.465-122.399 -48.438  0.00  0.00     0.021 A 
ATOM     26  C   UNL d   1     -41.936-123.073 -48.424  0.00  0.00     0.085 A 
ATOM     27  C   UNL d   1     -42.249-123.371 -49.128  0.00  0.00     0.027 A 
ATOM     28  S   UNL d   1     -42.315-123.147 -50.621  0.00  0.00    -0.048 SA
BRANCH  26  29
ATOM     29  N   UNL d   1     -42.098-123.459 -47.698  0.00  0.00    -0.208 NA
ATOM     30  C   UNL d   1     -42.870-123.439 -47.390  0.00  0.00     0.279 C 
ATOM     31  O   UNL d   1     -43.035-123.815 -46.677  0.00  0.00    -0.265 OA
ATOM     32  C   UNL d   1     -43.462-123.040 -47.806  0.00  0.00     0.068 C 
ENDBRANCH  26  29
ENDBRANCH   1  19
TORSDOF 8
ENDMDL
