MODEL 1
REMARK VINA RESULT:      -8.7      0.000      0.000
REMARK  5 active torsions:
REMARK  status: ('A' for Active; 'I' for Inactive)
REMARK    1  A    between atoms: C_5  and  C_1 
REMARK    2  A    between atoms: O_8  and  C_5 
REMARK    3  A    between atoms: C_15  and  O_8 
REMARK       I    between atoms: C_9  and  N_11 
REMARK    4  A    between atoms: N_11  and  C_16 
REMARK    5  A    between atoms: O_21  and  C_13 
ROOT
ATOM      1  C   UNL d   1      48.838  34.977  51.862  0.00  0.00     0.127 A 
ATOM      2  C   UNL d   1      48.237  34.837  51.312  0.00  0.00     0.305 A 
ATOM      3  O   UNL d   1      47.496  35.204  51.407  0.00  0.00    -0.271 OA
ATOM      4  C   UNL d   1      48.704  35.480  52.503  0.00  0.00     0.013 A 
ATOM      5  C   UNL d   1      47.361  35.707  52.047  0.00  0.00     0.125 A 
ATOM      6  C   UNL d   1      47.967  35.842  52.592  0.00  0.00     0.025 A 
ATOM      7  O   UNL d   1      48.361  34.338  50.672  0.00  0.00    -0.259 OA
ATOM      8  C   UNL d   1      46.634  36.065  52.135  0.00  0.00     0.117 A 
ATOM      9  C   UNL d   1      47.836  36.346  53.235  0.00  0.00     0.002 A 
ATOM     10  C   UNL d   1      47.099  36.705  53.320  0.00  0.00     0.002 A 
ATOM     11  C   UNL d   1      46.498  36.564  52.770  0.00  0.00     0.026 A 
ENDROOT
BRANCH   1  12
ATOM     12  C   UNL d   1      49.570  34.611  51.765  0.00  0.00     0.305 C 
ATOM     13  O   UNL d   1      49.848  34.455  51.002  0.00  0.00    -0.259 OA
BRANCH  12  14
ATOM     14  O   UNL d   1      50.023  34.402  52.424  0.00  0.00    -0.273 OA
BRANCH  14  15
ATOM     15  C   UNL d   1      50.712  34.073  52.743  0.00  0.00     0.103 A 
ATOM     16  C   UNL d   1      51.430  34.446  52.617  0.00  0.00     0.026 A 
ATOM     17  C   UNL d   1      52.120  34.120  52.933  0.00  0.00     0.021 A 
ATOM     18  C   UNL d   1      52.078  33.419  53.374  0.00  0.00     0.085 A 
ATOM     19  C   UNL d   1      51.352  33.054  53.493  0.00  0.00     0.021 A 
ATOM     20  C   UNL d   1      50.668  33.377  53.180  0.00  0.00     0.026 A 
BRANCH  18  21
ATOM     21  N   UNL d   1      52.768  33.093  53.690  0.00  0.00    -0.208 NA
ATOM     22  C   UNL d   1      53.160  32.489  53.286  0.00  0.00     0.279 C 
ATOM     23  O   UNL d   1      52.859  32.212  52.565  0.00  0.00    -0.265 OA
ATOM     24  C   UNL d   1      53.850  32.161  53.599  0.00  0.00     0.068 C 
ENDBRANCH  18  21
ENDBRANCH  14  15
ENDBRANCH  12  14
ENDBRANCH   1  12
BRANCH   8  25
ATOM     25  O   UNL d   1      46.042  35.923  51.588  0.00  0.00    -0.326 OA
ATOM     26  C   UNL d   1      45.306  36.289  51.667  0.00  0.00     0.181 C 
ENDBRANCH   8  25
TORSDOF 5
ENDMDL
MODEL 2
REMARK VINA RESULT:      -8.6      1.765      5.587
REMARK  5 active torsions:
REMARK  status: ('A' for Active; 'I' for Inactive)
REMARK    1  A    between atoms: C_5  and  C_1 
REMARK    2  A    between atoms: O_8  and  C_5 
REMARK    3  A    between atoms: C_15  and  O_8 
REMARK       I    between atoms: C_9  and  N_11 
REMARK    4  A    between atoms: N_11  and  C_16 
REMARK    5  A    between atoms: O_21  and  C_13 
ROOT
ATOM      1  C   UNL d   1      51.444  34.098  52.874  0.00  0.00     0.127 A 
ATOM      2  C   UNL d   1      51.646  33.323  53.081  0.00  0.00     0.305 A 
ATOM      3  O   UNL d   1      52.268  33.188  53.617  0.00  0.00    -0.271 OA
ATOM      4  C   UNL d   1      51.858  34.734  53.197  0.00  0.00     0.013 A 
ATOM      5  C   UNL d   1      52.682  33.823  53.941  0.00  0.00     0.125 A 
ATOM      6  C   UNL d   1      52.474  34.595  53.728  0.00  0.00     0.025 A 
ATOM      7  O   UNL d   1      51.240  32.683  52.764  0.00  0.00    -0.259 OA
ATOM      8  C   UNL d   1      53.291  33.685  54.465  0.00  0.00     0.117 A 
ATOM      9  C   UNL d   1      52.887  35.235  54.051  0.00  0.00     0.002 A 
ATOM     10  C   UNL d   1      53.501  35.090  54.581  0.00  0.00     0.002 A 
ATOM     11  C   UNL d   1      53.703  34.315  54.788  0.00  0.00     0.026 A 
ENDROOT
BRANCH   1  12
ATOM     12  C   UNL d   1      50.827  34.227  52.342  0.00  0.00     0.305 C 
ATOM     13  O   UNL d   1      50.947  34.081  51.537  0.00  0.00    -0.259 OA
BRANCH  12  14
ATOM     14  O   UNL d   1      50.095  34.501  52.612  0.00  0.00    -0.273 OA
BRANCH  14  15
ATOM     15  C   UNL d   1      49.387  34.904  52.470  0.00  0.00     0.103 A 
ATOM     16  C   UNL d   1      49.054  35.352  53.070  0.00  0.00     0.026 A 
ATOM     17  C   UNL d   1      48.347  35.757  52.932  0.00  0.00     0.021 A 
ATOM     18  C   UNL d   1      47.982  35.705  52.189  0.00  0.00     0.085 A 
ATOM     19  C   UNL d   1      48.327  35.252  51.596  0.00  0.00     0.021 A 
ATOM     20  C   UNL d   1      49.027  34.852  51.733  0.00  0.00     0.026 A 
BRANCH  18  21
ATOM     21  N   UNL d   1      47.275  36.110  52.052  0.00  0.00    -0.208 NA
ATOM     22  C   UNL d   1      46.567  35.690  51.996  0.00  0.00     0.279 C 
ATOM     23  O   UNL d   1      46.567  34.866  52.077  0.00  0.00    -0.265 OA
ATOM     24  C   UNL d   1      45.858  36.091  51.858  0.00  0.00     0.068 C 
ENDBRANCH  18  21
ENDBRANCH  14  15
ENDBRANCH  12  14
ENDBRANCH   1  12
BRANCH   8  25
ATOM     25  O   UNL d   1      53.488  32.917  54.668  0.00  0.00    -0.326 OA
ATOM     26  C   UNL d   1      54.076  32.772  55.228  0.00  0.00     0.181 C 
ENDBRANCH   8  25
TORSDOF 5
ENDMDL
MODEL 3
REMARK VINA RESULT:      -7.9      1.835      3.490
REMARK  5 active torsions:
REMARK  status: ('A' for Active; 'I' for Inactive)
REMARK    1  A    between atoms: C_5  and  C_1 
REMARK    2  A    between atoms: O_8  and  C_5 
REMARK    3  A    between atoms: C_15  and  O_8 
REMARK       I    between atoms: C_9  and  N_11 
REMARK    4  A    between atoms: N_11  and  C_16 
REMARK    5  A    between atoms: O_21  and  C_13 
ROOT
ATOM      1  C   UNL d   1      51.696  33.838  52.888  0.00  0.00     0.127 A 
ATOM      2  C   UNL d   1      51.414  34.288  53.522  0.00  0.00     0.305 A 
ATOM      3  O   UNL d   1      50.679  34.675  53.460  0.00  0.00    -0.271 OA
ATOM      4  C   UNL d   1      51.250  33.773  52.196  0.00  0.00     0.013 A 
ATOM      5  C   UNL d   1      50.233  34.611  52.769  0.00  0.00     0.125 A 
ATOM      6  C   UNL d   1      50.522  34.159  52.139  0.00  0.00     0.025 A 
ATOM      7  O   UNL d   1      51.850  34.359  54.214  0.00  0.00    -0.259 OA
ATOM      8  C   UNL d   1      49.515  34.991  52.713  0.00  0.00     0.117 A 
ATOM      9  C   UNL d   1      50.078  34.092  51.445  0.00  0.00     0.002 A 
ATOM     10  C   UNL d   1      49.352  34.478  51.393  0.00  0.00     0.002 A 
ATOM     11  C   UNL d   1      49.071  34.928  52.027  0.00  0.00     0.026 A 
ENDROOT
BRANCH   1  12
ATOM     12  C   UNL d   1      52.423  33.457  52.954  0.00  0.00     0.305 C 
ATOM     13  O   UNL d   1      53.100  33.900  53.125  0.00  0.00    -0.259 OA
BRANCH  12  14
ATOM     14  O   UNL d   1      52.476  32.639  52.849  0.00  0.00    -0.273 OA
BRANCH  14  15
ATOM     15  C   UNL d   1      52.792  31.909  53.075  0.00  0.00     0.103 A 
ATOM     16  C   UNL d   1      52.467  31.220  52.775  0.00  0.00     0.026 A 
ATOM     17  C   UNL d   1      52.780  30.489  52.999  0.00  0.00     0.021 A 
ATOM     18  C   UNL d   1      53.419  30.460  53.525  0.00  0.00     0.085 A 
ATOM     19  C   UNL d   1      53.737  31.158  53.820  0.00  0.00     0.021 A 
ATOM     20  C   UNL d   1      53.427  31.882  53.598  0.00  0.00     0.026 A 
BRANCH  18  21
ATOM     21  N   UNL d   1      53.732  29.729  53.749  0.00  0.00    -0.208 NA
ATOM     22  C   UNL d   1      53.348  29.276  54.322  0.00  0.00     0.279 C 
ATOM     23  O   UNL d   1      52.650  29.556  54.671  0.00  0.00    -0.265 OA
ATOM     24  C   UNL d   1      53.658  28.545  54.548  0.00  0.00     0.068 C 
ENDBRANCH  18  21
ENDBRANCH  14  15
ENDBRANCH  12  14
ENDBRANCH   1  12
BRANCH   8  25
ATOM     25  O   UNL d   1      49.239  35.435  53.343  0.00  0.00    -0.326 OA
ATOM     26  C   UNL d   1      48.516  35.828  53.290  0.00  0.00     0.181 C 
ENDBRANCH   8  25
TORSDOF 5
ENDMDL
MODEL 4
REMARK VINA RESULT:      -7.4      1.973      6.431
REMARK  5 active torsions:
REMARK  status: ('A' for Active; 'I' for Inactive)
REMARK    1  A    between atoms: C_5  and  C_1 
REMARK    2  A    between atoms: O_8  and  C_5 
REMARK    3  A    between atoms: C_15  and  O_8 
REMARK       I    between atoms: C_9  and  N_11 
REMARK    4  A    between atoms: N_11  and  C_16 
REMARK    5  A    between atoms: O_21  and  C_13 
ROOT
ATOM      1  C   UNL d   1      53.115  32.117  53.496  0.00  0.00     0.127 A 
ATOM      2  C   UNL d   1      53.445  31.889  54.220  0.00  0.00     0.305 A 
ATOM      3  O   UNL d   1      53.524  31.081  54.402  0.00  0.00    -0.271 OA
ATOM      4  C   UNL d   1      52.865  31.545  52.957  0.00  0.00     0.013 A 
ATOM      5  C   UNL d   1      53.274  30.508  53.863  0.00  0.00     0.125 A 
ATOM      6  C   UNL d   1      52.945  30.744  53.142  0.00  0.00     0.025 A 
ATOM      7  O   UNL d   1      53.697  32.451  54.763  0.00  0.00    -0.259 OA
ATOM      8  C   UNL d   1      53.353  29.718  54.046  0.00  0.00     0.117 A 
ATOM      9  C   UNL d   1      52.693  30.173  52.599  0.00  0.00     0.002 A 
ATOM     10  C   UNL d   1      52.776  29.375  52.788  0.00  0.00     0.002 A 
ATOM     11  C   UNL d   1      53.106  29.148  53.512  0.00  0.00     0.026 A 
ENDROOT
BRANCH   1  12
ATOM     12  C   UNL d   1      53.039  32.919  53.321  0.00  0.00     0.305 C 
ATOM     13  O   UNL d   1      53.692  33.335  53.029  0.00  0.00    -0.259 OA
BRANCH  12  14
ATOM     14  O   UNL d   1      52.316  33.304  53.434  0.00  0.00    -0.273 OA
BRANCH  14  15
ATOM     15  C   UNL d   1      51.633  33.647  53.119  0.00  0.00     0.103 A 
ATOM     16  C   UNL d   1      51.694  34.135  52.465  0.00  0.00     0.026 A 
ATOM     17  C   UNL d   1      51.014  34.479  52.148  0.00  0.00     0.021 A 
ATOM     18  C   UNL d   1      50.277  34.328  52.495  0.00  0.00     0.085 A 
ATOM     19  C   UNL d   1      50.228  33.837  53.152  0.00  0.00     0.021 A 
ATOM     20  C   UNL d   1      50.902  33.495  53.466  0.00  0.00     0.026 A 
BRANCH  18  21
ATOM     21  N   UNL d   1      49.596  34.673  52.178  0.00  0.00    -0.208 NA
ATOM     22  C   UNL d   1      49.163  35.213  52.626  0.00  0.00     0.279 C 
ATOM     23  O   UNL d   1      49.411  35.409  53.392  0.00  0.00    -0.265 OA
ATOM     24  C   UNL d   1      48.482  35.560  52.313  0.00  0.00     0.068 C 
ENDBRANCH  18  21
ENDBRANCH  14  15
ENDBRANCH  12  14
ENDBRANCH   1  12
BRANCH   8  25
ATOM     25  O   UNL d   1      53.680  29.496  54.762  0.00  0.00    -0.326 OA
ATOM     26  C   UNL d   1      53.539  28.744  55.070  0.00  0.00     0.181 C 
ENDBRANCH   8  25
TORSDOF 5
ENDMDL
MODEL 5
REMARK VINA RESULT:      -7.1      1.123      1.628
REMARK  5 active torsions:
REMARK  status: ('A' for Active; 'I' for Inactive)
REMARK    1  A    between atoms: C_5  and  C_1 
REMARK    2  A    between atoms: O_8  and  C_5 
REMARK    3  A    between atoms: C_15  and  O_8 
REMARK       I    between atoms: C_9  and  N_11 
REMARK    4  A    between atoms: N_11  and  C_16 
REMARK    5  A    between atoms: O_21  and  C_13 
ROOT
ATOM      1  C   UNL d   1      48.416  35.603  52.901  0.00  0.00     0.127 A 
ATOM      2  C   UNL d   1      47.873  35.940  53.427  0.00  0.00     0.305 A 
ATOM      3  O   UNL d   1      47.096  36.099  53.173  0.00  0.00    -0.271 OA
ATOM      4  C   UNL d   1      48.187  35.424  52.128  0.00  0.00     0.013 A 
ATOM      5  C   UNL d   1      46.867  35.921  52.401  0.00  0.00     0.125 A 
ATOM      6  C   UNL d   1      47.416  35.584  51.882  0.00  0.00     0.025 A 
ATOM      7  O   UNL d   1      48.091  36.121  54.197  0.00  0.00    -0.259 OA
ATOM      8  C   UNL d   1      46.106  36.079  52.157  0.00  0.00     0.117 A 
ATOM      9  C   UNL d   1      47.190  35.404  51.106  0.00  0.00     0.002 A 
ATOM     10  C   UNL d   1      46.419  35.565  50.865  0.00  0.00     0.002 A 
ATOM     11  C   UNL d   1      45.877  35.903  51.390  0.00  0.00     0.026 A 
ENDROOT
BRANCH   1  12
ATOM     12  C   UNL d   1      49.184  35.447  53.156  0.00  0.00     0.305 C 
ATOM     13  O   UNL d   1      49.541  35.953  53.704  0.00  0.00    -0.259 OA
BRANCH  12  14
ATOM     14  O   UNL d   1      49.594  34.790  52.867  0.00  0.00    -0.273 OA
BRANCH  14  15
ATOM     15  C   UNL d   1      50.273  34.318  52.860  0.00  0.00     0.103 A 
ATOM     16  C   UNL d   1      50.888  34.507  52.353  0.00  0.00     0.026 A 
ATOM     17  C   UNL d   1      51.568  34.039  52.344  0.00  0.00     0.021 A 
ATOM     18  C   UNL d   1      51.621  33.382  52.847  0.00  0.00     0.085 A 
ATOM     19  C   UNL d   1      50.998  33.203  53.352  0.00  0.00     0.021 A 
ATOM     20  C   UNL d   1      50.324  33.667  53.361  0.00  0.00     0.026 A 
BRANCH  18  21
ATOM     21  N   UNL d   1      52.302  32.914  52.838  0.00  0.00    -0.208 NA
ATOM     22  C   UNL d   1      52.891  33.034  53.403  0.00  0.00     0.279 C 
ATOM     23  O   UNL d   1      52.798  33.624  53.978  0.00  0.00    -0.265 OA
ATOM     24  C   UNL d   1      53.573  32.568  53.396  0.00  0.00     0.068 C 
ENDBRANCH  18  21
ENDBRANCH  14  15
ENDBRANCH  12  14
ENDBRANCH   1  12
BRANCH   8  25
ATOM     25  O   UNL d   1      45.572  36.413  52.680  0.00  0.00    -0.326 OA
ATOM     26  C   UNL d   1      44.805  36.590  52.435  0.00  0.00     0.181 C 
ENDBRANCH   8  25
TORSDOF 5
ENDMDL
