MODEL 1
REMARK VINA RESULT:      -7.8      0.000      0.000
REMARK  5 active torsions:
REMARK  status: ('A' for Active; 'I' for Inactive)
REMARK    1  A    between atoms: C_11  and  C_4 
REMARK    2  A    between atoms: N_10  and  C_6 
REMARK    3  A    between atoms: C_13  and  C_9 
REMARK    4  A    between atoms: C_14  and  N_10 
REMARK    5  A    between atoms: C_15  and  C_14 
ROOT
ATOM      1  C   UNL d   1     -47.961  13.448  22.931  0.00  0.00     0.167 A 
ATOM      2  N   UNL d   1     -47.287  13.023  23.125  0.00  0.00    -0.195 N 
ATOM      3  N   UNL d   1     -46.518  14.196  23.020  0.00  0.00    -0.163 NA
ATOM      4  C   UNL d   1     -47.910  14.232  22.786  0.00  0.00     0.055 A 
ATOM      5  N   UNL d   1     -48.674  13.066  22.890  0.00  0.00    -0.227 NA
ATOM      6  C   UNL d   1     -47.348  12.231  23.271  0.00  0.00     0.167 A 
ATOM      7  C   UNL d   1     -47.193  14.621  22.826  0.00  0.00     0.104 A 
ATOM      8  C   UNL d   1     -48.088  11.845  23.226  0.00  0.00     0.058 A 
ATOM      9  C   UNL d   1     -48.727  12.278  23.036  0.00  0.00     0.086 A 
ATOM     10  C   UNL d   1     -47.144  15.401  22.681  0.00  0.00     0.023 C 
ENDROOT
BRANCH   6  11
ATOM     11  N   UNL d   1     -46.658  11.791  23.470  0.00  0.00    -0.224 NA
BRANCH  11  12
ATOM     12  C   UNL d   1     -46.321  11.023  23.400  0.00  0.00     0.120 C 
BRANCH  12  13
ATOM     13  C   UNL d   1     -45.490  10.924  23.375  0.00  0.00     0.101 A 
ATOM     14  N   UNL d   1     -45.006  11.518  23.025  0.00  0.00    -0.242 NA
ATOM     15  C   UNL d   1     -44.174  11.419  22.999  0.00  0.00     0.099 A 
ATOM     16  C   UNL d   1     -43.826  10.723  23.325  0.00  0.00     0.021 A 
ATOM     17  C   UNL d   1     -44.309  10.126  23.676  0.00  0.00     0.003 A 
ATOM     18  C   UNL d   1     -45.143  10.233  23.698  0.00  0.00     0.021 A 
ENDBRANCH  12  13
ENDBRANCH  11  12
ENDBRANCH   6  11
BRANCH   9  19
ATOM     19  C   UNL d   1     -49.480  11.881  22.992  0.00  0.00     0.018 C 
ATOM     20  C   UNL d   1     -49.777  11.634  22.229  0.00  0.00     0.002 C 
ATOM     21  C   UNL d   1     -49.928  11.733  23.697  0.00  0.00     0.002 C 
ENDBRANCH   9  19
BRANCH   4  22
ATOM     22  C   UNL d   1     -48.591  14.661  22.590  0.00  0.00     0.004 A 
ATOM     23  C   UNL d   1     -49.060  14.960  23.175  0.00  0.00     0.000 A 
ATOM     24  C   UNL d   1     -49.732  15.382  22.983  0.00  0.00     0.000 A 
ATOM     25  C   UNL d   1     -49.920  15.497  22.209  0.00  0.00     0.000 A 
ATOM     26  C   UNL d   1     -49.444  15.194  21.619  0.00  0.00     0.000 A 
ATOM     27  C   UNL d   1     -48.784  14.779  21.818  0.00  0.00     0.000 A 
ENDBRANCH   4  22
TORSDOF 5
ENDMDL
MODEL 2
REMARK VINA RESULT:      -6.7      1.192      2.766
REMARK  5 active torsions:
REMARK  status: ('A' for Active; 'I' for Inactive)
REMARK    1  A    between atoms: C_11  and  C_4 
REMARK    2  A    between atoms: N_10  and  C_6 
REMARK    3  A    between atoms: C_13  and  C_9 
REMARK    4  A    between atoms: C_14  and  N_10 
REMARK    5  A    between atoms: C_15  and  C_14 
ROOT
ATOM      1  C   UNL d   1     -48.151  12.811  22.838  0.00  0.00     0.167 A 
ATOM      2  N   UNL d   1     -47.341  12.682  22.843  0.00  0.00    -0.195 N 
ATOM      3  N   UNL d   1     -47.556  11.347  23.226  0.00  0.00    -0.163 NA
ATOM      4  C   UNL d   1     -48.650  12.216  23.024  0.00  0.00     0.055 A 
ATOM      5  N   UNL d   1     -48.436  13.544  22.644  0.00  0.00    -0.227 NA
ATOM      6  C   UNL d   1     -46.844  13.290  22.653  0.00  0.00     0.167 A 
ATOM      7  C   UNL d   1     -48.366  11.476  23.221  0.00  0.00     0.104 A 
ATOM      8  C   UNL d   1     -47.147  14.043  22.454  0.00  0.00     0.058 A 
ATOM      9  C   UNL d   1     -47.936  14.143  22.456  0.00  0.00     0.086 A 
ATOM     10  C   UNL d   1     -48.865  10.884  23.406  0.00  0.00     0.023 C 
ENDROOT
BRANCH   6  11
ATOM     11  N   UNL d   1     -46.012  13.162  22.657  0.00  0.00    -0.224 NA
BRANCH  11  12
ATOM     12  C   UNL d   1     -45.289  13.504  22.393  0.00  0.00     0.120 C 
BRANCH  12  13
ATOM     13  C   UNL d   1     -44.636  13.018  22.198  0.00  0.00     0.101 A 
ATOM     14  N   UNL d   1     -44.509  12.296  22.612  0.00  0.00    -0.242 NA
ATOM     15  C   UNL d   1     -43.855  11.809  22.417  0.00  0.00     0.099 A 
ATOM     16  C   UNL d   1     -43.325  12.048  21.805  0.00  0.00     0.021 A 
ATOM     17  C   UNL d   1     -43.449  12.772  21.389  0.00  0.00     0.003 A 
ATOM     18  C   UNL d   1     -44.108  13.254  21.590  0.00  0.00     0.021 A 
ENDBRANCH  12  13
ENDBRANCH  11  12
ENDBRANCH   6  11
BRANCH   9  19
ATOM     19  C   UNL d   1     -48.242  14.913  22.252  0.00  0.00     0.018 C 
ATOM     20  C   UNL d   1     -48.357  15.111  21.428  0.00  0.00     0.002 C 
ATOM     21  C   UNL d   1     -48.427  15.474  22.861  0.00  0.00     0.002 C 
ENDBRANCH   9  19
BRANCH   4  22
ATOM     22  C   UNL d   1     -49.469  12.346  23.020  0.00  0.00     0.004 A 
ATOM     23  C   UNL d   1     -49.843  12.578  23.696  0.00  0.00     0.000 A 
ATOM     24  C   UNL d   1     -50.650  12.707  23.691  0.00  0.00     0.000 A 
ATOM     25  C   UNL d   1     -51.064  12.601  23.010  0.00  0.00     0.000 A 
ATOM     26  C   UNL d   1     -50.683  12.366  22.328  0.00  0.00     0.000 A 
ATOM     27  C   UNL d   1     -49.888  12.241  22.341  0.00  0.00     0.000 A 
ENDBRANCH   4  22
TORSDOF 5
ENDMDL
MODEL 3
REMARK VINA RESULT:      -4.8      8.200      9.424
REMARK  5 active torsions:
REMARK  status: ('A' for Active; 'I' for Inactive)
REMARK    1  A    between atoms: C_11  and  C_4 
REMARK    2  A    between atoms: N_10  and  C_6 
REMARK    3  A    between atoms: C_13  and  C_9 
REMARK    4  A    between atoms: C_14  and  N_10 
REMARK    5  A    between atoms: C_15  and  C_14 
ROOT
ATOM      1  C   UNL d   1     -39.642  14.574  18.889  0.00  0.00     0.167 A 
ATOM      2  N   UNL d   1     -39.347  14.434  19.641  0.00  0.00    -0.195 N 
ATOM      3  N   UNL d   1     -40.320  15.293  20.182  0.00  0.00    -0.163 NA
ATOM      4  C   UNL d   1     -40.265  15.065  18.791  0.00  0.00     0.055 A 
ATOM      5  N   UNL d   1     -39.298  14.211  18.252  0.00  0.00    -0.227 NA
ATOM      6  C   UNL d   1     -38.718  13.936  19.731  0.00  0.00     0.167 A 
ATOM      7  C   UNL d   1     -40.615  15.433  19.430  0.00  0.00     0.104 A 
ATOM      8  C   UNL d   1     -38.369  13.566  19.068  0.00  0.00     0.058 A 
ATOM      9  C   UNL d   1     -38.673  13.717  18.349  0.00  0.00     0.086 A 
ATOM     10  C   UNL d   1     -41.235  15.922  19.330  0.00  0.00     0.023 C 
ENDROOT
BRANCH   6  11
ATOM     11  N   UNL d   1     -38.411  13.789  20.501  0.00  0.00    -0.224 NA
BRANCH  11  12
ATOM     12  C   UNL d   1     -37.941  14.142  21.104  0.00  0.00     0.120 C 
BRANCH  12  13
ATOM     13  C   UNL d   1     -37.976  13.858  21.891  0.00  0.00     0.101 A 
ATOM     14  N   UNL d   1     -37.989  14.401  22.534  0.00  0.00    -0.242 NA
ATOM     15  C   UNL d   1     -38.024  14.118  23.322  0.00  0.00     0.099 A 
ATOM     16  C   UNL d   1     -38.047  13.287  23.466  0.00  0.00     0.021 A 
ATOM     17  C   UNL d   1     -38.035  12.740  22.822  0.00  0.00     0.003 A 
ATOM     18  C   UNL d   1     -37.999  13.032  22.035  0.00  0.00     0.021 A 
ENDBRANCH  12  13
ENDBRANCH  11  12
ENDBRANCH   6  11
BRANCH   9  19
ATOM     19  C   UNL d   1     -38.314  13.337  17.675  0.00  0.00     0.018 C 
ATOM     20  C   UNL d   1     -37.940  13.818  17.075  0.00  0.00     0.002 C 
ATOM     21  C   UNL d   1     -38.329  12.492  17.603  0.00  0.00     0.002 C 
ENDBRANCH   9  19
BRANCH   4  22
ATOM     22  C   UNL d   1     -40.564  15.206  18.030  0.00  0.00     0.004 A 
ATOM     23  C   UNL d   1     -41.190  14.777  17.758  0.00  0.00     0.000 A 
ATOM     24  C   UNL d   1     -41.484  14.916  17.009  0.00  0.00     0.000 A 
ATOM     25  C   UNL d   1     -41.145  15.482  16.548  0.00  0.00     0.000 A 
ATOM     26  C   UNL d   1     -40.512  15.915  16.827  0.00  0.00     0.000 A 
ATOM     27  C   UNL d   1     -40.228  15.771  17.565  0.00  0.00     0.000 A 
ENDBRANCH   4  22
TORSDOF 5
ENDMDL
