MODEL 1
REMARK VINA RESULT:      -8.8      0.000      0.000
REMARK  5 active torsions:
REMARK  status: ('A' for Active; 'I' for Inactive)
REMARK    1  A    between atoms: S_2  and  C_10 
REMARK    2  A    between atoms: N_7  and  S_2 
REMARK    3  A    between atoms: C_9  and  N_7 
REMARK    4  A    between atoms: O_23  and  C_16 
REMARK    5  A    between atoms: O_24  and  C_19 
ROOT
ATOM      1  S   UNL d   1      51.794  34.090  53.253  0.00  0.00     0.285 S 
ATOM      2  O   UNL d   1      51.330  33.658  53.778  0.00  0.00    -0.198 OA
ATOM      3  O   UNL d   1      52.257  34.522  52.728  0.00  0.00    -0.198 OA
ENDROOT
BRANCH   1   4
ATOM      4  C   UNL d   1      51.134  34.223  52.779  0.00  0.00     0.107 A 
ATOM      5  C   UNL d   1      50.482  34.619  53.084  0.00  0.00     0.032 A 
ATOM      6  C   UNL d   1      49.819  34.753  52.609  0.00  0.00     0.085 A 
ATOM      7  N   UNL d   1      49.096  35.126  52.754  0.00  0.00    -0.256 N 
ATOM      8  C   UNL d   1      49.810  34.489  51.830  0.00  0.00     0.085 A 
ATOM      9  C   UNL d   1      48.651  35.093  52.078  0.00  0.00     0.339 A 
ATOM     10  C   UNL d   1      48.858  35.476  53.464  0.00  0.00     0.104 C 
ATOM     11  N   UNL d   1      49.085  34.701  51.500  0.00  0.00    -0.256 N 
ATOM     12  O   UNL d   1      47.882  35.406  51.988  0.00  0.00    -0.245 OA
ATOM     13  C   UNL d   1      48.833  34.547  50.723  0.00  0.00     0.104 C 
ATOM     14  C   UNL d   1      50.465  34.091  51.523  0.00  0.00     0.020 A 
ATOM     15  C   UNL d   1      51.128  33.958  51.998  0.00  0.00     0.015 A 
ENDBRANCH   1   4
BRANCH   1  16
ATOM     16  N   UNL d   1      52.454  33.957  53.726  0.00  0.00    -0.156 NA
BRANCH  16  17
ATOM     17  C   UNL d   1      52.862  33.247  53.674  0.00  0.00     0.118 A 
ATOM     18  C   UNL d   1      52.582  32.644  53.188  0.00  0.00     0.046 A 
ATOM     19  C   UNL d   1      52.991  31.934  53.136  0.00  0.00     0.096 A 
ATOM     20  C   UNL d   1      53.691  31.819  53.573  0.00  0.00     0.026 A 
ATOM     21  C   UNL d   1      53.971  32.422  54.058  0.00  0.00     0.028 A 
ATOM     22  C   UNL d   1      53.555  33.138  54.108  0.00  0.00     0.113 A 
BRANCH  19  23
ATOM     23  O   UNL d   1      52.705  31.336  52.649  0.00  0.00    -0.328 OA
ATOM     24  C   UNL d   1      52.804  30.547  52.861  0.00  0.00     0.181 C 
ENDBRANCH  19  23
BRANCH  22  25
ATOM     25  O   UNL d   1      53.835  33.741  54.593  0.00  0.00    -0.327 OA
ATOM     26  C   UNL d   1      54.528  33.635  55.021  0.00  0.00     0.181 C 
ENDBRANCH  22  25
ENDBRANCH  16  17
ENDBRANCH   1  16
TORSDOF 5
ENDMDL
MODEL 2
REMARK VINA RESULT:      -7.9      0.615      2.030
REMARK  5 active torsions:
REMARK  status: ('A' for Active; 'I' for Inactive)
REMARK    1  A    between atoms: S_2  and  C_10 
REMARK    2  A    between atoms: N_7  and  S_2 
REMARK    3  A    between atoms: C_9  and  N_7 
REMARK    4  A    between atoms: O_23  and  C_16 
REMARK    5  A    between atoms: O_24  and  C_19 
ROOT
ATOM      1  S   UNL d   1      51.414  33.564  52.509  0.00  0.00     0.285 S 
ATOM      2  O   UNL d   1      51.797  34.181  52.122  0.00  0.00    -0.198 OA
ATOM      3  O   UNL d   1      51.031  32.947  52.896  0.00  0.00    -0.198 OA
ENDROOT
BRANCH   1   4
ATOM      4  C   UNL d   1      50.751  34.040  52.613  0.00  0.00     0.107 A 
ATOM      5  C   UNL d   1      50.205  34.121  52.005  0.00  0.00     0.032 A 
ATOM      6  C   UNL d   1      49.538  34.600  52.108  0.00  0.00     0.085 A 
ATOM      7  N   UNL d   1      48.905  34.788  51.612  0.00  0.00    -0.256 N 
ATOM      8  C   UNL d   1      49.421  34.995  52.820  0.00  0.00     0.085 A 
ATOM      9  C   UNL d   1      48.407  35.288  52.009  0.00  0.00     0.339 A 
ATOM     10  C   UNL d   1      48.790  34.515  50.839  0.00  0.00     0.104 C 
ATOM     11  N   UNL d   1      48.719  35.423  52.758  0.00  0.00    -0.256 N 
ATOM     12  O   UNL d   1      47.700  35.611  51.706  0.00  0.00    -0.245 OA
ATOM     13  C   UNL d   1      48.382  35.905  53.346  0.00  0.00     0.104 C 
ATOM     14  C   UNL d   1      49.969  34.914  53.431  0.00  0.00     0.020 A 
ATOM     15  C   UNL d   1      50.636  34.435  53.327  0.00  0.00     0.015 A 
ENDBRANCH   1   4
BRANCH   1  16
ATOM     16  N   UNL d   1      52.077  33.088  52.406  0.00  0.00    -0.156 NA
BRANCH  16  17
ATOM     17  C   UNL d   1      52.596  32.963  53.030  0.00  0.00     0.118 A 
ATOM     18  C   UNL d   1      52.817  33.590  53.515  0.00  0.00     0.046 A 
ATOM     19  C   UNL d   1      53.336  33.466  54.139  0.00  0.00     0.096 A 
ATOM     20  C   UNL d   1      53.643  32.705  54.285  0.00  0.00     0.026 A 
ATOM     21  C   UNL d   1      53.423  32.078  53.799  0.00  0.00     0.028 A 
ATOM     22  C   UNL d   1      52.898  32.208  53.170  0.00  0.00     0.113 A 
BRANCH  19  23
ATOM     23  O   UNL d   1      53.552  34.098  54.620  0.00  0.00    -0.328 OA
ATOM     24  C   UNL d   1      54.245  34.063  55.061  0.00  0.00     0.181 C 
ENDBRANCH  19  23
BRANCH  22  25
ATOM     25  O   UNL d   1      52.677  31.581  52.685  0.00  0.00    -0.327 OA
ATOM     26  C   UNL d   1      52.974  30.828  52.826  0.00  0.00     0.181 C 
ENDBRANCH  22  25
ENDBRANCH  16  17
ENDBRANCH   1  16
TORSDOF 5
ENDMDL
MODEL 3
REMARK VINA RESULT:      -7.3      2.064      4.671
REMARK  5 active torsions:
REMARK  status: ('A' for Active; 'I' for Inactive)
REMARK    1  A    between atoms: S_2  and  C_10 
REMARK    2  A    between atoms: N_7  and  S_2 
REMARK    3  A    between atoms: C_9  and  N_7 
REMARK    4  A    between atoms: O_23  and  C_16 
REMARK    5  A    between atoms: O_24  and  C_19 
ROOT
ATOM      1  S   UNL d   1      53.630  32.842  53.925  0.00  0.00     0.285 S 
ATOM      2  O   UNL d   1      53.225  32.982  54.627  0.00  0.00    -0.198 OA
ATOM      3  O   UNL d   1      54.036  32.703  53.222  0.00  0.00    -0.198 OA
ENDROOT
BRANCH   1   4
ATOM      4  C   UNL d   1      53.562  32.031  54.046  0.00  0.00     0.107 A 
ATOM      5  C   UNL d   1      53.290  31.546  53.442  0.00  0.00     0.032 A 
ATOM      6  C   UNL d   1      53.222  30.731  53.564  0.00  0.00     0.085 A 
ATOM      7  N   UNL d   1      52.971  30.114  53.074  0.00  0.00    -0.256 N 
ATOM      8  C   UNL d   1      53.426  30.405  54.290  0.00  0.00     0.085 A 
ATOM      9  C   UNL d   1      53.020  29.421  53.491  0.00  0.00     0.339 A 
ATOM     10  C   UNL d   1      52.713  30.183  52.292  0.00  0.00     0.104 C 
ATOM     11  N   UNL d   1      53.300  29.591  54.245  0.00  0.00    -0.256 N 
ATOM     12  O   UNL d   1      52.818  28.665  53.200  0.00  0.00    -0.245 OA
ATOM     13  C   UNL d   1      53.432  29.037  54.851  0.00  0.00     0.104 C 
ATOM     14  C   UNL d   1      53.699  30.891  54.898  0.00  0.00     0.020 A 
ATOM     15  C   UNL d   1      53.767  31.706  54.776  0.00  0.00     0.015 A 
ENDBRANCH   1   4
BRANCH   1  16
ATOM     16  N   UNL d   1      53.698  33.653  53.803  0.00  0.00    -0.156 NA
BRANCH  16  17
ATOM     17  C   UNL d   1      53.040  34.095  53.590  0.00  0.00     0.118 A 
ATOM     18  C   UNL d   1      52.496  33.792  53.052  0.00  0.00     0.046 A 
ATOM     19  C   UNL d   1      51.837  34.234  52.838  0.00  0.00     0.096 A 
ATOM     20  C   UNL d   1      51.716  34.990  53.165  0.00  0.00     0.026 A 
ATOM     21  C   UNL d   1      52.259  35.293  53.704  0.00  0.00     0.028 A 
ATOM     22  C   UNL d   1      52.923  34.844  53.916  0.00  0.00     0.113 A 
BRANCH  19  23
ATOM     23  O   UNL d   1      51.298  33.924  52.299  0.00  0.00    -0.328 OA
ATOM     24  C   UNL d   1      50.507  34.145  52.333  0.00  0.00     0.181 C 
ENDBRANCH  19  23
BRANCH  22  25
ATOM     25  O   UNL d   1      53.467  35.147  54.454  0.00  0.00    -0.327 OA
ATOM     26  C   UNL d   1      53.382  35.913  54.737  0.00  0.00     0.181 C 
ENDBRANCH  22  25
ENDBRANCH  16  17
ENDBRANCH   1  16
TORSDOF 5
ENDMDL
MODEL 4
REMARK VINA RESULT:      -7.1      1.098      4.991
REMARK  5 active torsions:
REMARK  status: ('A' for Active; 'I' for Inactive)
REMARK    1  A    between atoms: S_2  and  C_10 
REMARK    2  A    between atoms: N_7  and  S_2 
REMARK    3  A    between atoms: C_9  and  N_7 
REMARK    4  A    between atoms: O_23  and  C_16 
REMARK    5  A    between atoms: O_24  and  C_19 
ROOT
ATOM      1  S   UNL d   1      50.706  34.078  52.594  0.00  0.00     0.285 S 
ATOM      2  O   UNL d   1      51.068  34.531  52.010  0.00  0.00    -0.198 OA
ATOM      3  O   UNL d   1      50.343  33.624  53.177  0.00  0.00    -0.198 OA
ENDROOT
BRANCH   1   4
ATOM      4  C   UNL d   1      51.420  34.028  52.999  0.00  0.00     0.107 A 
ATOM      5  C   UNL d   1      51.824  33.314  53.035  0.00  0.00     0.032 A 
ATOM      6  C   UNL d   1      52.542  33.265  53.443  0.00  0.00     0.085 A 
ATOM      7  N   UNL d   1      53.066  32.639  53.574  0.00  0.00    -0.256 N 
ATOM      8  C   UNL d   1      52.852  33.930  53.813  0.00  0.00     0.085 A 
ATOM      9  C   UNL d   1      53.687  32.913  54.016  0.00  0.00     0.339 A 
ATOM     10  C   UNL d   1      52.980  31.862  53.304  0.00  0.00     0.104 C 
ATOM     11  N   UNL d   1      53.564  33.712  54.169  0.00  0.00    -0.256 N 
ATOM     12  O   UNL d   1      54.339  32.459  54.271  0.00  0.00    -0.245 OA
ATOM     13  C   UNL d   1      54.069  34.208  54.605  0.00  0.00     0.104 C 
ATOM     14  C   UNL d   1      52.447  34.648  53.777  0.00  0.00     0.020 A 
ATOM     15  C   UNL d   1      51.729  34.697  53.370  0.00  0.00     0.015 A 
ENDBRANCH   1   4
BRANCH   1  16
ATOM     16  N   UNL d   1      49.991  34.127  52.188  0.00  0.00    -0.156 NA
BRANCH  16  17
ATOM     17  C   UNL d   1      49.441  34.700  52.391  0.00  0.00     0.118 A 
ATOM     18  C   UNL d   1      49.466  35.052  53.134  0.00  0.00     0.046 A 
ATOM     19  C   UNL d   1      48.915  35.627  53.337  0.00  0.00     0.096 A 
ATOM     20  C   UNL d   1      48.328  35.856  52.793  0.00  0.00     0.026 A 
ATOM     21  C   UNL d   1      48.302  35.504  52.049  0.00  0.00     0.028 A 
ATOM     22  C   UNL d   1      48.861  34.925  51.848  0.00  0.00     0.113 A 
BRANCH  19  23
ATOM     23  O   UNL d   1      48.946  35.974  54.083  0.00  0.00    -0.328 OA
ATOM     24  C   UNL d   1      48.340  36.469  54.334  0.00  0.00     0.181 C 
ENDBRANCH  19  23
BRANCH  22  25
ATOM     25  O   UNL d   1      48.835  34.573  51.105  0.00  0.00    -0.327 OA
ATOM     26  C   UNL d   1      48.137  34.576  50.672  0.00  0.00     0.181 C 
ENDBRANCH  22  25
ENDBRANCH  16  17
ENDBRANCH   1  16
TORSDOF 5
ENDMDL
MODEL 5
REMARK VINA RESULT:      -6.2      9.854     10.737
REMARK  5 active torsions:
REMARK  status: ('A' for Active; 'I' for Inactive)
REMARK    1  A    between atoms: S_2  and  C_10 
REMARK    2  A    between atoms: N_7  and  S_2 
REMARK    3  A    between atoms: C_9  and  N_7 
REMARK    4  A    between atoms: O_23  and  C_16 
REMARK    5  A    between atoms: O_24  and  C_19 
ROOT
ATOM      1  S   UNL d   1      45.075  30.296  59.652  0.00  0.00     0.285 S 
ATOM      2  O   UNL d   1      45.835  29.983  59.673  0.00  0.00    -0.198 OA
ATOM      3  O   UNL d   1      44.314  30.610  59.632  0.00  0.00    -0.198 OA
ENDROOT
BRANCH   1   4
ATOM      4  C   UNL d   1      44.950  29.946  58.919  0.00  0.00     0.107 A 
ATOM      5  C   UNL d   1      45.207  29.178  58.781  0.00  0.00     0.032 A 
ATOM      6  C   UNL d   1      45.081  28.825  58.044  0.00  0.00     0.085 A 
ATOM      7  N   UNL d   1      45.271  28.078  57.744  0.00  0.00    -0.256 N 
ATOM      8  C   UNL d   1      44.699  29.242  57.447  0.00  0.00     0.085 A 
ATOM      9  C   UNL d   1      45.011  28.036  56.978  0.00  0.00     0.339 A 
ATOM     10  C   UNL d   1      45.659  27.471  58.150  0.00  0.00     0.104 C 
ATOM     11  N   UNL d   1      44.655  28.752  56.785  0.00  0.00    -0.256 N 
ATOM     12  O   UNL d   1      45.092  27.376  56.474  0.00  0.00    -0.245 OA
ATOM     13  C   UNL d   1      44.314  28.944  56.052  0.00  0.00     0.104 C 
ATOM     14  C   UNL d   1      44.441  30.014  57.584  0.00  0.00     0.020 A 
ATOM     15  C   UNL d   1      44.566  30.366  58.322  0.00  0.00     0.015 A 
ENDBRANCH   1   4
BRANCH   1  16
ATOM     16  N   UNL d   1      45.200  30.647  60.386  0.00  0.00    -0.156 NA
BRANCH  16  17
ATOM     17  C   UNL d   1      44.906  30.295  61.067  0.00  0.00     0.118 A 
ATOM     18  C   UNL d   1      44.875  29.474  61.126  0.00  0.00     0.046 A 
ATOM     19  C   UNL d   1      44.581  29.122  61.808  0.00  0.00     0.096 A 
ATOM     20  C   UNL d   1      44.314  29.591  62.442  0.00  0.00     0.026 A 
ATOM     21  C   UNL d   1      44.346  30.412  62.383  0.00  0.00     0.028 A 
ATOM     22  C   UNL d   1      44.643  30.763  61.693  0.00  0.00     0.113 A 
BRANCH  19  23
ATOM     23  O   UNL d   1      44.552  28.301  61.860  0.00  0.00    -0.328 OA
ATOM     24  C   UNL d   1      44.725  27.925  62.571  0.00  0.00     0.181 C 
ENDBRANCH  19  23
BRANCH  22  25
ATOM     25  O   UNL d   1      44.675  31.584  61.634  0.00  0.00    -0.327 OA
ATOM     26  C   UNL d   1      44.496  32.050  62.285  0.00  0.00     0.181 C 
ENDBRANCH  22  25
ENDBRANCH  16  17
ENDBRANCH   1  16
TORSDOF 5
ENDMDL
MODEL 6
REMARK VINA RESULT:      -5.9      2.337      4.799
REMARK  5 active torsions:
REMARK  status: ('A' for Active; 'I' for Inactive)
REMARK    1  A    between atoms: S_2  and  C_10 
REMARK    2  A    between atoms: N_7  and  S_2 
REMARK    3  A    between atoms: C_9  and  N_7 
REMARK    4  A    between atoms: O_23  and  C_16 
REMARK    5  A    between atoms: O_24  and  C_19 
ROOT
ATOM      1  S   UNL d   1      53.071  32.359  53.158  0.00  0.00     0.285 S 
ATOM      2  O   UNL d   1      52.295  32.419  53.424  0.00  0.00    -0.198 OA
ATOM      3  O   UNL d   1      53.848  32.300  52.893  0.00  0.00    -0.198 OA
ENDROOT
BRANCH   1   4
ATOM      4  C   UNL d   1      53.037  31.541  53.243  0.00  0.00     0.107 A 
ATOM      5  C   UNL d   1      53.210  31.196  53.968  0.00  0.00     0.032 A 
ATOM      6  C   UNL d   1      53.175  30.374  54.053  0.00  0.00     0.085 A 
ATOM      7  N   UNL d   1      53.315  29.874  54.697  0.00  0.00    -0.256 N 
ATOM      8  C   UNL d   1      52.969  29.902  53.413  0.00  0.00     0.085 A 
ATOM      9  C   UNL d   1      53.197  29.110  54.458  0.00  0.00     0.339 A 
ATOM     10  C   UNL d   1      53.537  30.107  55.459  0.00  0.00     0.104 C 
ATOM     11  N   UNL d   1      52.982  29.116  53.664  0.00  0.00    -0.256 N 
ATOM     12  O   UNL d   1      53.280  28.433  54.939  0.00  0.00    -0.245 OA
ATOM     13  C   UNL d   1      52.810  28.447  53.201  0.00  0.00     0.104 C 
ATOM     14  C   UNL d   1      52.796  30.248  52.684  0.00  0.00     0.020 A 
ATOM     15  C   UNL d   1      52.830  31.070  52.599  0.00  0.00     0.015 A 
ENDBRANCH   1   4
BRANCH   1  16
ATOM     16  N   UNL d   1      53.106  33.177  53.074  0.00  0.00    -0.156 NA
BRANCH  16  17
ATOM     17  C   UNL d   1      53.281  33.652  53.720  0.00  0.00     0.118 A 
ATOM     18  C   UNL d   1      53.896  33.448  54.227  0.00  0.00     0.046 A 
ATOM     19  C   UNL d   1      54.072  33.923  54.875  0.00  0.00     0.096 A 
ATOM     20  C   UNL d   1      53.628  34.612  55.022  0.00  0.00     0.026 A 
ATOM     21  C   UNL d   1      53.013  34.816  54.515  0.00  0.00     0.028 A 
ATOM     22  C   UNL d   1      52.839  34.334  53.862  0.00  0.00     0.113 A 
BRANCH  19  23
ATOM     23  O   UNL d   1      54.688  33.712  55.377  0.00  0.00    -0.328 OA
ATOM     24  C   UNL d   1      55.438  34.034  55.269  0.00  0.00     0.181 C 
ENDBRANCH  19  23
BRANCH  22  25
ATOM     25  O   UNL d   1      52.224  34.538  53.355  0.00  0.00    -0.327 OA
ATOM     26  C   UNL d   1      51.747  35.184  53.527  0.00  0.00     0.181 C 
ENDBRANCH  22  25
ENDBRANCH  16  17
ENDBRANCH   1  16
TORSDOF 5
ENDMDL
