MODEL 1
REMARK VINA RESULT:     137.5      0.000      0.000
REMARK  7 active torsions:
REMARK  status: ('A' for Active; 'I' for Inactive)
REMARK    1  A    between atoms: N_6  and  S_1 
REMARK    2  A    between atoms: C_9  and  S_1 
REMARK    3  A    between atoms: N_2  and  C_11 
REMARK    4  A    between atoms: C_14  and  C_3 
REMARK    5  A    between atoms: C_7  and  C_15 
REMARK       I    between atoms: N_10  and  C_7 
REMARK    6  A    between atoms: C_25  and  N_10 
REMARK    7  A    between atoms: O_33  and  C_26 
ROOT
ATOM      1  C   UNL d   1      45.928 -18.784  42.938  0.00  0.00     0.085 A 
ATOM      2  C   UNL d   1      45.401 -18.155  42.910  0.00  0.00     0.021 A 
ATOM      3  C   UNL d   1      46.526 -18.858  42.373  0.00  0.00     0.021 A 
ATOM      4  C   UNL d   1      46.063 -17.654  41.743  0.00  0.00     0.085 A 
ATOM      5  C   UNL d   1      45.465 -17.584  42.310  0.00  0.00     0.021 A 
ATOM      6  C   UNL d   1      46.599 -18.299  41.775  0.00  0.00     0.021 A 
ENDROOT
BRANCH   4   7
ATOM      7  N   UNL d   1      46.133 -17.085  41.138  0.00  0.00    -0.208 NA
ATOM      8  C   UNL d   1      45.615 -17.105  40.502  0.00  0.00     0.279 C 
ATOM      9  O   UNL d   1      45.029 -17.679  40.456  0.00  0.00    -0.265 OA
BRANCH   8  10
ATOM     10  C   UNL d   1      45.681 -16.533  39.890  0.00  0.00     0.058 A 
ATOM     11  C   UNL d   1      45.091 -15.983  39.793  0.00  0.00     0.005 A 
ATOM     12  C   UNL d   1      45.155 -15.426  39.197  0.00  0.00     0.013 A 
ATOM     13  C   UNL d   1      45.798 -15.418  38.704  0.00  0.00     0.104 A 
ATOM     14  C   UNL d   1      46.395 -15.973  38.802  0.00  0.00     0.013 A 
ATOM     15  C   UNL d   1      46.331 -16.533  39.401  0.00  0.00     0.005 A 
BRANCH  13  16
ATOM     16  S   UNL d   1      45.855 -14.846  38.100  0.00  0.00     0.271 S 
ATOM     17  O   UNL d   1      45.423 -15.335  37.604  0.00  0.00    -0.200 OA
ATOM     18  O   UNL d   1      46.286 -14.367  38.604  0.00  0.00    -0.200 OA
BRANCH  16  19
ATOM     19  N   UNL d   1      45.920 -14.272  37.510  0.00  0.00    -0.229 N 
ATOM     20  C   UNL d   1      46.592 -14.204  37.047  0.00  0.00     0.092 A 
ATOM     21  C   UNL d   1      46.644 -13.619  36.454  0.00  0.00     0.020 A 
ATOM     22  C   UNL d   1      46.019 -13.105  36.332  0.00  0.00     0.003 A 
ATOM     23  C   UNL d   1      45.335 -13.163  36.794  0.00  0.00     0.020 A 
ATOM     24  C   UNL d   1      45.284 -13.748  37.385  0.00  0.00     0.092 A 
ENDBRANCH  16  19
ENDBRANCH  13  16
ENDBRANCH   8  10
ENDBRANCH   4   7
BRANCH   1  25
ATOM     25  N   UNL d   1      45.864 -19.355  43.538  0.00  0.00    -0.211 N 
ATOM     26  C   UNL d   1      45.212 -19.853  43.680  0.00  0.00     0.105 A 
ATOM     27  C   UNL d   1      45.395 -20.328  44.330  0.00  0.00     0.143 A 
ATOM     28  N   UNL d   1      46.157 -20.132  44.597  0.00  0.00    -0.127 NA
ATOM     29  N   UNL d   1      46.448 -19.530  44.107  0.00  0.00    -0.060 NA
BRANCH  26  30
ATOM     30  C   UNL d   1      44.517 -19.866  43.251  0.00  0.00     0.019 A 
ATOM     31  C   UNL d   1      44.457 -19.432  42.551  0.00  0.00     0.004 A 
ATOM     32  C   UNL d   1      43.755 -19.446  42.118  0.00  0.00     0.024 A 
ATOM     33  C   UNL d   1      43.117 -19.886  42.377  0.00  0.00     0.094 A 
ATOM     34  C   UNL d   1      43.176 -20.325  43.083  0.00  0.00     0.024 A 
ATOM     35  C   UNL d   1      43.877 -20.314  43.519  0.00  0.00     0.004 A 
BRANCH  33  36
ATOM     36  O   UNL d   1      42.415 -19.905  41.951  0.00  0.00    -0.328 OA
ATOM     37  C   UNL d   1      42.411 -19.790  41.139  0.00  0.00     0.181 C 
ENDBRANCH  33  36
ENDBRANCH  26  30
ENDBRANCH   1  25
TORSDOF 7
ENDMDL
MODEL 2
REMARK VINA RESULT:     140.5      5.276      7.672
REMARK  7 active torsions:
REMARK  status: ('A' for Active; 'I' for Inactive)
REMARK    1  A    between atoms: N_6  and  S_1 
REMARK    2  A    between atoms: C_9  and  S_1 
REMARK    3  A    between atoms: N_2  and  C_11 
REMARK    4  A    between atoms: C_14  and  C_3 
REMARK    5  A    between atoms: C_7  and  C_15 
REMARK       I    between atoms: N_10  and  C_7 
REMARK    6  A    between atoms: C_25  and  N_10 
REMARK    7  A    between atoms: O_33  and  C_26 
ROOT
ATOM      1  C   UNL d   1      44.743 -14.450  36.942  0.00  0.00     0.085 A 
ATOM      2  C   UNL d   1      44.017 -14.106  36.775  0.00  0.00     0.021 A 
ATOM      3  C   UNL d   1      44.799 -15.257  37.107  0.00  0.00     0.021 A 
ATOM      4  C   UNL d   1      43.379 -15.379  36.936  0.00  0.00     0.085 A 
ATOM      5  C   UNL d   1      43.327 -14.570  36.771  0.00  0.00     0.021 A 
ATOM      6  C   UNL d   1      44.124 -15.725  37.106  0.00  0.00     0.021 A 
ENDROOT
BRANCH   4   7
ATOM      7  N   UNL d   1      42.692 -15.850  36.934  0.00  0.00    -0.208 NA
ATOM      8  C   UNL d   1      42.122 -15.738  37.514  0.00  0.00     0.279 C 
ATOM      9  O   UNL d   1      42.224 -15.167  38.095  0.00  0.00    -0.265 OA
BRANCH   8  10
ATOM     10  C   UNL d   1      41.428 -16.211  37.516  0.00  0.00     0.058 A 
ATOM     11  C   UNL d   1      40.809 -16.011  37.028  0.00  0.00     0.005 A 
ATOM     12  C   UNL d   1      40.132 -16.470  37.029  0.00  0.00     0.013 A 
ATOM     13  C   UNL d   1      40.073 -17.120  37.510  0.00  0.00     0.104 A 
ATOM     14  C   UNL d   1      40.697 -17.322  38.002  0.00  0.00     0.013 A 
ATOM     15  C   UNL d   1      41.378 -16.860  38.001  0.00  0.00     0.005 A 
BRANCH  13  16
ATOM     16  S   UNL d   1      39.379 -17.583  37.504  0.00  0.00     0.271 S 
ATOM     17  O   UNL d   1      39.807 -18.212  37.202  0.00  0.00    -0.200 OA
ATOM     18  O   UNL d   1      38.963 -16.947  37.807  0.00  0.00    -0.200 OA
BRANCH  16  19
ATOM     19  N   UNL d   1      38.685 -18.030  37.505  0.00  0.00    -0.229 N 
ATOM     20  C   UNL d   1      38.665 -18.795  37.214  0.00  0.00     0.092 A 
ATOM     21  C   UNL d   1      37.956 -19.235  37.221  0.00  0.00     0.020 A 
ATOM     22  C   UNL d   1      37.272 -18.902  37.520  0.00  0.00     0.003 A 
ATOM     23  C   UNL d   1      37.278 -18.130  37.816  0.00  0.00     0.020 A 
ATOM     24  C   UNL d   1      37.987 -17.691  37.809  0.00  0.00     0.092 A 
ENDBRANCH  16  19
ENDBRANCH  13  16
ENDBRANCH   8  10
ENDBRANCH   4   7
BRANCH   1  25
ATOM     25  N   UNL d   1      45.433 -13.987  36.946  0.00  0.00    -0.211 N 
ATOM     26  C   UNL d   1      45.625 -13.391  37.496  0.00  0.00     0.105 A 
ATOM     27  C   UNL d   1      46.361 -13.081  37.283  0.00  0.00     0.143 A 
ATOM     28  N   UNL d   1      46.630 -13.477  36.604  0.00  0.00    -0.127 NA
ATOM     29  N   UNL d   1      46.056 -14.038  36.396  0.00  0.00    -0.060 NA
BRANCH  26  30
ATOM     30  C   UNL d   1      45.167 -13.158  38.130  0.00  0.00     0.019 A 
ATOM     31  C   UNL d   1      44.599 -12.566  38.032  0.00  0.00     0.004 A 
ATOM     32  C   UNL d   1      44.137 -12.330  38.673  0.00  0.00     0.024 A 
ATOM     33  C   UNL d   1      44.235 -12.679  39.405  0.00  0.00     0.094 A 
ATOM     34  C   UNL d   1      44.808 -13.276  39.506  0.00  0.00     0.024 A 
ATOM     35  C   UNL d   1      45.273 -13.515  38.867  0.00  0.00     0.004 A 
BRANCH  33  36
ATOM     36  O   UNL d   1      43.779 -12.449  40.048  0.00  0.00    -0.328 OA
ATOM     37  C   UNL d   1      44.129 -12.195  40.745  0.00  0.00     0.181 C 
ENDBRANCH  33  36
ENDBRANCH  26  30
ENDBRANCH   1  25
TORSDOF 7
ENDMDL
