MODEL 1
REMARK VINA RESULT:      60.8      0.000      0.000
REMARK  5 active torsions:
REMARK  status: ('A' for Active; 'I' for Inactive)
REMARK    1  A    between atoms: S_4  and  N_1 
REMARK    2  A    between atoms: C_2  and  C_5 
REMARK    3  A    between atoms: C_12  and  C_7 
REMARK    4  A    between atoms: O_26  and  C_24 
REMARK    5  A    between atoms: C_27  and  O_26 
ROOT
ATOM      1  C   UNL d   1     -54.758-101.367 -40.594  0.00  0.00     0.076 A 
ATOM      2  C   UNL d   1     -54.760-102.186 -40.657  0.00  0.00     0.281 A 
ATOM      3  C   UNL d   1     -54.754-101.010 -39.849  0.00  0.00     0.008 A 
ATOM      4  N   UNL d   1     -54.759-102.653 -39.976  0.00  0.00    -0.208 NA
ATOM      5  C   UNL d   1     -54.756-102.296 -39.226  0.00  0.00     0.087 A 
ATOM      6  C   UNL d   1     -54.754-101.478 -39.162  0.00  0.00     0.018 A 
ATOM      7  C   UNL d   1     -54.756-102.764 -38.545  0.00  0.00     0.044 A 
ATOM      8  O   UNL d   1     -54.763-102.873 -41.121  0.00  0.00    -0.265 OA
ATOM      9  C   UNL d   1     -54.751-101.121 -38.418  0.00  0.00     0.004 A 
ATOM     10  C   UNL d   1     -54.753-102.402 -37.858  0.00  0.00     0.102 A 
ATOM     11  C   UNL d   1     -54.750-101.584 -37.794  0.00  0.00     0.025 A 
ENDROOT
BRANCH   1  12
ATOM     12  C   UNL d   1     -54.758-100.900 -41.276  0.00  0.00     0.101 A 
ATOM     13  N   UNL d   1     -54.765-100.091 -41.302  0.00  0.00    -0.155 N 
ATOM     14  N   UNL d   1     -54.763 -99.854 -42.086  0.00  0.00    -0.153 NA
ATOM     15  C   UNL d   1     -54.755-100.531 -42.544  0.00  0.00     0.126 A 
ATOM     16  C   UNL d   1     -54.751-101.187 -42.050  0.00  0.00     0.043 A 
BRANCH  13  17
ATOM     17  S   UNL d   1     -54.773 -99.593 -40.651  0.00  0.00     0.266 S 
ATOM     18  O   UNL d   1     -54.813 -98.922 -41.159  0.00  0.00    -0.203 OA
ATOM     19  O   UNL d   1     -54.735-100.232 -40.131  0.00  0.00    -0.203 OA
ATOM     20  C   UNL d   1     -54.783 -99.063 -39.989  0.00  0.00     0.165 C 
ENDBRANCH  13  17
BRANCH  15  21
ATOM     21  C   UNL d   1     -54.750-100.557 -43.358  0.00  0.00     0.119 A 
ATOM     22  O   UNL d   1     -54.721-101.240 -43.830  0.00  0.00    -0.304 OA
ATOM     23  C   UNL d   1     -54.727-101.008 -44.612  0.00  0.00     0.123 A 
ATOM     24  C   UNL d   1     -54.760-100.166 -44.648  0.00  0.00     0.029 A 
ATOM     25  C   UNL d   1     -54.773 -99.909 -43.858  0.00  0.00     0.028 A 
ENDBRANCH  15  21
ENDBRANCH   1  12
BRANCH  10  26
ATOM     26  O   UNL d   1     -54.752-102.845 -37.174  0.00  0.00    -0.305 OA
BRANCH  26  27
ATOM     27  C   UNL d   1     -55.046-102.087 -36.357  0.00  0.00     0.123 C 
ATOM     28  C   UNL d   1     -54.871-102.231 -35.551  0.00  0.00     0.029 C 
ENDBRANCH  26  27
ENDBRANCH  10  26
TORSDOF 5
ENDMDL
