MODEL 1
REMARK VINA RESULT:      -2.3      0.000      0.000
REMARK  4 active torsions:
REMARK  status: ('A' for Active; 'I' for Inactive)
REMARK       I    between atoms: C_2  and  N_1 
REMARK    1  A    between atoms: C_3  and  N_1 
REMARK    2  A    between atoms: C_5  and  C_2 
REMARK    3  A    between atoms: C_4  and  C_3 
REMARK    4  A    between atoms: N_6  and  C_3 
ROOT
ATOM      1  C   UNL d   1     -41.570-122.143 -51.275  0.00  0.00     0.170 C 
ENDROOT
BRANCH   1   2
ATOM      2  N   UNL d   1     -41.510-122.494 -50.522  0.00  0.00    -0.191 NA
ATOM      3  C   UNL d   1     -42.235-122.675 -50.087  0.00  0.00     0.281 C 
ATOM      4  O   UNL d   1     -42.978-122.509 -50.401  0.00  0.00    -0.265 OA
BRANCH   3   5
ATOM      5  C   UNL d   1     -42.196-123.024 -49.336  0.00  0.00     0.069 A 
ATOM      6  C   UNL d   1     -42.890-123.302 -49.000  0.00  0.00     0.062 A 
ATOM      7 CL   UNL d   1     -43.587-123.292 -49.270  0.00  0.00    -0.082 Cl
ATOM      8  C   UNL d   1     -42.880-123.668 -48.223  0.00  0.00     0.012 A 
ATOM      9  C   UNL d   1     -42.171-123.738 -47.821  0.00  0.00     0.001 A 
ATOM     10  C   UNL d   1     -41.462-123.451 -48.170  0.00  0.00     0.000 A 
ATOM     11  C   UNL d   1     -41.481-123.094 -48.931  0.00  0.00     0.006 A 
ENDBRANCH   3   5
ENDBRANCH   1   2
BRANCH   1  12
ATOM     12  C   UNL d   1     -41.746-121.328 -51.325  0.00  0.00     0.249 C 
ATOM     13 CL   UNL d   1     -41.946-120.555 -51.383  0.00  0.00    -0.075 Cl
ATOM     14 CL   UNL d   1     -41.123-120.716 -51.122  0.00  0.00    -0.075 Cl
ATOM     15 CL   UNL d   1     -42.465-121.165 -51.553  0.00  0.00    -0.075 Cl
ENDBRANCH   1  12
BRANCH   1  16
ATOM     16  N   UNL d   1     -41.460-122.584 -51.955  0.00  0.00    -0.286 N 
ATOM     17  C   UNL d   1     -41.570-122.246 -52.674  0.00  0.00     0.108 A 
ATOM     18  C   UNL d   1     -41.459-122.690 -53.360  0.00  0.00     0.142 A 
ATOM     19  O   UNL d   1     -41.242-123.458 -53.342  0.00  0.00    -0.300 OA
ATOM     20  C   UNL d   1     -41.126-123.816 -52.594  0.00  0.00     0.142 A 
ATOM     21  C   UNL d   1     -41.237-123.372 -51.908  0.00  0.00     0.108 A 
ENDBRANCH   1  16
TORSDOF 4
ENDMDL
MODEL 2
REMARK VINA RESULT:      -2.1      1.557      3.953
REMARK  4 active torsions:
REMARK  status: ('A' for Active; 'I' for Inactive)
REMARK       I    between atoms: C_2  and  N_1 
REMARK    1  A    between atoms: C_3  and  N_1 
REMARK    2  A    between atoms: C_5  and  C_2 
REMARK    3  A    between atoms: C_4  and  C_3 
REMARK    4  A    between atoms: N_6  and  C_3 
ROOT
ATOM      1  C   UNL d   1     -41.374-122.068 -51.702  0.00  0.00     0.170 C 
ENDROOT
BRANCH   1   2
ATOM      2  N   UNL d   1     -41.225-122.262 -52.498  0.00  0.00    -0.191 NA
ATOM      3  C   UNL d   1     -41.881-122.243 -53.061  0.00  0.00     0.281 C 
ATOM      4  O   UNL d   1     -42.643-122.038 -52.828  0.00  0.00    -0.265 OA
BRANCH   3   5
ATOM      5  C   UNL d   1     -41.753-122.432 -53.859  0.00  0.00     0.069 A 
ATOM      6  C   UNL d   1     -42.152-122.000 -54.430  0.00  0.00     0.062 A 
ATOM      7 CL   UNL d   1     -42.635-121.436 -54.349  0.00  0.00    -0.082 Cl
ATOM      8  C   UNL d   1     -42.038-122.174 -55.263  0.00  0.00     0.012 A 
ATOM      9  C   UNL d   1     -41.529-122.776 -55.483  0.00  0.00     0.001 A 
ATOM     10  C   UNL d   1     -41.123-123.216 -54.894  0.00  0.00     0.000 A 
ATOM     11  C   UNL d   1     -41.239-123.039 -54.079  0.00  0.00     0.006 A 
ENDBRANCH   3   5
ENDBRANCH   1   2
BRANCH   1  12
ATOM     12  C   UNL d   1     -41.245-121.282 -51.450  0.00  0.00     0.249 C 
ATOM     13 CL   UNL d   1     -41.123-120.540 -51.176  0.00  0.00    -0.075 Cl
ATOM     14 CL   UNL d   1     -41.129-120.627 -52.050  0.00  0.00    -0.075 Cl
ATOM     15 CL   UNL d   1     -41.236-121.185 -50.684  0.00  0.00    -0.075 Cl
ENDBRANCH   1  12
BRANCH   1  16
ATOM     16  N   UNL d   1     -41.640-122.632 -51.174  0.00  0.00    -0.286 N 
ATOM     17  C   UNL d   1     -41.140-123.197 -50.904  0.00  0.00     0.108 A 
ATOM     18  C   UNL d   1     -41.409-123.766 -50.371  0.00  0.00     0.142 A 
ATOM     19  O   UNL d   1     -42.161-123.782 -50.104  0.00  0.00    -0.300 OA
ATOM     20  C   UNL d   1     -42.688-123.193 -50.383  0.00  0.00     0.142 A 
ATOM     21  C   UNL d   1     -42.420-122.624 -50.916  0.00  0.00     0.108 A 
ENDBRANCH   1  16
TORSDOF 4
ENDMDL
MODEL 3
REMARK VINA RESULT:      -1.8      1.175      3.782
REMARK  4 active torsions:
REMARK  status: ('A' for Active; 'I' for Inactive)
REMARK       I    between atoms: C_2  and  N_1 
REMARK    1  A    between atoms: C_3  and  N_1 
REMARK    2  A    between atoms: C_5  and  C_2 
REMARK    3  A    between atoms: C_4  and  C_3 
REMARK    4  A    between atoms: N_6  and  C_3 
ROOT
ATOM      1  C   UNL d   1     -42.606-123.242 -49.531  0.00  0.00     0.170 C 
ENDROOT
BRANCH   1   2
ATOM      2  N   UNL d   1     -42.240-123.395 -50.264  0.00  0.00    -0.191 NA
ATOM      3  C   UNL d   1     -42.229-122.772 -50.863  0.00  0.00     0.281 C 
ATOM      4  O   UNL d   1     -42.571-122.036 -50.724  0.00  0.00    -0.265 OA
BRANCH   3   5
ATOM      5  C   UNL d   1     -41.870-122.905 -51.598  0.00  0.00     0.069 A 
ATOM      6  C   UNL d   1     -41.817-122.278 -52.124  0.00  0.00     0.062 A 
ATOM      7 CL   UNL d   1     -42.049-121.572 -52.048  0.00  0.00    -0.082 Cl
ATOM      8  C   UNL d   1     -41.450-122.387 -52.893  0.00  0.00     0.012 A 
ATOM      9  C   UNL d   1     -41.153-123.122 -53.097  0.00  0.00     0.001 A 
ATOM     10  C   UNL d   1     -41.209-123.761 -52.554  0.00  0.00     0.000 A 
ATOM     11  C   UNL d   1     -41.571-123.646 -51.803  0.00  0.00     0.006 A 
ENDBRANCH   3   5
ENDBRANCH   1   2
BRANCH   1  12
ATOM     12  C   UNL d   1     -43.432-123.120 -49.514  0.00  0.00     0.249 C 
ATOM     13 CL   UNL d   1     -44.228-123.036 -49.495  0.00  0.00    -0.075 Cl
ATOM     14 CL   UNL d   1     -43.769-122.291 -49.561  0.00  0.00    -0.075 Cl
ATOM     15 CL   UNL d   1     -43.855-123.764 -49.456  0.00  0.00    -0.075 Cl
ENDBRANCH   1  12
BRANCH   1  16
ATOM     16  N   UNL d   1     -42.170-123.212 -48.841  0.00  0.00    -0.286 N 
ATOM     17  C   UNL d   1     -42.275-122.606 -48.327  0.00  0.00     0.108 A 
ATOM     18  C   UNL d   1     -41.835-122.575 -47.630  0.00  0.00     0.142 A 
ATOM     19  O   UNL d   1     -41.298-123.133 -47.438  0.00  0.00    -0.300 OA
ATOM     20  C   UNL d   1     -41.184-123.769 -47.971  0.00  0.00     0.142 A 
ATOM     21  C   UNL d   1     -41.624-123.799 -48.668  0.00  0.00     0.108 A 
ENDBRANCH   1  16
TORSDOF 4
ENDMDL
MODEL 4
REMARK VINA RESULT:       0.2      1.493      3.761
REMARK  4 active torsions:
REMARK  status: ('A' for Active; 'I' for Inactive)
REMARK       I    between atoms: C_2  and  N_1 
REMARK    1  A    between atoms: C_3  and  N_1 
REMARK    2  A    between atoms: C_5  and  C_2 
REMARK    3  A    between atoms: C_4  and  C_3 
REMARK    4  A    between atoms: N_6  and  C_3 
ROOT
ATOM      1  C   UNL d   1     -42.241-122.957 -50.374  0.00  0.00     0.170 C 
ENDROOT
BRANCH   1   2
ATOM      2  N   UNL d   1     -41.987-123.204 -51.128  0.00  0.00    -0.191 NA
ATOM      3  C   UNL d   1     -41.885-122.611 -51.749  0.00  0.00     0.281 C 
ATOM      4  O   UNL d   1     -42.032-121.813 -51.610  0.00  0.00    -0.265 OA
BRANCH   3   5
ATOM      5  C   UNL d   1     -41.634-122.837 -52.506  0.00  0.00     0.069 A 
ATOM      6  C   UNL d   1     -41.644-122.276 -53.104  0.00  0.00     0.062 A 
ATOM      7 CL   UNL d   1     -41.853-121.559 -53.079  0.00  0.00    -0.082 Cl
ATOM      8  C   UNL d   1     -41.390-122.483 -53.897  0.00  0.00     0.012 A 
ATOM      9  C   UNL d   1     -41.137-123.245 -54.053  0.00  0.00     0.001 A 
ATOM     10  C   UNL d   1     -41.128-123.817 -53.438  0.00  0.00     0.000 A 
ATOM     11  C   UNL d   1     -41.379-123.607 -52.663  0.00  0.00     0.006 A 
ENDBRANCH   3   5
ENDBRANCH   1   2
BRANCH   1  12
ATOM     12  C   UNL d   1     -41.665-122.723 -49.815  0.00  0.00     0.249 C 
ATOM     13 CL   UNL d   1     -41.123-122.467 -49.285  0.00  0.00    -0.075 Cl
ATOM     14 CL   UNL d   1     -41.158-123.336 -49.403  0.00  0.00    -0.075 Cl
ATOM     15 CL   UNL d   1     -41.619-121.961 -49.697  0.00  0.00    -0.075 Cl
ENDBRANCH   1  12
BRANCH   1  16
ATOM     16  N   UNL d   1     -43.034-122.941 -50.180  0.00  0.00    -0.286 N 
ATOM     17  C   UNL d   1     -43.420-123.624 -50.013  0.00  0.00     0.108 A 
ATOM     18  C   UNL d   1     -44.220-123.608 -49.817  0.00  0.00     0.142 A 
ATOM     19  O   UNL d   1     -44.640-122.930 -49.785  0.00  0.00    -0.300 OA
ATOM     20  C   UNL d   1     -44.242-122.214 -49.959  0.00  0.00     0.142 A 
ATOM     21  C   UNL d   1     -43.442-122.229 -50.155  0.00  0.00     0.108 A 
ENDBRANCH   1  16
TORSDOF 4
ENDMDL
MODEL 5
REMARK VINA RESULT:       0.6      1.729      2.682
REMARK  4 active torsions:
REMARK  status: ('A' for Active; 'I' for Inactive)
REMARK       I    between atoms: C_2  and  N_1 
REMARK    1  A    between atoms: C_3  and  N_1 
REMARK    2  A    between atoms: C_5  and  C_2 
REMARK    3  A    between atoms: C_4  and  C_3 
REMARK    4  A    between atoms: N_6  and  C_3 
ROOT
ATOM      1  C   UNL d   1     -42.193-122.314 -53.799  0.00  0.00     0.170 C 
ENDROOT
BRANCH   1   2
ATOM      2  N   UNL d   1     -42.149-122.633 -53.030  0.00  0.00    -0.191 NA
ATOM      3  C   UNL d   1     -41.599-122.280 -52.464  0.00  0.00     0.281 C 
ATOM      4  O   UNL d   1     -41.123-121.640 -52.668  0.00  0.00    -0.265 OA
BRANCH   3   5
ATOM      5  C   UNL d   1     -41.540-122.583 -51.694  0.00  0.00     0.069 A 
ATOM      6  C   UNL d   1     -41.444-122.055 -51.074  0.00  0.00     0.062 A 
ATOM      7 CL   UNL d   1     -41.399-121.310 -51.087  0.00  0.00    -0.082 Cl
ATOM      8  C   UNL d   1     -41.380-122.341 -50.268  0.00  0.00     0.012 A 
ATOM      9  C   UNL d   1     -41.416-123.145 -50.121  0.00  0.00     0.001 A 
ATOM     10  C   UNL d   1     -41.514-123.683 -50.760  0.00  0.00     0.000 A 
ATOM     11  C   UNL d   1     -41.576-123.395 -51.548  0.00  0.00     0.006 A 
ENDBRANCH   3   5
ENDBRANCH   1   2
BRANCH   1  12
ATOM     12  C   UNL d   1     -42.611-121.599 -53.912  0.00  0.00     0.249 C 
ATOM     13 CL   UNL d   1     -43.039-120.932 -54.019  0.00  0.00    -0.075 Cl
ATOM     14 CL   UNL d   1     -42.168-120.830 -54.034  0.00  0.00    -0.075 Cl
ATOM     15 CL   UNL d   1     -43.380-121.667 -53.902  0.00  0.00    -0.075 Cl
ENDBRANCH   1  12
BRANCH   1  16
ATOM     16  N   UNL d   1     -41.838-122.689 -54.432  0.00  0.00    -0.286 N 
ATOM     17  C   UNL d   1     -41.801-122.324 -55.145  0.00  0.00     0.108 A 
ATOM     18  C   UNL d   1     -41.443-122.702 -55.784  0.00  0.00     0.142 A 
ATOM     19  O   UNL d   1     -41.123-123.432 -55.725  0.00  0.00    -0.300 OA
ATOM     20  C   UNL d   1     -41.158-123.817 -54.982  0.00  0.00     0.142 A 
ATOM     21  C   UNL d   1     -41.517-123.439 -54.344  0.00  0.00     0.108 A 
ENDBRANCH   1  16
TORSDOF 4
ENDMDL
MODEL 6
REMARK VINA RESULT:       0.7      2.201      4.406
REMARK  4 active torsions:
REMARK  status: ('A' for Active; 'I' for Inactive)
REMARK       I    between atoms: C_2  and  N_1 
REMARK    1  A    between atoms: C_3  and  N_1 
REMARK    2  A    between atoms: C_5  and  C_2 
REMARK    3  A    between atoms: C_4  and  C_3 
REMARK    4  A    between atoms: N_6  and  C_3 
ROOT
ATOM      1  C   UNL d   1     -41.461-122.368 -52.181  0.00  0.00     0.170 C 
ENDROOT
BRANCH   1   2
ATOM      2  N   UNL d   1     -41.352-122.322 -53.005  0.00  0.00    -0.191 NA
ATOM      3  C   UNL d   1     -42.037-122.163 -53.508  0.00  0.00     0.281 C 
ATOM      4  O   UNL d   1     -42.789-122.057 -53.190  0.00  0.00    -0.265 OA
BRANCH   3   5
ATOM      5  C   UNL d   1     -41.949-122.113 -54.331  0.00  0.00     0.069 A 
ATOM      6  C   UNL d   1     -42.624-122.039 -54.791  0.00  0.00     0.062 A 
ATOM      7 CL   UNL d   1     -43.341-122.007 -54.582  0.00  0.00    -0.082 Cl
ATOM      8  C   UNL d   1     -42.563-121.985 -55.645  0.00  0.00     0.012 A 
ATOM      9  C   UNL d   1     -41.825-122.009 -55.999  0.00  0.00     0.001 A 
ATOM     10  C   UNL d   1     -41.136-122.085 -55.523  0.00  0.00     0.000 A 
ATOM     11  C   UNL d   1     -41.204-122.137 -54.686  0.00  0.00     0.006 A 
ENDBRANCH   3   5
ENDBRANCH   1   2
BRANCH   1  12
ATOM     12  C   UNL d   1     -41.682-123.101 -51.846  0.00  0.00     0.249 C 
ATOM     13 CL   UNL d   1     -41.923-123.789 -51.516  0.00  0.00    -0.075 Cl
ATOM     14 CL   UNL d   1     -41.125-123.802 -51.882  0.00  0.00    -0.075 Cl
ATOM     15 CL   UNL d   1     -42.381-123.110 -51.518  0.00  0.00    -0.075 Cl
ENDBRANCH   1  12
BRANCH   1  16
ATOM     16  N   UNL d   1     -41.355-121.712 -51.704  0.00  0.00    -0.286 N 
ATOM     17  C   UNL d   1     -41.323-120.981 -52.030  0.00  0.00     0.108 A 
ATOM     18  C   UNL d   1     -41.216-120.320 -51.549  0.00  0.00     0.142 A 
ATOM     19  O   UNL d   1     -41.141-120.374 -50.756  0.00  0.00    -0.300 OA
ATOM     20  C   UNL d   1     -41.173-121.137 -50.411  0.00  0.00     0.142 A 
ATOM     21  C   UNL d   1     -41.280-121.798 -50.891  0.00  0.00     0.108 A 
ENDBRANCH   1  16
TORSDOF 4
ENDMDL
