MODEL 1
REMARK VINA RESULT:      -3.2      0.000      0.000
REMARK  2 active torsions:
REMARK  status: ('A' for Active; 'I' for Inactive)
REMARK    1  A    between atoms: C_3  and  C_1 
REMARK       I    between atoms: N_6  and  C_3 
REMARK    2  A    between atoms: C_9  and  N_7 
ROOT
ATOM      1  C   UNL d   1      32.558  17.127 -23.671  0.00  0.00     0.270 C 
ATOM      2  N   UNL d   1      31.793  16.861 -23.750  0.00  0.00    -0.269 N 
ATOM      3  N   UNL d   1      30.211  16.332 -23.914  0.00  0.00    -0.286 N 
ATOM      4  O   UNL d   1      33.188  16.568 -23.626  0.00  0.00    -0.266 OA
ATOM      5  C   UNL d   1      31.166  17.418 -23.795  0.00  0.00     0.102 A 
ATOM      6  C   UNL d   1      31.609  16.048 -23.790  0.00  0.00     0.102 A 
ATOM      7  C   UNL d   1      30.379  17.139 -23.877  0.00  0.00     0.101 A 
ATOM      8  C   UNL d   1      30.838  15.776 -23.870  0.00  0.00     0.101 A 
ENDROOT
BRANCH   1   9
ATOM      9  C   UNL d   1      32.730  17.950 -23.632  0.00  0.00     0.120 A 
ATOM     10  C   UNL d   1      32.907  18.373 -24.344  0.00  0.00     0.305 A 
ATOM     11  O   UNL d   1      33.074  19.174 -24.303  0.00  0.00    -0.273 OA
ATOM     12  O   UNL d   1      32.910  17.968 -25.084  0.00  0.00    -0.259 OA
ATOM     13  C   UNL d   1      33.073  19.576 -23.587  0.00  0.00     0.103 A 
ATOM     14  C   UNL d   1      32.896  19.153 -22.875  0.00  0.00     0.023 A 
ATOM     15  C   UNL d   1      33.241  20.383 -23.542  0.00  0.00     0.025 A 
ATOM     16  C   UNL d   1      32.729  18.350 -22.918  0.00  0.00     0.012 A 
ATOM     17  C   UNL d   1      32.896  19.559 -22.157  0.00  0.00     0.002 A 
ATOM     18  C   UNL d   1      33.062  20.355 -22.118  0.00  0.00     0.000 A 
ATOM     19  C   UNL d   1      33.239  20.778 -22.830  0.00  0.00     0.002 A 
ENDBRANCH   1   9
BRANCH   3  20
ATOM     20  C   UNL d   1      29.437  16.069 -23.995  0.00  0.00     0.148 A 
ATOM     21  N   UNL d   1      29.143  15.865 -24.754  0.00  0.00    -0.227 NA
ATOM     22  C   UNL d   1      28.360  15.597 -24.847  0.00  0.00     0.101 A 
ATOM     23  C   UNL d   1      27.878  15.537 -24.175  0.00  0.00     0.021 A 
ATOM     24  C   UNL d   1      28.172  15.740 -23.416  0.00  0.00     0.005 A 
ATOM     25  C   UNL d   1      28.946  16.004 -23.336  0.00  0.00     0.037 A 
ENDBRANCH   3  20
TORSDOF 2
ENDMDL
MODEL 2
REMARK VINA RESULT:      -2.8      1.348      4.802
REMARK  2 active torsions:
REMARK  status: ('A' for Active; 'I' for Inactive)
REMARK    1  A    between atoms: C_3  and  C_1 
REMARK       I    between atoms: N_6  and  C_3 
REMARK    2  A    between atoms: C_9  and  N_7 
ROOT
ATOM      1  C   UNL d   1      32.219  17.397 -24.232  0.00  0.00     0.270 C 
ATOM      2  N   UNL d   1      32.390  18.083 -23.828  0.00  0.00    -0.269 N 
ATOM      3  N   UNL d   1      32.728  19.491 -22.987  0.00  0.00    -0.286 N 
ATOM      4  O   UNL d   1      32.715  17.157 -24.870  0.00  0.00    -0.266 OA
ATOM      5  C   UNL d   1      31.897  18.321 -23.193  0.00  0.00     0.102 A 
ATOM      6  C   UNL d   1      33.046  18.560 -24.026  0.00  0.00     0.102 A 
ATOM      7  C   UNL d   1      32.077  19.029 -22.780  0.00  0.00     0.101 A 
ATOM      8  C   UNL d   1      33.221  19.253 -23.622  0.00  0.00     0.101 A 
ENDROOT
BRANCH   1   9
ATOM      9  C   UNL d   1      31.556  16.924 -24.022  0.00  0.00     0.120 A 
ATOM     10  C   UNL d   1      31.677  16.185 -23.627  0.00  0.00     0.305 A 
ATOM     11  O   UNL d   1      31.029  15.727 -23.424  0.00  0.00    -0.273 OA
ATOM     12  O   UNL d   1      32.461  15.928 -23.448  0.00  0.00    -0.259 OA
ATOM     13  C   UNL d   1      30.263  15.969 -23.595  0.00  0.00     0.103 A 
ATOM     14  C   UNL d   1      30.141  16.708 -23.989  0.00  0.00     0.023 A 
ATOM     15  C   UNL d   1      29.608  15.510 -23.392  0.00  0.00     0.025 A 
ATOM     16  C   UNL d   1      30.792  17.166 -24.192  0.00  0.00     0.012 A 
ATOM     17  C   UNL d   1      29.371  16.949 -24.159  0.00  0.00     0.002 A 
ATOM     18  C   UNL d   1      28.728  16.493 -23.957  0.00  0.00     0.000 A 
ATOM     19  C   UNL d   1      28.850  15.753 -23.562  0.00  0.00     0.002 A 
ENDBRANCH   1   9
BRANCH   3  20
ATOM     20  C   UNL d   1      32.896  20.183 -22.576  0.00  0.00     0.148 A 
ATOM     21  N   UNL d   1      33.022  20.897 -22.998  0.00  0.00    -0.227 NA
ATOM     22  C   UNL d   1      33.194  21.604 -22.592  0.00  0.00     0.101 A 
ATOM     23  C   UNL d   1      33.238  21.587 -21.764  0.00  0.00     0.021 A 
ATOM     24  C   UNL d   1      33.112  20.873 -21.342  0.00  0.00     0.005 A 
ATOM     25  C   UNL d   1      32.943  20.181 -21.753  0.00  0.00     0.037 A 
ENDBRANCH   3  20
TORSDOF 2
ENDMDL
MODEL 3
REMARK VINA RESULT:      -2.6      3.235      5.139
REMARK  2 active torsions:
REMARK  status: ('A' for Active; 'I' for Inactive)
REMARK    1  A    between atoms: C_3  and  C_1 
REMARK       I    between atoms: N_6  and  C_3 
REMARK    2  A    between atoms: C_9  and  N_7 
ROOT
ATOM      1  C   UNL d   1      32.954  22.390 -22.284  0.00  0.00     0.270 C 
ATOM      2  N   UNL d   1      32.953  21.592 -22.448  0.00  0.00    -0.269 N 
ATOM      3  N   UNL d   1      32.944  19.948 -22.768  0.00  0.00    -0.286 N 
ATOM      4  O   UNL d   1      33.202  22.934 -22.878  0.00  0.00    -0.266 OA
ATOM      5  C   UNL d   1      32.706  21.050 -21.857  0.00  0.00     0.102 A 
ATOM      6  C   UNL d   1      33.191  21.293 -23.190  0.00  0.00     0.102 A 
ATOM      7  C   UNL d   1      32.707  20.229 -22.030  0.00  0.00     0.101 A 
ATOM      8  C   UNL d   1      33.191  20.490 -23.359  0.00  0.00     0.101 A 
ENDROOT
BRANCH   1   9
ATOM      9  C   UNL d   1      32.711  22.678 -21.532  0.00  0.00     0.120 A 
ATOM     10  C   UNL d   1      32.062  23.220 -21.481  0.00  0.00     0.305 A 
ATOM     11  O   UNL d   1      31.829  23.499 -20.748  0.00  0.00    -0.273 OA
ATOM     12  O   UNL d   1      31.665  23.466 -22.184  0.00  0.00    -0.259 OA
ATOM     13  C   UNL d   1      32.210  23.264 -20.059  0.00  0.00     0.103 A 
ATOM     14  C   UNL d   1      32.859  22.722 -20.109  0.00  0.00     0.023 A 
ATOM     15  C   UNL d   1      31.977  23.543 -19.318  0.00  0.00     0.025 A 
ATOM     16  C   UNL d   1      33.091  22.444 -20.846  0.00  0.00     0.012 A 
ATOM     17  C   UNL d   1      33.240  22.489 -19.416  0.00  0.00     0.002 A 
ATOM     18  C   UNL d   1      33.006  22.767 -18.687  0.00  0.00     0.000 A 
ATOM     19  C   UNL d   1      32.357  23.309 -18.637  0.00  0.00     0.002 A 
ENDBRANCH   1   9
BRANCH   3  20
ATOM     20  C   UNL d   1      32.942  19.142 -22.929  0.00  0.00     0.148 A 
ATOM     21  N   UNL d   1      32.634  18.864 -23.658  0.00  0.00    -0.227 NA
ATOM     22  C   UNL d   1      32.626  18.049 -23.832  0.00  0.00     0.101 A 
ATOM     23  C   UNL d   1      32.929  17.520 -23.270  0.00  0.00     0.021 A 
ATOM     24  C   UNL d   1      33.237  17.798 -22.541  0.00  0.00     0.005 A 
ATOM     25  C   UNL d   1      33.240  18.604 -22.380  0.00  0.00     0.037 A 
ENDBRANCH   3  20
TORSDOF 2
ENDMDL
