MODEL 1
REMARK VINA RESULT:      -5.8      0.000      0.000
REMARK  4 active torsions:
REMARK  status: ('A' for Active; 'I' for Inactive)
REMARK    1  A    between atoms: C_2  and  S_1 
REMARK    2  A    between atoms: N_4  and  S_1 
REMARK    3  A    between atoms: C_11  and  N_4 
REMARK    4  A    between atoms: C_9  and  C_11 
ROOT
ATOM      1  S   UNL d   1     -41.675-122.545 -51.669  0.00  0.00     0.285 S 
ATOM      2  O   UNL d   1     -41.319-121.852 -51.395  0.00  0.00    -0.198 OA
ATOM      3  O   UNL d   1     -42.030-123.237 -51.942  0.00  0.00    -0.198 OA
ENDROOT
BRANCH   1   4
ATOM      4  C   UNL d   1     -41.683-122.844 -50.900  0.00  0.00     0.105 A 
ATOM      5  C   UNL d   1     -42.255-122.581 -50.361  0.00  0.00     0.012 A 
ATOM      6  C   UNL d   1     -42.263-122.880 -49.593  0.00  0.00     0.001 A 
ATOM      7  C   UNL d   1     -42.816-122.021 -50.592  0.00  0.00     0.001 C 
ATOM      8  C   UNL d   1     -42.832-122.620 -49.054  0.00  0.00     0.000 C 
ATOM      9  C   UNL d   1     -41.699-123.443 -49.363  0.00  0.00     0.000 A 
ATOM     10  C   UNL d   1     -41.131-123.703 -49.901  0.00  0.00     0.001 A 
ATOM     11  C   UNL d   1     -41.707-123.742 -48.594  0.00  0.00     0.000 C 
ATOM     12  C   UNL d   1     -41.123-123.404 -50.669  0.00  0.00     0.013 A 
ENDBRANCH   1   4
BRANCH   1  13
ATOM     13  N   UNL d   1     -41.666-122.245 -52.438  0.00  0.00    -0.155 NA
BRANCH  13  14
ATOM     14  C   UNL d   1     -41.503-122.749 -53.074  0.00  0.00     0.137 C 
BRANCH  14  15
ATOM     15  C   UNL d   1     -41.656-122.499 -53.846  0.00  0.00     0.120 A 
ATOM     16  O   UNL d   1     -42.098-121.839 -54.059  0.00  0.00    -0.304 OA
ATOM     17  C   UNL d   1     -42.108-121.798 -54.880  0.00  0.00     0.123 A 
ATOM     18  C   UNL d   1     -41.671-122.434 -55.173  0.00  0.00     0.029 A 
ATOM     19  C   UNL d   1     -41.392-122.866 -54.533  0.00  0.00     0.028 A 
ENDBRANCH  14  15
ENDBRANCH  13  14
ENDBRANCH   1  13
TORSDOF 4
ENDMDL
MODEL 2
REMARK VINA RESULT:      -4.5      1.710      4.457
REMARK  4 active torsions:
REMARK  status: ('A' for Active; 'I' for Inactive)
REMARK    1  A    between atoms: C_2  and  S_1 
REMARK    2  A    between atoms: N_4  and  S_1 
REMARK    3  A    between atoms: C_11  and  N_4 
REMARK    4  A    between atoms: C_9  and  C_11 
ROOT
ATOM      1  S   UNL d   1     -41.951-123.071 -50.145  0.00  0.00     0.285 S 
ATOM      2  O   UNL d   1     -42.735-123.236 -50.341  0.00  0.00    -0.198 OA
ATOM      3  O   UNL d   1     -41.166-122.906 -49.948  0.00  0.00    -0.198 OA
ENDROOT
BRANCH   1   4
ATOM      4  C   UNL d   1     -41.748-123.082 -50.944  0.00  0.00     0.105 A 
ATOM      5  C   UNL d   1     -41.748-122.377 -51.380  0.00  0.00     0.012 A 
ATOM      6  C   UNL d   1     -41.545-122.388 -52.179  0.00  0.00     0.001 A 
ATOM      7  C   UNL d   1     -41.950-121.664 -51.016  0.00  0.00     0.001 C 
ATOM      8  C   UNL d   1     -41.545-121.687 -52.615  0.00  0.00     0.000 C 
ATOM      9  C   UNL d   1     -41.343-123.105 -52.544  0.00  0.00     0.000 A 
ATOM     10  C   UNL d   1     -41.343-123.805 -52.108  0.00  0.00     0.001 A 
ATOM     11  C   UNL d   1     -41.140-123.116 -53.343  0.00  0.00     0.000 C 
ATOM     12  C   UNL d   1     -41.546-123.794 -51.309  0.00  0.00     0.013 A 
ENDBRANCH   1   4
BRANCH   1  13
ATOM     13  N   UNL d   1     -42.153-123.060 -49.345  0.00  0.00    -0.155 NA
BRANCH  13  14
ATOM     14  C   UNL d   1     -41.914-123.680 -48.851  0.00  0.00     0.137 C 
BRANCH  14  15
ATOM     15  C   UNL d   1     -42.072-123.645 -48.042  0.00  0.00     0.120 A 
ATOM     16  O   UNL d   1     -42.794-123.812 -47.684  0.00  0.00    -0.304 OA
ATOM     17  C   UNL d   1     -42.703-123.706 -46.874  0.00  0.00     0.123 A 
ATOM     18  C   UNL d   1     -41.925-123.473 -46.732  0.00  0.00     0.029 A 
ATOM     19  C   UNL d   1     -41.536-123.435 -47.455  0.00  0.00     0.028 A 
ENDBRANCH  14  15
ENDBRANCH  13  14
ENDBRANCH   1  13
TORSDOF 4
ENDMDL
MODEL 3
REMARK VINA RESULT:      -3.7      0.849      4.328
REMARK  4 active torsions:
REMARK  status: ('A' for Active; 'I' for Inactive)
REMARK    1  A    between atoms: C_2  and  S_1 
REMARK    2  A    between atoms: N_4  and  S_1 
REMARK    3  A    between atoms: C_11  and  N_4 
REMARK    4  A    between atoms: C_9  and  C_11 
ROOT
ATOM      1  S   UNL d   1     -41.592-122.484 -52.555  0.00  0.00     0.285 S 
ATOM      2  O   UNL d   1     -41.123-121.806 -52.530  0.00  0.00    -0.198 OA
ATOM      3  O   UNL d   1     -42.061-123.162 -52.580  0.00  0.00    -0.198 OA
ENDROOT
BRANCH   1   4
ATOM      4  C   UNL d   1     -41.760-122.338 -53.349  0.00  0.00     0.105 A 
ATOM      5  C   UNL d   1     -41.524-122.883 -53.928  0.00  0.00     0.012 A 
ATOM      6  C   UNL d   1     -41.692-122.738 -54.721  0.00  0.00     0.001 A 
ATOM      7  C   UNL d   1     -41.122-123.571 -53.710  0.00  0.00     0.001 C 
ATOM      8  C   UNL d   1     -41.458-123.279 -55.299  0.00  0.00     0.000 C 
ATOM      9  C   UNL d   1     -42.095-122.046 -54.938  0.00  0.00     0.000 A 
ATOM     10  C   UNL d   1     -42.328-121.505 -54.361  0.00  0.00     0.001 A 
ATOM     11  C   UNL d   1     -42.263-121.901 -55.733  0.00  0.00     0.000 C 
ATOM     12  C   UNL d   1     -42.161-121.651 -53.567  0.00  0.00     0.013 A 
ENDBRANCH   1   4
BRANCH   1  13
ATOM     13  N   UNL d   1     -41.424-122.629 -51.760  0.00  0.00    -0.155 NA
BRANCH  13  14
ATOM     14  C   UNL d   1     -41.879-122.267 -51.170  0.00  0.00     0.137 C 
BRANCH  14  15
ATOM     15  C   UNL d   1     -41.850-122.553 -50.396  0.00  0.00     0.120 A 
ATOM     16  O   UNL d   1     -42.433-122.455 -49.824  0.00  0.00    -0.304 OA
ATOM     17  C   UNL d   1     -42.175-122.826 -49.138  0.00  0.00     0.123 A 
ATOM     18  C   UNL d   1     -41.433-123.153 -49.287  0.00  0.00     0.029 A 
ATOM     19  C   UNL d   1     -41.233-122.983 -50.065  0.00  0.00     0.028 A 
ENDBRANCH  14  15
ENDBRANCH  13  14
ENDBRANCH   1  13
TORSDOF 4
ENDMDL
