MODEL 1
REMARK VINA RESULT:      20.5      0.000      0.000
REMARK  3 active torsions:
REMARK  status: ('A' for Active; 'I' for Inactive)
REMARK    1  A    between atoms: N_3  and  C_1 
REMARK    2  A    between atoms: N_6  and  N_2 
REMARK    3  A    between atoms: S_5  and  N_6 
ROOT
ATOM      1  C   UNL d   1     -50.693  25.771  33.336  0.00  0.00     0.771 A 
ATOM      2  N   UNL d   1     -50.917  24.974  33.326  0.00  0.00    -0.026 N 
ATOM      3  N   UNL d   1     -49.872  25.804  33.350  0.00  0.00     0.048 NA
ATOM      4  C   UNL d   1     -50.235  24.518  33.334  0.00  0.00     0.204 A 
ATOM      5  N   UNL d   1     -49.587  25.030  33.349  0.00  0.00    -0.112 NA
ATOM      6  C   UNL d   1     -50.202  23.697  33.329  0.00  0.00     0.044 C 
ENDROOT
BRANCH   1   7
ATOM      7  N   UNL d   1     -51.213  26.417  33.332  0.00  0.00    -0.056 N 
ATOM      8  N   UNL d   1     -52.039  26.381  33.319  0.00  0.00    -0.150 NA
ATOM      9  C   UNL d   1     -52.328  27.154  33.319  0.00  0.00     0.103 A 
ATOM     10  C   UNL d   1     -53.125  27.378  33.308  0.00  0.00     0.022 C 
ATOM     11  C   UNL d   1     -51.684  27.664  33.333  0.00  0.00     0.041 A 
ATOM     12  C   UNL d   1     -50.994  27.212  33.341  0.00  0.00     0.102 A 
ATOM     13  C   UNL d   1     -50.223  27.505  33.355  0.00  0.00     0.021 C 
ENDBRANCH   1   7
BRANCH   2  14
ATOM     14  N   UNL d   1     -51.692  24.694  33.311  0.00  0.00    -0.059 NA
BRANCH  14  15
ATOM     15  S   UNL d   1     -51.861  23.928  33.595  0.00  0.00     0.282 S 
ATOM     16  O   UNL d   1     -51.148  23.606  33.363  0.00  0.00    -0.201 OA
ATOM     17  O   UNL d   1     -52.581  24.264  33.827  0.00  0.00    -0.201 OA
ATOM     18  C   UNL d   1     -52.099  23.209  33.898  0.00  0.00     0.167 C 
ENDBRANCH  14  15
ENDBRANCH   2  14
TORSDOF 3
ENDMDL
MODEL 2
REMARK VINA RESULT:      21.9      1.521      3.537
REMARK  3 active torsions:
REMARK  status: ('A' for Active; 'I' for Inactive)
REMARK    1  A    between atoms: N_3  and  C_1 
REMARK    2  A    between atoms: N_6  and  N_2 
REMARK    3  A    between atoms: S_5  and  N_6 
ROOT
ATOM      1  C   UNL d   1     -52.478  25.244  33.421  0.00  0.00     0.771 A 
ATOM      2  N   UNL d   1     -52.103  25.980  33.362  0.00  0.00    -0.026 N 
ATOM      3  N   UNL d   1     -53.289  25.375  33.454  0.00  0.00     0.048 NA
ATOM      4  C   UNL d   1     -52.681  26.561  33.358  0.00  0.00     0.204 A 
ATOM      5  N   UNL d   1     -53.416  26.189  33.414  0.00  0.00    -0.112 NA
ATOM      6  C   UNL d   1     -52.552  27.372  33.307  0.00  0.00     0.044 C 
ENDROOT
BRANCH   1   7
ATOM      7  N   UNL d   1     -52.094  24.509  33.443  0.00  0.00    -0.056 N 
ATOM      8  N   UNL d   1     -51.278  24.382  33.460  0.00  0.00    -0.150 NA
ATOM      9  C   UNL d   1     -51.146  23.568  33.479  0.00  0.00     0.103 A 
ATOM     10  C   UNL d   1     -50.409  23.193  33.500  0.00  0.00     0.022 C 
ATOM     11  C   UNL d   1     -51.878  23.194  33.475  0.00  0.00     0.041 A 
ATOM     12  C   UNL d   1     -52.465  23.773  33.453  0.00  0.00     0.102 A 
ATOM     13  C   UNL d   1     -53.279  23.637  33.442  0.00  0.00     0.021 C 
ENDBRANCH   1   7
BRANCH   2  14
ATOM     14  N   UNL d   1     -51.288  26.101  33.316  0.00  0.00    -0.059 NA
BRANCH  14  15
ATOM     15  S   UNL d   1     -50.964  26.832  33.550  0.00  0.00     0.282 S 
ATOM     16  O   UNL d   1     -51.643  27.262  33.406  0.00  0.00    -0.201 OA
ATOM     17  O   UNL d   1     -50.281  26.388  33.694  0.00  0.00    -0.201 OA
ATOM     18  C   UNL d   1     -50.576  27.507  33.796  0.00  0.00     0.167 C 
ENDBRANCH  14  15
ENDBRANCH   2  14
TORSDOF 3
ENDMDL
