MODEL 1
REMARK VINA RESULT:      62.1      0.000      0.000
REMARK  4 active torsions:
REMARK  status: ('A' for Active; 'I' for Inactive)
REMARK    1  A    between atoms: C_2  and  S_1 
REMARK    2  A    between atoms: N_3  and  S_1 
REMARK    3  A    between atoms: C_5  and  C_6 
REMARK       I    between atoms: N_7  and  C_5 
REMARK    4  A    between atoms: C_15  and  N_7 
ROOT
ATOM      1  C   UNL d   1      14.966  14.988  -1.302  0.00  0.00     0.115 A 
ATOM      2  C   UNL d   1      14.808  15.128  -2.109  0.00  0.00     0.019 A 
ATOM      3  C   UNL d   1      14.878  15.890  -2.419  0.00  0.00     0.059 A 
ATOM      4  C   UNL d   1      15.192  15.617  -0.822  0.00  0.00     0.070 A 
ATOM      5  C   UNL d   1      15.106  16.514  -1.924  0.00  0.00     0.006 A 
ATOM      6  C   UNL d   1      15.262  16.379  -1.132  0.00  0.00     0.012 A 
ATOM      7 CL   UNL d   1      15.350  15.477  -0.015  0.00  0.00    -0.082 Cl
ENDROOT
BRANCH   1   8
ATOM      8  S   UNL d   1      14.896  14.227  -0.992  0.00  0.00     0.272 S 
ATOM      9  O   UNL d   1      14.936  14.536  -0.224  0.00  0.00    -0.200 OA
ATOM     10  O   UNL d   1      14.856  13.921  -1.753  0.00  0.00    -0.200 OA
BRANCH   8  11
ATOM     11  N   UNL d   1      14.826  13.470  -0.684  0.00  0.00    -0.229 N 
ATOM     12  C   UNL d   1      14.006  13.244  -0.541  0.00  0.00     0.092 A 
ATOM     13  C   UNL d   1      13.678  12.660  -0.285  0.00  0.00     0.020 A 
ATOM     14  C   UNL d   1      14.063  11.961  -0.029  0.00  0.00     0.002 A 
ATOM     15  C   UNL d   1      14.923  11.804  -0.022  0.00  0.00     0.002 A 
ATOM     16  C   UNL d   1      15.572  12.352  -0.283  0.00  0.00     0.020 A 
ATOM     17  C   UNL d   1      15.468  13.127  -0.587  0.00  0.00     0.092 A 
ENDBRANCH   8  11
ENDBRANCH   1   8
BRANCH   3  18
ATOM     18  C   UNL d   1      14.723  16.033  -3.215  0.00  0.00     0.279 C 
ATOM     19  N   UNL d   1      14.231  15.532  -3.640  0.00  0.00    -0.206 NA
ATOM     20  O   UNL d   1      15.065  16.686  -3.587  0.00  0.00    -0.265 OA
BRANCH  19  21
ATOM     21  C   UNL d   1      14.074  15.673  -4.438  0.00  0.00     0.104 A 
ATOM     22  C   UNL d   1      14.652  15.987  -4.915  0.00  0.00     0.118 A 
ATOM     23  N   UNL d   1      14.492  16.126  -5.711  0.00  0.00    -0.241 NA
ATOM     24  C   UNL d   1      13.743  15.945  -6.019  0.00  0.00     0.099 A 
ATOM     25  C   UNL d   1      13.162  15.628  -5.533  0.00  0.00     0.022 A 
ATOM     26  C   UNL d   1      13.325  15.488  -4.729  0.00  0.00     0.022 A 
ENDBRANCH  19  21
ENDBRANCH   3  18
TORSDOF 4
ENDMDL
MODEL 2
REMARK VINA RESULT:      62.9      2.071      3.728
REMARK  4 active torsions:
REMARK  status: ('A' for Active; 'I' for Inactive)
REMARK    1  A    between atoms: C_2  and  S_1 
REMARK    2  A    between atoms: N_3  and  S_1 
REMARK    3  A    between atoms: C_5  and  C_6 
REMARK       I    between atoms: N_7  and  C_5 
REMARK    4  A    between atoms: C_15  and  N_7 
ROOT
ATOM      1  C   UNL d   1      15.285  14.902  -0.991  0.00  0.00     0.115 A 
ATOM      2  C   UNL d   1      14.782  14.428  -1.458  0.00  0.00     0.019 A 
ATOM      3  C   UNL d   1      14.824  13.605  -1.408  0.00  0.00     0.059 A 
ATOM      4  C   UNL d   1      15.821  14.539  -0.481  0.00  0.00     0.070 A 
ATOM      5  C   UNL d   1      15.368  13.253  -0.891  0.00  0.00     0.006 A 
ATOM      6  C   UNL d   1      15.862  13.717  -0.432  0.00  0.00     0.012 A 
ATOM      7 CL   UNL d   1      16.324  15.013  -0.014  0.00  0.00    -0.082 Cl
ENDROOT
BRANCH   1   8
ATOM      8  S   UNL d   1      15.244  15.724  -1.041  0.00  0.00     0.272 S 
ATOM      9  O   UNL d   1      15.320  15.778  -0.217  0.00  0.00    -0.200 OA
ATOM     10  O   UNL d   1      15.168  15.671  -1.856  0.00  0.00    -0.200 OA
BRANCH   8  11
ATOM     11  N   UNL d   1      15.203  16.542  -1.090  0.00  0.00    -0.229 N 
ATOM     12  C   UNL d   1      15.178  16.824  -1.905  0.00  0.00     0.092 A 
ATOM     13  C   UNL d   1      15.142  17.468  -2.217  0.00  0.00     0.020 A 
ATOM     14  C   UNL d   1      15.111  18.202  -1.814  0.00  0.00     0.002 A 
ATOM     15  C   UNL d   1      15.116  18.329  -0.949  0.00  0.00     0.002 A 
ATOM     16  C   UNL d   1      15.155  17.709  -0.314  0.00  0.00     0.020 A 
ATOM     17  C   UNL d   1      15.195  16.881  -0.438  0.00  0.00     0.092 A 
ENDBRANCH   8  11
ENDBRANCH   1   8
BRANCH   3  18
ATOM     18  C   UNL d   1      14.329  13.133  -1.867  0.00  0.00     0.279 C 
ATOM     19  N   UNL d   1      14.305  13.225  -2.682  0.00  0.00    -0.206 NA
ATOM     20  O   UNL d   1      13.854  12.564  -1.504  0.00  0.00    -0.265 OA
BRANCH  19  21
ATOM     21  C   UNL d   1      13.811  12.753  -3.145  0.00  0.00     0.104 A 
ATOM     22  C   UNL d   1      13.265  12.267  -2.789  0.00  0.00     0.118 A 
ATOM     23  N   UNL d   1      12.774  11.798  -3.253  0.00  0.00    -0.241 NA
ATOM     24  C   UNL d   1      12.838  11.825  -4.079  0.00  0.00     0.099 A 
ATOM     25  C   UNL d   1      13.390  12.317  -4.435  0.00  0.00     0.022 A 
ATOM     26  C   UNL d   1      13.887  12.791  -3.965  0.00  0.00     0.022 A 
ENDBRANCH  19  21
ENDBRANCH   3  18
TORSDOF 4
ENDMDL
