MODEL 1
REMARK VINA RESULT:      -6.4      0.000      0.000
REMARK  6 active torsions:
REMARK  status: ('A' for Active; 'I' for Inactive)
REMARK    1  A    between atoms: C_3  and  C_1 
REMARK    2  A    between atoms: C_4  and  N_2 
REMARK       I    between atoms: N_14  and  C_3 
REMARK    3  A    between atoms: N_5  and  C_19 
REMARK    4  A    between atoms: O_18  and  C_13 
REMARK    5  A    between atoms: C_17  and  N_14 
REMARK    6  A    between atoms: C_19  and  C_17 
ROOT
ATOM      1  N   UNL d   1     -48.653  14.142  22.972  0.00  0.00    -0.300 N 
ATOM      2  N   UNL d   1     -47.184  13.437  23.228  0.00  0.00    -0.299 N 
ATOM      3  C   UNL d   1     -48.608  13.456  23.436  0.00  0.00     0.100 A 
ATOM      4  C   UNL d   1     -47.973  14.476  22.638  0.00  0.00     0.100 A 
ATOM      5  C   UNL d   1     -47.863  13.104  23.562  0.00  0.00     0.100 A 
ATOM      6  C   UNL d   1     -47.245  14.121  22.768  0.00  0.00     0.100 A 
ENDROOT
BRANCH   2   7
ATOM      7  C   UNL d   1     -46.456  13.083  23.358  0.00  0.00     0.101 C 
BRANCH   7   8
ATOM      8  C   UNL d   1     -46.355  12.277  23.260  0.00  0.00     0.121 C 
BRANCH   8   9
ATOM      9  N   UNL d   1     -45.622  11.934  23.332  0.00  0.00    -0.205 NA
ATOM     10  C   UNL d   1     -45.549  11.112  23.301  0.00  0.00     0.280 C 
ATOM     11  O   UNL d   1     -46.213  10.644  23.198  0.00  0.00    -0.265 OA
BRANCH  10  12
ATOM     12  C   UNL d   1     -44.805  10.764  23.375  0.00  0.00     0.065 A 
ATOM     13  C   UNL d   1     -44.649  10.017  23.698  0.00  0.00     0.040 A 
ATOM     14  S   UNL d   1     -43.833   9.897  23.659  0.00  0.00    -0.086 SA
ATOM     15  C   UNL d   1     -43.495  10.549  23.322  0.00  0.00     0.036 A 
ATOM     16  C   UNL d   1     -44.096  11.092  23.144  0.00  0.00     0.012 A 
ENDBRANCH  10  12
ENDBRANCH   8   9
ENDBRANCH   7   8
ENDBRANCH   2   7
BRANCH   1  17
ATOM     17  C   UNL d   1     -49.391  14.490  22.848  0.00  0.00     0.086 A 
ATOM     18  C   UNL d   1     -49.901  14.199  22.264  0.00  0.00     0.110 A 
ATOM     19  C   UNL d   1     -50.632  14.553  22.150  0.00  0.00     0.026 A 
ATOM     20  C   UNL d   1     -50.866  15.196  22.610  0.00  0.00     0.002 A 
ATOM     21  C   UNL d   1     -50.356  15.488  23.195  0.00  0.00     0.002 A 
ATOM     22  C   UNL d   1     -49.622  15.141  23.318  0.00  0.00     0.019 A 
BRANCH  18  23
ATOM     23  O   UNL d   1     -49.678  13.560  21.802  0.00  0.00    -0.327 OA
ATOM     24  C   UNL d   1     -50.246  13.019  21.532  0.00  0.00     0.181 C 
ENDBRANCH  18  23
ENDBRANCH   1  17
TORSDOF 6
ENDMDL
MODEL 2
REMARK VINA RESULT:      -5.8      1.617      1.869
REMARK  6 active torsions:
REMARK  status: ('A' for Active; 'I' for Inactive)
REMARK    1  A    between atoms: C_3  and  C_1 
REMARK    2  A    between atoms: C_4  and  N_2 
REMARK       I    between atoms: N_14  and  C_3 
REMARK    3  A    between atoms: N_5  and  C_19 
REMARK    4  A    between atoms: O_18  and  C_13 
REMARK    5  A    between atoms: C_17  and  N_14 
REMARK    6  A    between atoms: C_19  and  C_17 
ROOT
ATOM      1  N   UNL d   1     -48.669  14.518  22.927  0.00  0.00    -0.300 N 
ATOM      2  N   UNL d   1     -47.074  14.102  22.941  0.00  0.00    -0.299 N 
ATOM      3  C   UNL d   1     -48.115  15.029  22.581  0.00  0.00     0.100 A 
ATOM      4  C   UNL d   1     -48.433  13.807  23.277  0.00  0.00     0.100 A 
ATOM      5  C   UNL d   1     -47.310  14.814  22.591  0.00  0.00     0.100 A 
ATOM      6  C   UNL d   1     -47.638  13.605  23.281  0.00  0.00     0.100 A 
ENDROOT
BRANCH   2   7
ATOM      7  C   UNL d   1     -46.279  13.900  22.945  0.00  0.00     0.101 C 
BRANCH   7   8
ATOM      8  C   UNL d   1     -45.943  13.493  22.320  0.00  0.00     0.121 C 
BRANCH   8   9
ATOM      9  N   UNL d   1     -45.140  13.380  22.276  0.00  0.00    -0.205 NA
ATOM     10  C   UNL d   1     -44.824  12.914  21.671  0.00  0.00     0.280 C 
ATOM     11  O   UNL d   1     -45.318  12.568  21.118  0.00  0.00    -0.265 OA
BRANCH  10  12
ATOM     12  C   UNL d   1     -44.009  12.799  21.627  0.00  0.00     0.065 A 
ATOM     13  C   UNL d   1     -43.479  13.251  21.179  0.00  0.00     0.040 A 
ATOM     14  S   UNL d   1     -42.724  12.940  21.300  0.00  0.00    -0.086 SA
ATOM     15  C   UNL d   1     -42.785  12.314  21.807  0.00  0.00     0.036 A 
ATOM     16  C   UNL d   1     -43.584  12.222  22.014  0.00  0.00     0.012 A 
ENDBRANCH  10  12
ENDBRANCH   8   9
ENDBRANCH   7   8
ENDBRANCH   2   7
BRANCH   1  17
ATOM     17  C   UNL d   1     -49.466  14.732  22.917  0.00  0.00     0.086 A 
ATOM     18  C   UNL d   1     -49.983  14.406  22.358  0.00  0.00     0.110 A 
ATOM     19  C   UNL d   1     -50.773  14.627  22.358  0.00  0.00     0.026 A 
ATOM     20  C   UNL d   1     -51.060  15.170  22.908  0.00  0.00     0.002 A 
ATOM     21  C   UNL d   1     -50.543  15.496  23.468  0.00  0.00     0.002 A 
ATOM     22  C   UNL d   1     -49.750  15.283  23.478  0.00  0.00     0.019 A 
BRANCH  18  23
ATOM     23  O   UNL d   1     -49.708  13.866  21.807  0.00  0.00    -0.327 OA
ATOM     24  C   UNL d   1     -50.236  13.492  21.288  0.00  0.00     0.181 C 
ENDBRANCH  18  23
ENDBRANCH   1  17
TORSDOF 6
ENDMDL
MODEL 3
REMARK VINA RESULT:      -4.8      8.355      9.011
REMARK  6 active torsions:
REMARK  status: ('A' for Active; 'I' for Inactive)
REMARK    1  A    between atoms: C_3  and  C_1 
REMARK    2  A    between atoms: C_4  and  N_2 
REMARK       I    between atoms: N_14  and  C_3 
REMARK    3  A    between atoms: N_5  and  C_19 
REMARK    4  A    between atoms: O_18  and  C_13 
REMARK    5  A    between atoms: C_17  and  N_14 
REMARK    6  A    between atoms: C_19  and  C_17 
ROOT
ATOM      1  N   UNL d   1     -40.879  15.311  18.059  0.00  0.00    -0.300 N 
ATOM      2  N   UNL d   1     -40.557  14.967  19.639  0.00  0.00    -0.299 N 
ATOM      3  C   UNL d   1     -40.516  15.887  18.532  0.00  0.00     0.100 A 
ATOM      4  C   UNL d   1     -41.081  14.570  18.368  0.00  0.00     0.100 A 
ATOM      5  C   UNL d   1     -40.356  15.708  19.330  0.00  0.00     0.100 A 
ATOM      6  C   UNL d   1     -40.918  14.405  19.154  0.00  0.00     0.100 A 
ENDROOT
BRANCH   2   7
ATOM      7  C   UNL d   1     -40.394  14.802  20.426  0.00  0.00     0.101 C 
BRANCH   7   8
ATOM      8  C   UNL d   1     -39.654  14.544  20.659  0.00  0.00     0.121 C 
BRANCH   8   9
ATOM      9  N   UNL d   1     -39.472  14.446  21.444  0.00  0.00    -0.205 NA
ATOM     10  C   UNL d   1     -38.850  13.949  21.662  0.00  0.00     0.280 C 
ATOM     11  O   UNL d   1     -38.418  13.555  21.089  0.00  0.00    -0.265 OA
BRANCH  10  12
ATOM     12  C   UNL d   1     -38.665  13.849  22.460  0.00  0.00     0.065 A 
ATOM     13  C   UNL d   1     -38.303  14.414  22.948  0.00  0.00     0.040 A 
ATOM     14  S   UNL d   1     -38.226  14.078  23.698  0.00  0.00    -0.086 SA
ATOM     15  C   UNL d   1     -38.529  13.329  23.675  0.00  0.00     0.036 A 
ATOM     16  C   UNL d   1     -38.804  13.182  22.906  0.00  0.00     0.012 A 
ENDBRANCH  10  12
ENDBRANCH   8   9
ENDBRANCH   7   8
ENDBRANCH   2   7
BRANCH   1  17
ATOM     17  C   UNL d   1     -41.038  15.489  17.269  0.00  0.00     0.086 A 
ATOM     18  C   UNL d   1     -40.446  15.417  16.694  0.00  0.00     0.110 A 
ATOM     19  C   UNL d   1     -40.616  15.598  15.912  0.00  0.00     0.026 A 
ATOM     20  C   UNL d   1     -41.369  15.850  15.690  0.00  0.00     0.002 A 
ATOM     21  C   UNL d   1     -41.962  15.922  16.265  0.00  0.00     0.002 A 
ATOM     22  C   UNL d   1     -41.803  15.744  17.051  0.00  0.00     0.019 A 
BRANCH  18  23
ATOM     23  O   UNL d   1     -39.694  15.168  16.903  0.00  0.00    -0.327 OA
ATOM     24  C   UNL d   1     -39.095  15.119  16.332  0.00  0.00     0.181 C 
ENDBRANCH  18  23
ENDBRANCH   1  17
TORSDOF 6
ENDMDL
MODEL 4
REMARK VINA RESULT:      -4.6      8.852     10.423
REMARK  6 active torsions:
REMARK  status: ('A' for Active; 'I' for Inactive)
REMARK    1  A    between atoms: C_3  and  C_1 
REMARK    2  A    between atoms: C_4  and  N_2 
REMARK       I    between atoms: N_14  and  C_3 
REMARK    3  A    between atoms: N_5  and  C_19 
REMARK    4  A    between atoms: O_18  and  C_13 
REMARK    5  A    between atoms: C_17  and  N_14 
REMARK    6  A    between atoms: C_19  and  C_17 
ROOT
ATOM      1  N   UNL d   1     -38.704  14.518  17.656  0.00  0.00    -0.300 N 
ATOM      2  N   UNL d   1     -39.221  15.006  19.144  0.00  0.00    -0.299 N 
ATOM      3  C   UNL d   1     -39.510  14.460  17.844  0.00  0.00     0.100 A 
ATOM      4  C   UNL d   1     -38.160  14.817  18.204  0.00  0.00     0.100 A 
ATOM      5  C   UNL d   1     -39.766  14.708  18.597  0.00  0.00     0.100 A 
ATOM      6  C   UNL d   1     -38.423  15.058  18.942  0.00  0.00     0.100 A 
ENDROOT
BRANCH   2   7
ATOM      7  C   UNL d   1     -39.484  15.248  19.883  0.00  0.00     0.101 C 
BRANCH   7   8
ATOM      8  C   UNL d   1     -39.534  14.721  20.507  0.00  0.00     0.121 C 
BRANCH   8   9
ATOM      9  N   UNL d   1     -39.147  14.862  21.207  0.00  0.00    -0.205 NA
ATOM     10  C   UNL d   1     -39.336  14.417  21.876  0.00  0.00     0.280 C 
ATOM     11  O   UNL d   1     -39.910  13.836  21.835  0.00  0.00    -0.265 OA
BRANCH  10  12
ATOM     12  C   UNL d   1     -38.943  14.560  22.588  0.00  0.00     0.065 A 
ATOM     13  C   UNL d   1     -38.894  15.291  22.976  0.00  0.00     0.040 A 
ATOM     14  S   UNL d   1     -38.450  15.176  23.663  0.00  0.00    -0.086 SA
ATOM     15  C   UNL d   1     -38.231  14.399  23.698  0.00  0.00     0.036 A 
ATOM     16  C   UNL d   1     -38.536  14.011  23.030  0.00  0.00     0.012 A 
ENDBRANCH  10  12
ENDBRANCH   8   9
ENDBRANCH   7   8
ENDBRANCH   2   7
BRANCH   1  17
ATOM     17  C   UNL d   1     -38.452  14.272  16.910  0.00  0.00     0.086 A 
ATOM     18  C   UNL d   1     -38.193  13.495  16.788  0.00  0.00     0.110 A 
ATOM     19  C   UNL d   1     -37.944  13.263  16.042  0.00  0.00     0.026 A 
ATOM     20  C   UNL d   1     -37.950  13.793  15.410  0.00  0.00     0.002 A 
ATOM     21  C   UNL d   1     -38.209  14.571  15.532  0.00  0.00     0.002 A 
ATOM     22  C   UNL d   1     -38.460  14.815  16.275  0.00  0.00     0.019 A 
BRANCH  18  23
ATOM     23  O   UNL d   1     -38.183  12.960  17.409  0.00  0.00    -0.327 OA
ATOM     24  C   UNL d   1     -37.940  12.178  17.283  0.00  0.00     0.181 C 
ENDBRANCH  18  23
ENDBRANCH   1  17
TORSDOF 6
ENDMDL
MODEL 5
REMARK VINA RESULT:      -3.6      4.451      7.017
REMARK  6 active torsions:
REMARK  status: ('A' for Active; 'I' for Inactive)
REMARK    1  A    between atoms: C_3  and  C_1 
REMARK    2  A    between atoms: C_4  and  N_2 
REMARK       I    between atoms: N_14  and  C_3 
REMARK    3  A    between atoms: N_5  and  C_19 
REMARK    4  A    between atoms: O_18  and  C_13 
REMARK    5  A    between atoms: C_17  and  N_14 
REMARK    6  A    between atoms: C_19  and  C_17 
ROOT
ATOM      1  N   UNL d   1     -41.431  14.030  20.956  0.00  0.00    -0.300 N 
ATOM      2  N   UNL d   1     -42.889  13.312  21.241  0.00  0.00    -0.299 N 
ATOM      3  C   UNL d   1     -42.123  14.484  20.902  0.00  0.00     0.100 A 
ATOM      4  C   UNL d   1     -41.463  13.226  21.150  0.00  0.00     0.100 A 
ATOM      5  C   UNL d   1     -42.857  14.116  21.047  0.00  0.00     0.100 A 
ATOM      6  C   UNL d   1     -42.191  12.874  21.290  0.00  0.00     0.100 A 
ENDROOT
BRANCH   2   7
ATOM      7  C   UNL d   1     -43.616  12.961  21.381  0.00  0.00     0.101 C 
BRANCH   7   8
ATOM      8  C   UNL d   1     -44.209  13.360  21.780  0.00  0.00     0.121 C 
BRANCH   8   9
ATOM      9  N   UNL d   1     -44.885  12.979  22.018  0.00  0.00    -0.205 NA
ATOM     10  C   UNL d   1     -45.477  13.400  22.410  0.00  0.00     0.280 C 
ATOM     11  O   UNL d   1     -45.383  14.200  22.557  0.00  0.00    -0.265 OA
BRANCH  10  12
ATOM     12  C   UNL d   1     -46.164  13.013  22.652  0.00  0.00     0.065 A 
ATOM     13  C   UNL d   1     -46.216  12.453  23.261  0.00  0.00     0.040 A 
ATOM     14  S   UNL d   1     -47.005  12.214  23.309  0.00  0.00    -0.086 SA
ATOM     15  C   UNL d   1     -47.428  12.614  22.748  0.00  0.00     0.036 A 
ATOM     16  C   UNL d   1     -46.908  13.113  22.336  0.00  0.00     0.012 A 
ENDBRANCH  10  12
ENDBRANCH   8   9
ENDBRANCH   7   8
ENDBRANCH   2   7
BRANCH   1  17
ATOM     17  C   UNL d   1     -40.706  14.395  20.812  0.00  0.00     0.086 A 
ATOM     18  C   UNL d   1     -40.413  14.461  20.040  0.00  0.00     0.110 A 
ATOM     19  C   UNL d   1     -39.690  14.826  19.910  0.00  0.00     0.026 A 
ATOM     20  C   UNL d   1     -39.250  15.128  20.538  0.00  0.00     0.002 A 
ATOM     21  C   UNL d   1     -39.542  15.061  21.312  0.00  0.00     0.002 A 
ATOM     22  C   UNL d   1     -40.265  14.698  21.454  0.00  0.00     0.019 A 
BRANCH  18  23
ATOM     23  O   UNL d   1     -40.842  14.165  19.409  0.00  0.00    -0.327 OA
ATOM     24  C   UNL d   1     -40.562  14.254  18.633  0.00  0.00     0.181 C 
ENDBRANCH  18  23
ENDBRANCH   1  17
TORSDOF 6
ENDMDL
MODEL 6
REMARK VINA RESULT:      -3.6      5.954      8.035
REMARK  6 active torsions:
REMARK  status: ('A' for Active; 'I' for Inactive)
REMARK    1  A    between atoms: C_3  and  C_1 
REMARK    2  A    between atoms: C_4  and  N_2 
REMARK       I    between atoms: N_14  and  C_3 
REMARK    3  A    between atoms: N_5  and  C_19 
REMARK    4  A    between atoms: O_18  and  C_13 
REMARK    5  A    between atoms: C_17  and  N_14 
REMARK    6  A    between atoms: C_19  and  C_17 
ROOT
ATOM      1  N   UNL d   1     -40.257  15.028  19.642  0.00  0.00    -0.300 N 
ATOM      2  N   UNL d   1     -41.314  14.448  20.767  0.00  0.00    -0.299 N 
ATOM      3  C   UNL d   1     -40.749  15.559  20.047  0.00  0.00     0.100 A 
ATOM      4  C   UNL d   1     -40.289  14.215  19.795  0.00  0.00     0.100 A 
ATOM      5  C   UNL d   1     -41.281  15.260  20.614  0.00  0.00     0.100 A 
ATOM      6  C   UNL d   1     -40.817  13.932  20.355  0.00  0.00     0.100 A 
ENDROOT
BRANCH   2   7
ATOM      7  C   UNL d   1     -41.841  14.165  21.327  0.00  0.00     0.101 C 
BRANCH   7   8
ATOM      8  C   UNL d   1     -42.392  13.590  21.138  0.00  0.00     0.121 C 
BRANCH   8   9
ATOM      9  N   UNL d   1     -43.139  13.603  21.457  0.00  0.00    -0.205 NA
ATOM     10  C   UNL d   1     -43.546  12.894  21.576  0.00  0.00     0.280 C 
ATOM     11  O   UNL d   1     -43.198  12.182  21.373  0.00  0.00    -0.265 OA
BRANCH  10  12
ATOM     12  C   UNL d   1     -44.304  12.907  21.900  0.00  0.00     0.065 A 
ATOM     13  C   UNL d   1     -44.857  13.519  21.816  0.00  0.00     0.040 A 
ATOM     14  S   UNL d   1     -45.536  13.297  22.230  0.00  0.00    -0.086 SA
ATOM     15  C   UNL d   1     -45.407  12.570  22.560  0.00  0.00     0.036 A 
ATOM     16  C   UNL d   1     -44.641  12.323  22.357  0.00  0.00     0.012 A 
ENDBRANCH  10  12
ENDBRANCH   8   9
ENDBRANCH   7   8
ENDBRANCH   2   7
BRANCH   1  17
ATOM     17  C   UNL d   1     -39.730  15.325  19.080  0.00  0.00     0.086 A 
ATOM     18  C   UNL d   1     -39.951  15.382  18.284  0.00  0.00     0.110 A 
ATOM     19  C   UNL d   1     -39.419  15.679  17.735  0.00  0.00     0.026 A 
ATOM     20  C   UNL d   1     -38.665  15.921  17.966  0.00  0.00     0.002 A 
ATOM     21  C   UNL d   1     -38.443  15.864  18.763  0.00  0.00     0.002 A 
ATOM     22  C   UNL d   1     -38.968  15.568  19.321  0.00  0.00     0.019 A 
BRANCH  18  23
ATOM     23  O   UNL d   1     -40.698  15.145  18.045  0.00  0.00    -0.327 OA
ATOM     24  C   UNL d   1     -40.913  15.184  17.244  0.00  0.00     0.181 C 
ENDBRANCH  18  23
ENDBRANCH   1  17
TORSDOF 6
ENDMDL
