MODEL 1
REMARK VINA RESULT:      -3.7      0.000      0.000
REMARK  5 active torsions:
REMARK  status: ('A' for Active; 'I' for Inactive)
REMARK    1  A    between atoms: C_8  and  C_1 
REMARK    2  A    between atoms: C_7  and  O_11 
REMARK    3  A    between atoms: C_9  and  C_7 
REMARK    4  A    between atoms: O_11  and  C_15 
REMARK    5  A    between atoms: O_23  and  C_18 
ROOT
ATOM      1  C   UNL d   1      56.196  -0.559  32.659  0.00  0.00     0.064 A 
ATOM      2  C   UNL d   1      56.561  -0.142  32.045  0.00  0.00     0.199 A 
ATOM      3  C   UNL d   1      56.239  -1.383  32.680  0.00  0.00     0.103 A 
ATOM      4  C   UNL d   1      56.966  -0.550  31.456  0.00  0.00     0.062 A 
ATOM      5  C   UNL d   1      57.009  -1.373  31.476  0.00  0.00     0.105 A 
ATOM      6  O   UNL d   1      56.646  -1.789  32.086  0.00  0.00    -0.307 OA
ATOM      7  C   UNL d   1      57.414  -1.780  30.886  0.00  0.00     0.050 A 
ATOM      8  C   UNL d   1      57.329  -0.132  30.844  0.00  0.00     0.007 A 
ATOM      9  O   UNL d   1      56.519   0.682  32.024  0.00  0.00    -0.286 OA
ATOM     10  C   UNL d   1      57.780  -1.356  30.269  0.00  0.00     0.105 A 
ATOM     11  C   UNL d   1      57.738  -0.540  30.248  0.00  0.00     0.025 A 
ATOM     12  C   UNL d   1      55.876  -1.799  33.291  0.00  0.00     0.027 C 
ENDROOT
BRANCH   1  13
ATOM     13  C   UNL d   1      55.790  -0.143  33.249  0.00  0.00     0.027 A 
ATOM     14  C   UNL d   1      56.204   0.255  33.842  0.00  0.00     0.094 A 
ATOM     15  C   UNL d   1      55.794   0.666  34.425  0.00  0.00     0.024 A 
ATOM     16  C   UNL d   1      54.964   0.682  34.420  0.00  0.00     0.002 A 
ATOM     17  C   UNL d   1      54.547   0.279  33.822  0.00  0.00     0.000 A 
ATOM     18  C   UNL d   1      54.956  -0.132  33.238  0.00  0.00     0.002 A 
BRANCH  14  19
ATOM     19  O   UNL d   1      57.023   0.238  33.844  0.00  0.00    -0.328 OA
ATOM     20  C   UNL d   1      57.436   0.599  34.461  0.00  0.00     0.181 C 
ENDBRANCH  14  19
ENDBRANCH   1  13
BRANCH  10  21
ATOM     21  O   UNL d   1      58.188  -1.770  29.675  0.00  0.00    -0.271 OA
BRANCH  21  22
ATOM     22  C   UNL d   1      58.966  -1.554  29.495  0.00  0.00     0.323 C 
ATOM     23  O   UNL d   1      59.245  -0.799  29.680  0.00  0.00    -0.257 OA
BRANCH  22  24
ATOM     24  C   UNL d   1      59.470  -2.101  29.127  0.00  0.00     0.163 A 
ATOM     25  O   UNL d   1      59.269  -2.870  28.909  0.00  0.00    -0.300 OA
ATOM     26  C   UNL d   1      59.935  -3.214  28.562  0.00  0.00     0.123 A 
ATOM     27  C   UNL d   1      60.544  -2.662  28.564  0.00  0.00     0.029 A 
ATOM     28  C   UNL d   1      60.257  -1.968  28.916  0.00  0.00     0.032 A 
ENDBRANCH  22  24
ENDBRANCH  21  22
ENDBRANCH  10  21
TORSDOF 5
ENDMDL
MODEL 2
REMARK VINA RESULT:      -1.5      1.357      1.960
REMARK  5 active torsions:
REMARK  status: ('A' for Active; 'I' for Inactive)
REMARK    1  A    between atoms: C_8  and  C_1 
REMARK    2  A    between atoms: C_7  and  O_11 
REMARK    3  A    between atoms: C_9  and  C_7 
REMARK    4  A    between atoms: O_11  and  C_15 
REMARK    5  A    between atoms: O_23  and  C_18 
ROOT
ATOM      1  C   UNL d   1      56.515   0.205  32.780  0.00  0.00     0.064 A 
ATOM      2  C   UNL d   1      56.497   0.045  31.968  0.00  0.00     0.199 A 
ATOM      3  C   UNL d   1      57.194   0.523  33.122  0.00  0.00     0.103 A 
ATOM      4  C   UNL d   1      57.158   0.204  31.504  0.00  0.00     0.062 A 
ATOM      5  C   UNL d   1      57.838   0.522  31.846  0.00  0.00     0.105 A 
ATOM      6  O   UNL d   1      57.857   0.681  32.653  0.00  0.00    -0.307 OA
ATOM      7  C   UNL d   1      58.498   0.680  31.381  0.00  0.00     0.050 A 
ATOM      8  C   UNL d   1      57.139   0.044  30.696  0.00  0.00     0.007 A 
ATOM      9  O   UNL d   1      55.818  -0.273  31.625  0.00  0.00    -0.286 OA
ATOM     10  C   UNL d   1      58.477   0.518  30.564  0.00  0.00     0.105 A 
ATOM     11  C   UNL d   1      57.804   0.203  30.224  0.00  0.00     0.025 A 
ATOM     12  C   UNL d   1      57.213   0.682  33.930  0.00  0.00     0.027 C 
ENDROOT
BRANCH   1  13
ATOM     13  C   UNL d   1      55.847   0.043  33.241  0.00  0.00     0.027 A 
ATOM     14  C   UNL d   1      55.658  -0.733  33.448  0.00  0.00     0.094 A 
ATOM     15  C   UNL d   1      54.993  -0.887  33.907  0.00  0.00     0.024 A 
ATOM     16  C   UNL d   1      54.509  -0.263  34.164  0.00  0.00     0.002 A 
ATOM     17  C   UNL d   1      54.700   0.521  33.955  0.00  0.00     0.000 A 
ATOM     18  C   UNL d   1      55.365   0.675  33.496  0.00  0.00     0.002 A 
BRANCH  14  19
ATOM     19  O   UNL d   1      56.137  -1.347  33.193  0.00  0.00    -0.328 OA
ATOM     20  C   UNL d   1      55.881  -2.127  33.282  0.00  0.00     0.181 C 
ENDBRANCH  14  19
ENDBRANCH   1  13
BRANCH  10  21
ATOM     21  O   UNL d   1      59.146   0.680  30.098  0.00  0.00    -0.271 OA
BRANCH  21  22
ATOM     22  C   UNL d   1      59.844   0.258  30.236  0.00  0.00     0.323 C 
ATOM     23  O   UNL d   1      60.103   0.115  31.007  0.00  0.00    -0.257 OA
BRANCH  22  24
ATOM     24  C   UNL d   1      60.287  -0.025  29.594  0.00  0.00     0.163 A 
ATOM     25  O   UNL d   1      60.273  -0.795  29.301  0.00  0.00    -0.300 OA
ATOM     26  C   UNL d   1      60.797  -0.829  28.663  0.00  0.00     0.123 A 
ATOM     27  C   UNL d   1      61.133  -0.086  28.562  0.00  0.00     0.029 A 
ATOM     28  C   UNL d   1      60.818   0.417  29.140  0.00  0.00     0.032 A 
ENDBRANCH  22  24
ENDBRANCH  21  22
ENDBRANCH  10  21
TORSDOF 5
ENDMDL
