MODEL 1
REMARK VINA RESULT:      -3.3      0.000      0.000
REMARK  6 active torsions:
REMARK  status: ('A' for Active; 'I' for Inactive)
REMARK    1  A    between atoms: N_3  and  C_1 
REMARK       I    between atoms: C_7  and  N_3 
REMARK    2  A    between atoms: S_14  and  C_4 
REMARK    3  A    between atoms: C_8  and  C_7 
REMARK    4  A    between atoms: C_11  and  N_13 
REMARK    5  A    between atoms: C_12  and  C_21 
REMARK       I    between atoms: N_13  and  C_12 
REMARK    6  A    between atoms: C_21  and  S_14 
ROOT
ATOM      1  S   UNL d   1      32.826  17.564 -23.220  0.00  0.00    -0.054 SA
ENDROOT
BRANCH   1   2
ATOM      2  C   UNL d   1      32.928  18.375 -23.203  0.00  0.00     0.165 A 
ATOM      3  S   UNL d   1      32.796  18.770 -22.529  0.00  0.00    -0.019 SA
ATOM      4  C   UNL d   1      32.921  19.582 -22.598  0.00  0.00     0.219 A 
ATOM      5  N   UNL d   1      33.142  19.633 -23.386  0.00  0.00    -0.120 NA
ATOM      6  N   UNL d   1      33.141  18.903 -23.734  0.00  0.00    -0.133 NA
BRANCH   4   7
ATOM      7  N   UNL d   1      32.874  20.113 -22.169  0.00  0.00    -0.181 NA
ATOM      8  C   UNL d   1      32.962  20.450 -21.389  0.00  0.00     0.281 C 
ATOM      9  O   UNL d   1      33.241  19.931 -20.805  0.00  0.00    -0.265 OA
BRANCH   8  10
ATOM     10  C   UNL d   1      32.789  21.220 -21.216  0.00  0.00     0.058 A 
ATOM     11  C   UNL d   1      33.030  22.015 -21.247  0.00  0.00     0.005 A 
ATOM     12  C   UNL d   1      32.278  21.707 -20.905  0.00  0.00     0.005 A 
ENDBRANCH   8  10
ENDBRANCH   4   7
ENDBRANCH   1   2
BRANCH   1  13
ATOM     13  C   UNL d   1      32.294  17.173 -23.725  0.00  0.00     0.100 C 
BRANCH  13  14
ATOM     14  C   UNL d   1      32.461  16.447 -24.093  0.00  0.00     0.286 C 
ATOM     15  N   UNL d   1      31.863  15.971 -24.376  0.00  0.00    -0.208 NA
ATOM     16  O   UNL d   1      33.240  16.164 -24.195  0.00  0.00    -0.265 OA
BRANCH  15  17
ATOM     17  C   UNL d   1      31.064  16.244 -24.280  0.00  0.00     0.085 A 
ATOM     18  C   UNL d   1      30.660  15.886 -23.682  0.00  0.00     0.019 A 
ATOM     19  C   UNL d   1      29.920  16.110 -23.561  0.00  0.00     0.002 A 
ATOM     20  C   UNL d   1      29.436  15.829 -23.008  0.00  0.00     0.000 C 
ATOM     21  C   UNL d   1      29.546  16.704 -24.032  0.00  0.00     0.000 A 
ATOM     22  C   UNL d   1      30.003  17.069 -24.665  0.00  0.00     0.002 A 
ATOM     23  C   UNL d   1      30.782  16.830 -24.789  0.00  0.00     0.019 A 
ATOM     24  C   UNL d   1      29.636  17.624 -25.097  0.00  0.00     0.000 C 
ENDBRANCH  15  17
ENDBRANCH  13  14
ENDBRANCH   1  13
TORSDOF 6
ENDMDL
MODEL 2
REMARK VINA RESULT:      -0.9      1.719      5.607
REMARK  6 active torsions:
REMARK  status: ('A' for Active; 'I' for Inactive)
REMARK    1  A    between atoms: N_3  and  C_1 
REMARK       I    between atoms: C_7  and  N_3 
REMARK    2  A    between atoms: S_14  and  C_4 
REMARK    3  A    between atoms: C_8  and  C_7 
REMARK    4  A    between atoms: C_11  and  N_13 
REMARK    5  A    between atoms: C_12  and  C_21 
REMARK       I    between atoms: N_13  and  C_12 
REMARK    6  A    between atoms: C_21  and  S_14 
ROOT
ATOM      1  S   UNL d   1      32.431  20.071 -21.801  0.00  0.00    -0.054 SA
ENDROOT
BRANCH   1   2
ATOM      2  C   UNL d   1      32.673  19.728 -22.503  0.00  0.00     0.165 A 
ATOM      3  S   UNL d   1      32.475  18.976 -22.657  0.00  0.00    -0.019 SA
ATOM      4  C   UNL d   1      32.758  18.708 -23.383  0.00  0.00     0.219 A 
ATOM      5  N   UNL d   1      33.147  19.379 -23.649  0.00  0.00    -0.120 NA
ATOM      6  N   UNL d   1      33.087  19.980 -23.112  0.00  0.00    -0.133 NA
BRANCH   4   7
ATOM      7  N   UNL d   1      32.719  18.117 -23.725  0.00  0.00    -0.181 NA
ATOM      8  C   UNL d   1      32.266  17.538 -24.161  0.00  0.00     0.281 C 
ATOM      9  O   UNL d   1      31.462  17.713 -24.261  0.00  0.00    -0.265 OA
BRANCH   8  10
ATOM     10  C   UNL d   1      32.586  16.860 -24.463  0.00  0.00     0.058 A 
ATOM     11  C   UNL d   1      33.017  16.165 -24.317  0.00  0.00     0.005 A 
ATOM     12  C   UNL d   1      32.691  16.427 -25.093  0.00  0.00     0.005 A 
ENDBRANCH   8  10
ENDBRANCH   4   7
ENDBRANCH   1   2
BRANCH   1  13
ATOM     13  C   UNL d   1      32.629  20.844 -21.570  0.00  0.00     0.100 C 
BRANCH  13  14
ATOM     14  C   UNL d   1      32.960  21.030 -20.830  0.00  0.00     0.286 C 
ATOM     15  N   UNL d   1      33.026  21.804 -20.582  0.00  0.00    -0.208 NA
ATOM     16  O   UNL d   1      33.241  20.446 -20.304  0.00  0.00    -0.265 OA
BRANCH  15  17
ATOM     17  C   UNL d   1      32.745  22.411 -21.106  0.00  0.00     0.085 A 
ATOM     18  C   UNL d   1      32.047  22.746 -20.883  0.00  0.00     0.019 A 
ATOM     19  C   UNL d   1      31.755  23.309 -21.339  0.00  0.00     0.002 A 
ATOM     20  C   UNL d   1      31.084  23.702 -21.216  0.00  0.00     0.000 C 
ATOM     21  C   UNL d   1      32.144  23.568 -22.043  0.00  0.00     0.000 A 
ATOM     22  C   UNL d   1      32.889  23.191 -22.258  0.00  0.00     0.002 A 
ATOM     23  C   UNL d   1      33.194  22.597 -21.773  0.00  0.00     0.019 A 
ATOM     24  C   UNL d   1      33.241  23.446 -22.922  0.00  0.00     0.000 C 
ENDBRANCH  15  17
ENDBRANCH  13  14
ENDBRANCH   1  13
TORSDOF 6
ENDMDL
