MODEL 1
REMARK VINA RESULT:      49.1      0.000      0.000
REMARK  4 active torsions:
REMARK  status: ('A' for Active; 'I' for Inactive)
REMARK    1  A    between atoms: S_5  and  C_3 
REMARK    2  A    between atoms: C_12  and  S_5 
REMARK    3  A    between atoms: C_23  and  N_6 
REMARK    4  A    between atoms: C_28  and  C_23 
ROOT
ATOM      1  C   UNL d   1      44.946 -14.903  44.203  0.00  0.00     0.155 A 
ATOM      2  C   UNL d   1      45.589 -14.965  43.704  0.00  0.00     0.092 A 
ATOM      3  C   UNL d   1      45.443 -16.371  43.683  0.00  0.00     0.124 A 
ATOM      4  N   UNL d   1      44.696 -14.163  44.465  0.00  0.00    -0.210 NA
ATOM      5  N   UNL d   1      44.551 -15.569  44.442  0.00  0.00    -0.273 N 
ATOM      6  C   UNL d   1      44.792 -16.310  44.187  0.00  0.00     0.181 A 
ATOM      7  C   UNL d   1      45.989 -14.290  43.462  0.00  0.00     0.269 A 
ATOM      8  N   UNL d   1      45.739 -13.554  43.724  0.00  0.00    -0.258 N 
ATOM      9  C   UNL d   1      45.840 -15.696  43.443  0.00  0.00     0.022 A 
ATOM     10  C   UNL d   1      45.089 -13.497  44.228  0.00  0.00     0.152 A 
ATOM     11  N   UNL d   1      44.385 -16.988  44.434  0.00  0.00    -0.128 N 
ATOM     12  C   UNL d   1      46.133 -12.870  43.487  0.00  0.00     0.084 A 
ATOM     13  O   UNL d   1      46.647 -14.348  42.953  0.00  0.00    -0.266 OA
ATOM     14  C   UNL d   1      44.839 -12.756  44.489  0.00  0.00     0.038 A 
ATOM     15  C   UNL d   1      45.883 -12.137  43.749  0.00  0.00     0.019 A 
ATOM     16  C   UNL d   1      45.232 -12.080  44.253  0.00  0.00     0.005 A 
ENDROOT
BRANCH   3  17
ATOM     17  S   UNL d   1      45.692 -17.117  43.421  0.00  0.00     0.213 S 
ATOM     18  O   UNL d   1      46.442 -17.000  43.765  0.00  0.00    -0.217 OA
ATOM     19  O   UNL d   1      44.949 -17.243  43.076  0.00  0.00    -0.217 OA
BRANCH  17  20
ATOM     20  C   UNL d   1      45.932 -17.870  43.152  0.00  0.00     0.088 A 
ATOM     21  C   UNL d   1      46.314 -18.393  43.667  0.00  0.00     0.014 A 
ATOM     22  C   UNL d   1      46.554 -19.146  43.398  0.00  0.00     0.030 A 
ATOM     23  C   UNL d   1      46.410 -19.372  42.613  0.00  0.00     0.140 A 
ATOM     24  C   UNL d   1      46.022 -18.836  42.095  0.00  0.00     0.030 A 
ATOM     25  F   UNL d   1      46.646 -20.118  42.339  0.00  0.00    -0.204 F 
ATOM     26  C   UNL d   1      45.784 -18.087  42.364  0.00  0.00     0.014 A 
ENDBRANCH  17  20
ENDBRANCH   3  17
BRANCH   5  27
ATOM     27  C   UNL d   1      43.889 -15.507  44.955  0.00  0.00     0.083 C 
BRANCH  27  28
ATOM     28  C   UNL d   1      43.269 -14.980  44.764  0.00  0.00     0.019 C 
ATOM     29  C   UNL d   1      42.476 -15.181  44.931  0.00  0.00     0.002 C 
ENDBRANCH  27  28
ENDBRANCH   5  27
TORSDOF 4
ENDMDL
MODEL 2
REMARK VINA RESULT:      51.5      2.207      5.060
REMARK  4 active torsions:
REMARK  status: ('A' for Active; 'I' for Inactive)
REMARK    1  A    between atoms: S_5  and  C_3 
REMARK    2  A    between atoms: C_12  and  S_5 
REMARK    3  A    between atoms: C_23  and  N_6 
REMARK    4  A    between atoms: C_28  and  C_23 
ROOT
ATOM      1  C   UNL d   1      46.320 -17.524  42.877  0.00  0.00     0.155 A 
ATOM      2  C   UNL d   1      46.112 -17.432  43.661  0.00  0.00     0.092 A 
ATOM      3  C   UNL d   1      46.005 -16.035  43.472  0.00  0.00     0.124 A 
ATOM      4  N   UNL d   1      46.479 -18.276  42.578  0.00  0.00    -0.210 NA
ATOM      5  N   UNL d   1      46.372 -16.879  42.390  0.00  0.00    -0.273 N 
ATOM      6  C   UNL d   1      46.216 -16.127  42.679  0.00  0.00     0.181 A 
ATOM      7  C   UNL d   1      46.059 -18.086  44.153  0.00  0.00     0.269 A 
ATOM      8  N   UNL d   1      46.218 -18.834  43.854  0.00  0.00    -0.258 N 
ATOM      9  C   UNL d   1      45.954 -16.690  43.961  0.00  0.00     0.022 A 
ATOM     10  C   UNL d   1      46.428 -18.922  43.061  0.00  0.00     0.152 A 
ATOM     11  N   UNL d   1      46.270 -15.470  42.177  0.00  0.00    -0.128 N 
ATOM     12  C   UNL d   1      46.168 -19.498  44.340  0.00  0.00     0.084 A 
ATOM     13  O   UNL d   1      45.847 -17.997  44.955  0.00  0.00    -0.266 OA
ATOM     14  C   UNL d   1      46.586 -19.674  42.762  0.00  0.00     0.038 A 
ATOM     15  C   UNL d   1      46.326 -20.242  44.040  0.00  0.00     0.019 A 
ATOM     16  C   UNL d   1      46.536 -20.330  43.247  0.00  0.00     0.005 A 
ENDROOT
BRANCH   3  17
ATOM     17  S   UNL d   1      45.846 -15.279  43.770  0.00  0.00     0.213 S 
ATOM     18  O   UNL d   1      45.072 -15.510  43.977  0.00  0.00    -0.217 OA
ATOM     19  O   UNL d   1      46.613 -15.038  43.568  0.00  0.00    -0.217 OA
BRANCH  17  20
ATOM     20  C   UNL d   1      45.697 -14.512  44.067  0.00  0.00     0.088 A 
ATOM     21  C   UNL d   1      46.285 -14.109  44.489  0.00  0.00     0.014 A 
ATOM     22  C   UNL d   1      46.136 -13.343  44.786  0.00  0.00     0.030 A 
ATOM     23  C   UNL d   1      45.398 -12.985  44.660  0.00  0.00     0.140 A 
ATOM     24  C   UNL d   1      44.807 -13.400  44.232  0.00  0.00     0.030 A 
ATOM     25  F   UNL d   1      45.243 -12.224  44.953  0.00  0.00    -0.204 F 
ATOM     26  C   UNL d   1      44.957 -14.162  43.937  0.00  0.00     0.014 A 
ENDBRANCH  17  20
ENDBRANCH   3  17
BRANCH   5  27
ATOM     27  C   UNL d   1      46.586 -16.972  41.584  0.00  0.00     0.083 C 
BRANCH  27  28
ATOM     28  C   UNL d   1      46.177 -17.528  41.112  0.00  0.00     0.019 C 
ATOM     29  C   UNL d   1      46.561 -17.906  40.474  0.00  0.00     0.002 C 
ENDBRANCH  27  28
ENDBRANCH   5  27
TORSDOF 4
ENDMDL
