MODEL 1
REMARK VINA RESULT:      61.7      0.000      0.000
REMARK  2 active torsions:
REMARK  status: ('A' for Active; 'I' for Inactive)
REMARK    1  A    between atoms: C_11  and  N_1 
REMARK    2  A    between atoms: C_16  and  C_11 
ROOT
ATOM      1  C   UNL d   1     -55.988 -99.265 -44.373  0.00  0.00     0.086 C 
ENDROOT
BRANCH   1   2
ATOM      2  N   UNL d   1     -55.692 -99.938 -44.006  0.00  0.00    -0.240 N 
ATOM      3  C   UNL d   1     -55.505-100.005 -43.205  0.00  0.00     0.267 A 
ATOM      4  C   UNL d   1     -55.227-100.775 -43.075  0.00  0.00     0.061 A 
ATOM      5  O   UNL d   1     -55.580 -99.418 -42.638  0.00  0.00    -0.267 OA
ATOM      6  C   UNL d   1     -54.964-101.153 -42.398  0.00  0.00     0.005 A 
ATOM      7  C   UNL d   1     -55.243-101.177 -43.794  0.00  0.00     0.061 A 
ATOM      8  C   UNL d   1     -54.716-101.937 -42.440  0.00  0.00     0.000 A 
ATOM      9  C   UNL d   1     -54.731-102.340 -43.155  0.00  0.00     0.000 A 
ATOM     10  C   UNL d   1     -54.998-101.954 -43.836  0.00  0.00     0.005 A 
ATOM     11  C   UNL d   1     -55.531-100.658 -44.367  0.00  0.00     0.267 A 
ATOM     12  O   UNL d   1     -55.638-100.838 -45.170  0.00  0.00    -0.267 OA
ENDBRANCH   1   2
BRANCH   1  13
ATOM     13  C   UNL d   1     -56.809 -99.158 -44.462  0.00  0.00     0.018 A 
ATOM     14  C   UNL d   1     -57.133 -99.115 -45.219  0.00  0.00     0.003 A 
ATOM     15  C   UNL d   1     -57.962 -99.007 -45.304  0.00  0.00     0.018 A 
ATOM     16  C   UNL d   1     -58.445 -98.943 -45.971  0.00  0.00     0.019 A 
ATOM     17  C   UNL d   1     -58.441 -98.946 -44.631  0.00  0.00     0.064 A 
ATOM     18  C   UNL d   1     -59.225 -98.842 -45.721  0.00  0.00     0.064 A 
ATOM     19  C   UNL d   1     -59.884 -98.755 -46.208  0.00  0.00     0.019 C 
ATOM     20  N   UNL d   1     -59.217 -98.845 -44.894  0.00  0.00    -0.304 N 
ATOM     21  C   UNL d   1     -59.889 -98.759 -44.405  0.00  0.00     0.099 C 
ATOM     22  C   UNL d   1     -58.110 -98.991 -43.875  0.00  0.00     0.018 A 
ATOM     23  C   UNL d   1     -57.299 -99.096 -43.788  0.00  0.00     0.003 A 
ENDBRANCH   1  13
TORSDOF 2
ENDMDL
