MODEL 1
REMARK VINA RESULT:      35.7      0.000      0.000
REMARK  3 active torsions:
REMARK  status: ('A' for Active; 'I' for Inactive)
REMARK    1  A    between atoms: S_6  and  C_1 
REMARK    2  A    between atoms: C_8  and  S_6 
REMARK    3  A    between atoms: C_7  and  C_8 
ROOT
ATOM      1  C   UNL d   1     -54.979-101.991 -40.877  0.00  0.00     0.194 A 
ATOM      2  N   UNL d   1     -55.148-102.657 -40.416  0.00  0.00    -0.220 NA
ATOM      3  N   UNL d   1     -54.788-101.358 -40.360  0.00  0.00    -0.220 NA
ATOM      4  C   UNL d   1     -55.063-102.442 -39.618  0.00  0.00     0.101 A 
ATOM      5  C   UNL d   1     -54.840-101.639 -39.584  0.00  0.00     0.101 A 
ATOM      6  C   UNL d   1     -55.160-102.876 -38.917  0.00  0.00     0.021 A 
ATOM      7  C   UNL d   1     -54.719-101.288 -38.842  0.00  0.00     0.021 A 
ATOM      8  C   UNL d   1     -54.817-101.722 -38.150  0.00  0.00     0.002 A 
ATOM      9  C   UNL d   1     -55.037-102.516 -38.187  0.00  0.00     0.002 A 
ENDROOT
BRANCH   1  10
ATOM     10  S   UNL d   1     -54.994-101.948 -41.701  0.00  0.00    -0.048 SA
BRANCH  10  11
ATOM     11  C   UNL d   1     -54.711-101.276 -42.093  0.00  0.00     0.041 C 
BRANCH  11  12
ATOM     12  C   UNL d   1     -54.832-101.196 -42.905  0.00  0.00     0.034 A 
ATOM     13  C   UNL d   1     -54.971-100.446 -43.223  0.00  0.00     0.141 A 
ATOM     14  F   UNL d   1     -54.987 -99.791 -42.725  0.00  0.00    -0.204 F 
ATOM     15  C   UNL d   1     -55.092-100.358 -44.034  0.00  0.00     0.030 A 
ATOM     16  C   UNL d   1     -55.074-101.023 -44.520  0.00  0.00     0.002 A 
ATOM     17  C   UNL d   1     -54.935-101.772 -44.206  0.00  0.00     0.000 A 
ATOM     18  C   UNL d   1     -54.815-101.852 -43.394  0.00  0.00     0.003 A 
ENDBRANCH  11  12
ENDBRANCH  10  11
ENDBRANCH   1  10
TORSDOF 3
ENDMDL
