MODEL 1
REMARK VINA RESULT:      66.1      0.000      0.000
REMARK  5 active torsions:
REMARK  status: ('A' for Active; 'I' for Inactive)
REMARK    1  A    between atoms: C_4  and  S_1 
REMARK    2  A    between atoms: N_12  and  S_1 
REMARK    3  A    between atoms: N_2  and  C_17 
REMARK    4  A    between atoms: C_16  and  N_12 
REMARK    5  A    between atoms: C_17  and  C_16 
ROOT
ATOM      1  N   UNL d   1     -49.787  27.226  33.946  0.00  0.00    -0.155 NA
ENDROOT
BRANCH   1   2
ATOM      2  S   UNL d   1     -50.544  27.211  33.624  0.00  0.00     0.285 S 
ATOM      3  O   UNL d   1     -51.279  27.417  33.310  0.00  0.00    -0.198 OA
ATOM      4  O   UNL d   1     -50.350  28.012  33.704  0.00  0.00    -0.198 OA
BRANCH   2   5
ATOM      5  C   UNL d   1     -50.721  26.402  33.551  0.00  0.00     0.105 A 
ATOM      6  C   UNL d   1     -50.112  25.861  33.419  0.00  0.00     0.012 A 
ATOM      7  C   UNL d   1     -50.281  25.062  33.346  0.00  0.00     0.001 A 
ATOM      8  C   UNL d   1     -49.327  26.120  33.359  0.00  0.00     0.001 C 
ATOM      9  C   UNL d   1     -51.066  24.795  33.405  0.00  0.00     0.000 A 
ATOM     10  C   UNL d   1     -51.672  25.347  33.538  0.00  0.00     0.001 A 
ATOM     11  C   UNL d   1     -51.248  23.996  33.334  0.00  0.00     0.000 C 
ATOM     12  C   UNL d   1     -51.491  26.149  33.610  0.00  0.00     0.012 A 
ATOM     13  C   UNL d   1     -52.095  26.693  33.742  0.00  0.00     0.001 C 
ENDBRANCH   2   5
ENDBRANCH   1   2
BRANCH   1  14
ATOM     14  C   UNL d   1     -49.622  27.702  34.600  0.00  0.00     0.131 C 
BRANCH  14  15
ATOM     15  C   UNL d   1     -48.926  27.588  35.026  0.00  0.00     0.102 C 
BRANCH  15  16
ATOM     16  N   UNL d   1     -48.676  28.160  35.566  0.00  0.00    -0.304 N 
ATOM     17  C   UNL d   1     -48.932  28.234  36.349  0.00  0.00     0.064 A 
ATOM     18  C   UNL d   1     -48.543  28.876  36.686  0.00  0.00     0.019 A 
ATOM     19  C   UNL d   1     -49.482  27.749  36.726  0.00  0.00     0.019 C 
ATOM     20  C   UNL d   1     -48.044  29.204  36.117  0.00  0.00     0.018 A 
ATOM     21  C   UNL d   1     -48.124  28.764  35.424  0.00  0.00     0.064 A 
ATOM     22  C   UNL d   1     -47.525  29.844  36.130  0.00  0.00     0.002 A 
ATOM     23  C   UNL d   1     -47.693  28.957  34.751  0.00  0.00     0.018 A 
ATOM     24  C   UNL d   1     -47.175  29.595  34.763  0.00  0.00     0.002 A 
ATOM     25  C   UNL d   1     -47.084  30.050  35.457  0.00  0.00     0.000 A 
ENDBRANCH  15  16
ENDBRANCH  14  15
ENDBRANCH   1  14
TORSDOF 5
ENDMDL
MODEL 2
REMARK VINA RESULT:      67.8      1.095      1.607
REMARK  5 active torsions:
REMARK  status: ('A' for Active; 'I' for Inactive)
REMARK    1  A    between atoms: C_4  and  S_1 
REMARK    2  A    between atoms: N_12  and  S_1 
REMARK    3  A    between atoms: N_2  and  C_17 
REMARK    4  A    between atoms: C_16  and  N_12 
REMARK    5  A    between atoms: C_17  and  C_16 
ROOT
ATOM      1  N   UNL d   1     -49.584  27.766  33.836  0.00  0.00    -0.155 NA
ENDROOT
BRANCH   1   2
ATOM      2  S   UNL d   1     -49.463  26.997  33.568  0.00  0.00     0.285 S 
ATOM      3  O   UNL d   1     -49.127  26.290  33.310  0.00  0.00    -0.198 OA
ATOM      4  O   UNL d   1     -48.709  27.332  33.640  0.00  0.00    -0.198 OA
BRANCH   2   5
ATOM      5  C   UNL d   1     -50.228  26.679  33.503  0.00  0.00     0.105 A 
ATOM      6  C   UNL d   1     -50.872  27.182  33.396  0.00  0.00     0.012 A 
ATOM      7  C   UNL d   1     -51.628  26.874  33.331  0.00  0.00     0.001 A 
ATOM      8  C   UNL d   1     -50.760  28.003  33.353  0.00  0.00     0.001 C 
ATOM      9  C   UNL d   1     -51.748  26.052  33.373  0.00  0.00     0.000 A 
ATOM     10  C   UNL d   1     -51.093  25.553  33.481  0.00  0.00     0.001 A 
ATOM     11  C   UNL d   1     -52.502  25.729  33.309  0.00  0.00     0.000 C 
ATOM     12  C   UNL d   1     -50.335  25.874  33.545  0.00  0.00     0.012 A 
ATOM     13  C   UNL d   1     -49.689  25.376  33.653  0.00  0.00     0.001 C 
ENDBRANCH   2   5
ENDBRANCH   1   2
BRANCH   1  14
ATOM     14  C   UNL d   1     -48.942  28.244  34.037  0.00  0.00     0.131 C 
BRANCH  14  15
ATOM     15  C   UNL d   1     -49.058  28.914  34.504  0.00  0.00     0.102 C 
BRANCH  15  16
ATOM     16  N   UNL d   1     -48.432  29.220  34.945  0.00  0.00    -0.304 N 
ATOM     17  C   UNL d   1     -48.029  28.829  35.553  0.00  0.00     0.064 A 
ATOM     18  C   UNL d   1     -47.447  29.334  35.842  0.00  0.00     0.019 A 
ATOM     19  C   UNL d   1     -48.183  28.065  35.822  0.00  0.00     0.019 C 
ATOM     20  C   UNL d   1     -47.485  30.041  35.418  0.00  0.00     0.018 A 
ATOM     21  C   UNL d   1     -48.092  29.973  34.863  0.00  0.00     0.064 A 
ATOM     22  C   UNL d   1     -47.051  30.740  35.456  0.00  0.00     0.002 A 
ATOM     23  C   UNL d   1     -48.267  30.593  34.352  0.00  0.00     0.018 A 
ATOM     24  C   UNL d   1     -47.835  31.291  34.390  0.00  0.00     0.002 A 
ATOM     25  C   UNL d   1     -47.217  31.374  34.946  0.00  0.00     0.000 A 
ENDBRANCH  15  16
ENDBRANCH  14  15
ENDBRANCH   1  14
TORSDOF 5
ENDMDL
MODEL 3
REMARK VINA RESULT:      68.1      1.912      3.197
REMARK  5 active torsions:
REMARK  status: ('A' for Active; 'I' for Inactive)
REMARK    1  A    between atoms: C_4  and  S_1 
REMARK    2  A    between atoms: N_12  and  S_1 
REMARK    3  A    between atoms: N_2  and  C_17 
REMARK    4  A    between atoms: C_16  and  N_12 
REMARK    5  A    between atoms: C_17  and  C_16 
ROOT
ATOM      1  N   UNL d   1     -51.118  25.815  33.637  0.00  0.00    -0.155 NA
ENDROOT
BRANCH   1   2
ATOM      2  S   UNL d   1     -50.920  25.033  33.470  0.00  0.00     0.285 S 
ATOM      3  O   UNL d   1     -50.514  24.334  33.307  0.00  0.00    -0.198 OA
ATOM      4  O   UNL d   1     -50.202  25.444  33.513  0.00  0.00    -0.198 OA
BRANCH   2   5
ATOM      5  C   UNL d   1     -51.650  24.639  33.431  0.00  0.00     0.105 A 
ATOM      6  C   UNL d   1     -52.347  25.075  33.356  0.00  0.00     0.012 A 
ATOM      7  C   UNL d   1     -53.070  24.691  33.318  0.00  0.00     0.001 A 
ATOM      8  C   UNL d   1     -52.321  25.903  33.320  0.00  0.00     0.001 C 
ATOM      9  C   UNL d   1     -53.103  23.861  33.353  0.00  0.00     0.000 A 
ATOM     10  C   UNL d   1     -52.397  23.431  33.428  0.00  0.00     0.001 A 
ATOM     11  C   UNL d   1     -53.823  23.463  33.315  0.00  0.00     0.000 C 
ATOM     12  C   UNL d   1     -51.674  23.827  33.466  0.00  0.00     0.012 A 
ATOM     13  C   UNL d   1     -50.976  23.397  33.541  0.00  0.00     0.001 C 
ENDBRANCH   2   5
ENDBRANCH   1   2
BRANCH   1  14
ATOM     14  C   UNL d   1     -50.722  26.228  34.232  0.00  0.00     0.131 C 
BRANCH  14  15
ATOM     15  C   UNL d   1     -51.151  26.657  34.790  0.00  0.00     0.102 C 
BRANCH  15  16
ATOM     16  N   UNL d   1     -50.783  26.910  35.484  0.00  0.00    -0.304 N 
ATOM     17  C   UNL d   1     -50.105  27.382  35.531  0.00  0.00     0.064 A 
ATOM     18  C   UNL d   1     -49.930  27.500  36.326  0.00  0.00     0.019 A 
ATOM     19  C   UNL d   1     -49.679  27.681  34.892  0.00  0.00     0.019 C 
ATOM     20  C   UNL d   1     -50.495  27.103  36.778  0.00  0.00     0.018 A 
ATOM     21  C   UNL d   1     -51.024  26.738  36.260  0.00  0.00     0.064 A 
ATOM     22  C   UNL d   1     -50.606  27.022  37.590  0.00  0.00     0.002 A 
ATOM     23  C   UNL d   1     -51.656  26.297  36.546  0.00  0.00     0.018 A 
ATOM     24  C   UNL d   1     -51.767  26.215  37.356  0.00  0.00     0.002 A 
ATOM     25  C   UNL d   1     -51.240  26.579  37.892  0.00  0.00     0.000 A 
ENDBRANCH  15  16
ENDBRANCH  14  15
ENDBRANCH   1  14
TORSDOF 5
ENDMDL
MODEL 4
REMARK VINA RESULT:      68.9      1.493      5.004
REMARK  5 active torsions:
REMARK  status: ('A' for Active; 'I' for Inactive)
REMARK    1  A    between atoms: C_4  and  S_1 
REMARK    2  A    between atoms: N_12  and  S_1 
REMARK    3  A    between atoms: N_2  and  C_17 
REMARK    4  A    between atoms: C_16  and  N_12 
REMARK    5  A    between atoms: C_17  and  C_16 
ROOT
ATOM      1  N   UNL d   1     -48.807  28.811  34.539  0.00  0.00    -0.155 NA
ENDROOT
BRANCH   1   2
ATOM      2  S   UNL d   1     -48.408  29.015  35.230  0.00  0.00     0.285 S 
ATOM      3  O   UNL d   1     -48.076  29.016  35.984  0.00  0.00    -0.198 OA
ATOM      4  O   UNL d   1     -48.711  28.255  35.360  0.00  0.00    -0.198 OA
BRANCH   2   5
ATOM      5  C   UNL d   1     -48.113  29.777  35.079  0.00  0.00     0.105 A 
ATOM      6  C   UNL d   1     -48.607  30.350  34.751  0.00  0.00     0.012 A 
ATOM      7  C   UNL d   1     -48.321  31.103  34.601  0.00  0.00     0.001 A 
ATOM      8  C   UNL d   1     -49.396  30.169  34.571  0.00  0.00     0.001 C 
ATOM      9  C   UNL d   1     -47.531  31.291  34.779  0.00  0.00     0.000 A 
ATOM     10  C   UNL d   1     -47.041  30.708  35.109  0.00  0.00     0.001 A 
ATOM     11  C   UNL d   1     -47.231  32.044  34.634  0.00  0.00     0.000 C 
ATOM     12  C   UNL d   1     -47.339  29.953  35.257  0.00  0.00     0.012 A 
ATOM     13  C   UNL d   1     -46.849  29.377  35.584  0.00  0.00     0.001 C 
ENDBRANCH   2   5
ENDBRANCH   1   2
BRANCH   1  14
ATOM     14  C   UNL d   1     -48.940  28.018  34.352  0.00  0.00     0.131 C 
BRANCH  14  15
ATOM     15  C   UNL d   1     -49.223  27.814  33.605  0.00  0.00     0.102 C 
BRANCH  15  16
ATOM     16  N   UNL d   1     -49.620  27.098  33.498  0.00  0.00    -0.304 N 
ATOM     17  C   UNL d   1     -49.266  26.357  33.398  0.00  0.00     0.064 A 
ATOM     18  C   UNL d   1     -49.863  25.798  33.311  0.00  0.00     0.019 A 
ATOM     19  C   UNL d   1     -48.456  26.205  33.388  0.00  0.00     0.019 C 
ATOM     20  C   UNL d   1     -50.590  26.186  33.356  0.00  0.00     0.018 A 
ATOM     21  C   UNL d   1     -50.443  26.990  33.472  0.00  0.00     0.064 A 
ATOM     22  C   UNL d   1     -51.369  25.922  33.308  0.00  0.00     0.002 A 
ATOM     23  C   UNL d   1     -51.062  27.525  33.539  0.00  0.00     0.018 A 
ATOM     24  C   UNL d   1     -51.840  27.263  33.491  0.00  0.00     0.002 A 
ATOM     25  C   UNL d   1     -52.004  26.453  33.374  0.00  0.00     0.000 A 
ENDBRANCH  15  16
ENDBRANCH  14  15
ENDBRANCH   1  14
TORSDOF 5
ENDMDL
