MODEL 1
REMARK VINA RESULT:      40.4      0.000      0.000
REMARK  4 active torsions:
REMARK  status: ('A' for Active; 'I' for Inactive)
REMARK    1  A    between atoms: N_10  and  C_3 
REMARK    2  A    between atoms: C_11  and  C_5 
REMARK    3  A    between atoms: C_13  and  N_10 
REMARK    4  A    between atoms: C_19  and  C_13 
ROOT
ATOM      1  N   UNL d   1      13.649  12.864  -2.884  0.00  0.00    -0.195 N 
ATOM      2  C   UNL d   1      14.065  13.368  -2.354  0.00  0.00     0.167 A 
ATOM      3  C   UNL d   1      13.368  13.166  -3.605  0.00  0.00     0.167 A 
ATOM      4  N   UNL d   1      13.801  11.779  -1.972  0.00  0.00    -0.163 NA
ATOM      5  C   UNL d   1      14.339  13.073  -1.651  0.00  0.00     0.055 A 
ATOM      6  N   UNL d   1      14.187  14.158  -2.563  0.00  0.00    -0.227 NA
ATOM      7  C   UNL d   1      13.496  13.948  -3.797  0.00  0.00     0.054 A 
ATOM      8  C   UNL d   1      14.211  12.276  -1.450  0.00  0.00     0.104 A 
ATOM      9  C   UNL d   1      13.912  14.459  -3.272  0.00  0.00     0.086 A 
ATOM     10  C   UNL d   1      13.294  14.394  -4.447  0.00  0.00     0.005 A 
ATOM     11  C   UNL d   1      14.492  11.986  -0.736  0.00  0.00     0.023 C 
ATOM     12  C   UNL d   1      13.954  15.207  -3.613  0.00  0.00     0.019 A 
ATOM     13  C   UNL d   1      13.566  15.163  -4.349  0.00  0.00     0.002 A 
ENDROOT
BRANCH   5  14
ATOM     14  C   UNL d   1      14.747  13.568  -1.131  0.00  0.00     0.004 A 
ATOM     15  C   UNL d   1      14.336  14.000  -0.561  0.00  0.00     0.000 A 
ATOM     16  C   UNL d   1      14.738  14.493  -0.043  0.00  0.00     0.000 A 
ATOM     17  C   UNL d   1      15.563  14.557  -0.092  0.00  0.00     0.000 A 
ATOM     18  C   UNL d   1      15.976  14.133  -0.652  0.00  0.00     0.000 A 
ATOM     19  C   UNL d   1      15.564  13.634  -1.176  0.00  0.00     0.000 A 
ENDBRANCH   5  14
BRANCH   3  20
ATOM     20  N   UNL d   1      12.948  12.660  -4.143  0.00  0.00    -0.225 NA
BRANCH  20  21
ATOM     21  C   UNL d   1      12.888  11.936  -4.572  0.00  0.00     0.101 C 
BRANCH  21  22
ATOM     22  C   UNL d   1      13.253  11.855  -5.328  0.00  0.00     0.019 C 
ATOM     23  C   UNL d   1      14.098  11.817  -5.390  0.00  0.00     0.002 C 
ATOM     24  C   UNL d   1      12.769  11.812  -6.027  0.00  0.00     0.002 C 
ENDBRANCH  21  22
ENDBRANCH  20  21
ENDBRANCH   3  20
TORSDOF 4
ENDMDL
MODEL 2
REMARK VINA RESULT:      41.1      0.919      2.460
REMARK  4 active torsions:
REMARK  status: ('A' for Active; 'I' for Inactive)
REMARK    1  A    between atoms: N_10  and  C_3 
REMARK    2  A    between atoms: C_11  and  C_5 
REMARK    3  A    between atoms: C_13  and  N_10 
REMARK    4  A    between atoms: C_19  and  C_13 
ROOT
ATOM      1  N   UNL d   1      14.001  14.011  -3.019  0.00  0.00    -0.195 N 
ATOM      2  C   UNL d   1      14.076  13.403  -2.443  0.00  0.00     0.167 A 
ATOM      3  C   UNL d   1      13.657  13.840  -3.756  0.00  0.00     0.167 A 
ATOM      4  N   UNL d   1      14.608  14.937  -2.122  0.00  0.00    -0.163 NA
ATOM      5  C   UNL d   1      14.412  13.569  -1.724  0.00  0.00     0.055 A 
ATOM      6  N   UNL d   1      13.805  12.643  -2.622  0.00  0.00    -0.227 NA
ATOM      7  C   UNL d   1      13.394  13.086  -3.918  0.00  0.00     0.054 A 
ATOM      8  C   UNL d   1      14.682  14.337  -1.554  0.00  0.00     0.104 A 
ATOM      9  C   UNL d   1      13.465  12.472  -3.346  0.00  0.00     0.086 A 
ATOM     10  C   UNL d   1      13.041  12.756  -4.573  0.00  0.00     0.005 A 
ATOM     11  C   UNL d   1      15.021  14.497  -0.824  0.00  0.00     0.023 C 
ATOM     12  C   UNL d   1      13.155  11.779  -3.664  0.00  0.00     0.019 A 
ATOM     13  C   UNL d   1      12.889  11.961  -4.434  0.00  0.00     0.002 A 
ENDROOT
BRANCH   5  14
ATOM     14  C   UNL d   1      14.486  12.972  -1.159  0.00  0.00     0.004 A 
ATOM     15  C   UNL d   1      13.880  12.839  -0.615  0.00  0.00     0.000 A 
ATOM     16  C   UNL d   1      13.950  12.247  -0.052  0.00  0.00     0.000 A 
ATOM     17  C   UNL d   1      14.633  11.779  -0.029  0.00  0.00     0.000 A 
ATOM     18  C   UNL d   1      15.235  11.904  -0.562  0.00  0.00     0.000 A 
ATOM     19  C   UNL d   1      15.161  12.506  -1.133  0.00  0.00     0.000 A 
ENDBRANCH   5  14
BRANCH   3  20
ATOM     20  N   UNL d   1      13.579  14.452  -4.341  0.00  0.00    -0.225 NA
BRANCH  20  21
ATOM     21  C   UNL d   1      13.195  15.146  -4.627  0.00  0.00     0.101 C 
BRANCH  21  22
ATOM     22  C   UNL d   1      13.614  15.704  -5.101  0.00  0.00     0.019 C 
ATOM     23  C   UNL d   1      14.202  16.204  -4.749  0.00  0.00     0.002 C 
ATOM     24  C   UNL d   1      13.445  15.760  -5.933  0.00  0.00     0.002 C 
ENDBRANCH  21  22
ENDBRANCH  20  21
ENDBRANCH   3  20
TORSDOF 4
ENDMDL
