MODEL 1
REMARK VINA RESULT:     114.7      0.000      0.000
REMARK  6 active torsions:
REMARK  status: ('A' for Active; 'I' for Inactive)
REMARK       I    between atoms: C_6  and  N_1 
REMARK    1  A    between atoms: C_7  and  C_3 
REMARK    2  A    between atoms: C_8  and  C_4 
REMARK    3  A    between atoms: C_11  and  C_6 
REMARK    4  A    between atoms: C_9  and  C_17 
REMARK    5  A    between atoms: C_17  and  C_11 
REMARK    6  A    between atoms: O_26  and  C_19 
ROOT
ATOM      1  N   UNL d   1      60.552  48.064  50.681  0.00  0.00    -0.195 N 
ATOM      2  N   UNL d   1      60.622  47.429  50.167  0.00  0.00    -0.163 NA
ATOM      3  C   UNL d   1      61.074  46.855  50.500  0.00  0.00     0.103 A 
ATOM      4  C   UNL d   1      60.972  47.878  51.351  0.00  0.00     0.088 A 
ATOM      5  C   UNL d   1      61.293  47.150  51.255  0.00  0.00     0.040 A 
ATOM      6  C   UNL d   1      60.127  48.761  50.529  0.00  0.00     0.281 C 
ATOM      7  O   UNL d   1      60.113  49.365  51.127  0.00  0.00    -0.265 OA
ENDROOT
BRANCH   3   8
ATOM      8  C   UNL d   1      61.224  46.170  50.098  0.00  0.00     0.019 A 
ATOM      9  C   UNL d   1      61.995  45.849  50.130  0.00  0.00     0.004 A 
ATOM     10  C   UNL d   1      62.162  45.136  49.715  0.00  0.00     0.024 A 
ATOM     11  C   UNL d   1      61.573  44.755  49.282  0.00  0.00     0.094 A 
ATOM     12  C   UNL d   1      60.802  45.076  49.250  0.00  0.00     0.024 A 
ATOM     13  C   UNL d   1      60.636  45.790  49.665  0.00  0.00     0.004 A 
BRANCH  11  14
ATOM     14  O   UNL d   1      61.767  44.057  48.886  0.00  0.00    -0.328 OA
ATOM     15  C   UNL d   1      62.519  43.700  48.969  0.00  0.00     0.181 C 
ENDBRANCH  11  14
ENDBRANCH   3   8
BRANCH   4  16
ATOM     16  C   UNL d   1      61.077  48.344  52.050  0.00  0.00     0.018 A 
ATOM     17  C   UNL d   1      60.873  48.031  52.792  0.00  0.00     0.002 A 
ATOM     18  C   UNL d   1      60.975  48.483  53.473  0.00  0.00     0.007 A 
ATOM     19  C   UNL d   1      61.279  49.243  53.416  0.00  0.00     0.035 A 
ATOM     20  C   UNL d   1      61.483  49.556  52.673  0.00  0.00     0.007 A 
ATOM     21 BR   UNL d   1      61.381  49.695  54.096  0.00  0.00    -0.049 Br
ATOM     22  C   UNL d   1      61.385  49.111  51.985  0.00  0.00     0.002 A 
ENDBRANCH   4  16
BRANCH   6  23
ATOM     23  C   UNL d   1      59.721  48.892  49.832  0.00  0.00     0.069 C 
BRANCH  23  24
ATOM     24  C   UNL d   1      59.149  49.469  49.774  0.00  0.00     0.075 C 
BRANCH  24  25
ATOM     25  C   UNL d   1      58.361  49.305  49.912  0.00  0.00     0.211 C 
ATOM     26  O   UNL d   1      57.957  48.736  49.473  0.00  0.00    -0.644 OA
ATOM     27  O   UNL d   1      57.944  49.705  50.495  0.00  0.00    -0.644 OA
ENDBRANCH  24  25
ENDBRANCH  23  24
ENDBRANCH   6  23
TORSDOF 6
ENDMDL
