MODEL 1
REMARK VINA RESULT:      -7.0      0.000      0.000
REMARK  5 active torsions:
REMARK  status: ('A' for Active; 'I' for Inactive)
REMARK    1  A    between atoms: N_2  and  C_1 
REMARK       I    between atoms: C_7  and  N_2 
REMARK    2  A    between atoms: C_21  and  N_3 
REMARK    3  A    between atoms: C_8  and  C_7 
REMARK       I    between atoms: C_12  and  N_13 
REMARK    4  A    between atoms: N_13  and  C_14 
REMARK    5  A    between atoms: C_20  and  C_21 
ROOT
ATOM      1  C   UNL d   1     -48.146  13.719  23.037  0.00  0.00     0.182 A 
ATOM      2  N   UNL d   1     -47.916  12.970  23.280  0.00  0.00    -0.285 N 
ATOM      3  S   UNL d   1     -47.482  14.105  22.740  0.00  0.00    -0.048 SA
ATOM      4  C   UNL d   1     -46.838  13.589  22.800  0.00  0.00     0.050 A 
ATOM      5  C   UNL d   1     -47.107  12.885  23.135  0.00  0.00     0.072 A 
ATOM      6  C   UNL d   1     -46.045  13.670  22.593  0.00  0.00     0.027 A 
ATOM      7  C   UNL d   1     -46.583  12.262  23.263  0.00  0.00     0.020 A 
ATOM      8  C   UNL d   1     -45.522  13.049  22.721  0.00  0.00     0.085 A 
ATOM      9  C   UNL d   1     -45.791  12.345  23.056  0.00  0.00     0.021 A 
ENDROOT
BRANCH   1  10
ATOM     10  N   UNL d   1     -48.910  14.025  23.086  0.00  0.00    -0.183 NA
ATOM     11  C   UNL d   1     -49.027  14.837  23.021  0.00  0.00     0.287 C 
ATOM     12  O   UNL d   1     -48.382  15.336  22.908  0.00  0.00    -0.265 OA
BRANCH  11  13
ATOM     13  C   UNL d   1     -49.789  15.150  23.069  0.00  0.00     0.087 A 
ATOM     14  S   UNL d   1     -50.083  15.640  23.668  0.00  0.00    -0.082 SA
ATOM     15  C   UNL d   1     -50.870  15.825  23.499  0.00  0.00     0.036 A 
ATOM     16  C   UNL d   1     -51.064  15.449  22.791  0.00  0.00     0.008 A 
ATOM     17  C   UNL d   1     -50.405  15.032  22.522  0.00  0.00     0.012 A 
ENDBRANCH  11  13
ENDBRANCH   1  10
BRANCH   2  18
ATOM     18  C   UNL d   1     -48.404  12.393  23.613  0.00  0.00     0.082 C 
BRANCH  18  19
ATOM     19  C   UNL d   1     -48.795  11.850  23.135  0.00  0.00     0.019 C 
ATOM     20  C   UNL d   1     -49.338  11.327  23.460  0.00  0.00     0.002 C 
ENDBRANCH  18  19
ENDBRANCH   2  18
BRANCH   8  21
ATOM     21  N   UNL d   1     -44.716  13.129  22.512  0.00  0.00    -0.208 NA
ATOM     22  C   UNL d   1     -44.461  12.880  21.779  0.00  0.00     0.279 C 
ATOM     23  O   UNL d   1     -43.667  12.960  21.575  0.00  0.00    -0.265 OA
ATOM     24  C   UNL d   1     -44.987  12.550  21.236  0.00  0.00     0.068 C 
ENDBRANCH   8  21
TORSDOF 5
ENDMDL
MODEL 2
REMARK VINA RESULT:      -5.1      8.099      9.776
REMARK  5 active torsions:
REMARK  status: ('A' for Active; 'I' for Inactive)
REMARK    1  A    between atoms: N_2  and  C_1 
REMARK       I    between atoms: C_7  and  N_2 
REMARK    2  A    between atoms: C_21  and  N_3 
REMARK    3  A    between atoms: C_8  and  C_7 
REMARK       I    between atoms: C_12  and  N_13 
REMARK    4  A    between atoms: N_13  and  C_14 
REMARK    5  A    between atoms: C_20  and  C_21 
ROOT
ATOM      1  C   UNL d   1     -39.254  14.380  20.195  0.00  0.00     0.182 A 
ATOM      2  N   UNL d   1     -39.721  14.923  19.796  0.00  0.00    -0.285 N 
ATOM      3  S   UNL d   1     -38.899  13.891  19.635  0.00  0.00    -0.048 SA
ATOM      4  C   UNL d   1     -39.149  14.136  18.886  0.00  0.00     0.050 A 
ATOM      5  C   UNL d   1     -39.659  14.776  18.986  0.00  0.00     0.072 A 
ATOM      6  C   UNL d   1     -38.978  13.859  18.129  0.00  0.00     0.027 A 
ATOM      7  C   UNL d   1     -39.999  15.140  18.329  0.00  0.00     0.020 A 
ATOM      8  C   UNL d   1     -39.317  14.222  17.474  0.00  0.00     0.085 A 
ATOM      9  C   UNL d   1     -39.827  14.862  17.573  0.00  0.00     0.021 A 
ENDROOT
BRANCH   1  10
ATOM     10  N   UNL d   1     -39.162  14.336  21.013  0.00  0.00    -0.183 NA
ATOM     11  C   UNL d   1     -38.584  13.843  21.331  0.00  0.00     0.287 C 
ATOM     12  O   UNL d   1     -38.104  13.399  20.830  0.00  0.00    -0.265 OA
BRANCH  11  13
ATOM     13  C   UNL d   1     -38.486  13.795  22.149  0.00  0.00     0.087 A 
ATOM     14  S   UNL d   1     -37.940  14.218  22.605  0.00  0.00    -0.082 SA
ATOM     15  C   UNL d   1     -38.029  14.002  23.397  0.00  0.00     0.036 A 
ATOM     16  C   UNL d   1     -38.633  13.441  23.432  0.00  0.00     0.008 A 
ATOM     17  C   UNL d   1     -38.918  13.310  22.668  0.00  0.00     0.012 A 
ENDBRANCH  11  13
ENDBRANCH   1  10
BRANCH   2  18
ATOM     18  C   UNL d   1     -40.179  15.519  20.139  0.00  0.00     0.082 C 
BRANCH  18  19
ATOM     19  C   UNL d   1     -40.990  15.419  20.237  0.00  0.00     0.019 C 
ATOM     20  C   UNL d   1     -41.413  15.922  20.728  0.00  0.00     0.002 C 
ENDBRANCH  18  19
ENDBRANCH   2  18
BRANCH   8  21
ATOM     21  N   UNL d   1     -39.145  13.942  16.705  0.00  0.00    -0.208 NA
ATOM     22  C   UNL d   1     -38.659  14.377  16.214  0.00  0.00     0.279 C 
ATOM     23  O   UNL d   1     -38.492  14.100  15.457  0.00  0.00    -0.265 OA
ATOM     24  C   UNL d   1     -38.333  15.092  16.466  0.00  0.00     0.068 C 
ENDBRANCH   8  21
TORSDOF 5
ENDMDL
MODEL 3
REMARK VINA RESULT:      -4.9      1.341      4.613
REMARK  5 active torsions:
REMARK  status: ('A' for Active; 'I' for Inactive)
REMARK    1  A    between atoms: N_2  and  C_1 
REMARK       I    between atoms: C_7  and  N_2 
REMARK    2  A    between atoms: C_21  and  N_3 
REMARK    3  A    between atoms: C_8  and  C_7 
REMARK       I    between atoms: C_12  and  N_13 
REMARK    4  A    between atoms: N_13  and  C_14 
REMARK    5  A    between atoms: C_20  and  C_21 
ROOT
ATOM      1  C   UNL d   1     -46.684  13.115  22.797  0.00  0.00     0.182 A 
ATOM      2  N   UNL d   1     -47.279  12.807  23.268  0.00  0.00    -0.285 N 
ATOM      3  S   UNL d   1     -46.951  13.828  22.483  0.00  0.00    -0.048 SA
ATOM      4  C   UNL d   1     -47.718  13.959  22.763  0.00  0.00     0.050 A 
ATOM      5  C   UNL d   1     -47.922  13.326  23.250  0.00  0.00     0.072 A 
ATOM      6  C   UNL d   1     -48.255  14.571  22.637  0.00  0.00     0.027 A 
ATOM      7  C   UNL d   1     -48.662  13.304  23.612  0.00  0.00     0.020 A 
ATOM      8  C   UNL d   1     -48.994  14.550  22.998  0.00  0.00     0.085 A 
ATOM      9  C   UNL d   1     -49.197  13.916  23.486  0.00  0.00     0.021 A 
ENDROOT
BRANCH   1  10
ATOM     10  N   UNL d   1     -45.947  12.767  22.666  0.00  0.00    -0.183 NA
ATOM     11  C   UNL d   1     -45.382  13.169  22.222  0.00  0.00     0.287 C 
ATOM     12  O   UNL d   1     -45.555  13.913  21.914  0.00  0.00    -0.265 OA
BRANCH  11  13
ATOM     13  C   UNL d   1     -44.643  12.827  22.086  0.00  0.00     0.087 A 
ATOM     14  S   UNL d   1     -44.103  13.041  21.497  0.00  0.00    -0.082 SA
ATOM     15  C   UNL d   1     -43.436  12.558  21.558  0.00  0.00     0.036 A 
ATOM     16  C   UNL d   1     -43.563  12.042  22.189  0.00  0.00     0.008 A 
ATOM     17  C   UNL d   1     -44.303  12.202  22.518  0.00  0.00     0.012 A 
ENDBRANCH  11  13
ENDBRANCH   1  10
BRANCH   2  18
ATOM     18  C   UNL d   1     -47.250  12.099  23.693  0.00  0.00     0.082 C 
BRANCH  18  19
ATOM     19  C   UNL d   1     -47.729  11.465  23.480  0.00  0.00     0.019 C 
ATOM     20  C   UNL d   1     -47.525  10.700  23.697  0.00  0.00     0.002 C 
ENDBRANCH  18  19
ENDBRANCH   2  18
BRANCH   8  21
ATOM     21  N   UNL d   1     -49.540  15.170  22.872  0.00  0.00    -0.208 NA
ATOM     22  C   UNL d   1     -50.237  15.022  22.475  0.00  0.00     0.279 C 
ATOM     23  O   UNL d   1     -50.774  15.634  22.352  0.00  0.00    -0.265 OA
ATOM     24  C   UNL d   1     -50.413  14.266  22.195  0.00  0.00     0.068 C 
ENDBRANCH   8  21
TORSDOF 5
ENDMDL
MODEL 4
REMARK VINA RESULT:      -4.9      8.556     10.456
REMARK  5 active torsions:
REMARK  status: ('A' for Active; 'I' for Inactive)
REMARK    1  A    between atoms: N_2  and  C_1 
REMARK       I    between atoms: C_7  and  N_2 
REMARK    2  A    between atoms: C_21  and  N_3 
REMARK    3  A    between atoms: C_8  and  C_7 
REMARK       I    between atoms: C_12  and  N_13 
REMARK    4  A    between atoms: N_13  and  C_14 
REMARK    5  A    between atoms: C_20  and  C_21 
ROOT
ATOM      1  C   UNL d   1     -39.455  14.698  17.697  0.00  0.00     0.182 A 
ATOM      2  N   UNL d   1     -40.021  15.222  17.973  0.00  0.00    -0.285 N 
ATOM      3  S   UNL d   1     -39.139  14.300  18.346  0.00  0.00    -0.048 SA
ATOM      4  C   UNL d   1     -39.515  14.583  19.026  0.00  0.00     0.050 A 
ATOM      5  C   UNL d   1     -40.062  15.155  18.795  0.00  0.00     0.072 A 
ATOM      6  C   UNL d   1     -39.430  14.393  19.823  0.00  0.00     0.027 A 
ATOM      7  C   UNL d   1     -40.524  15.537  19.360  0.00  0.00     0.020 A 
ATOM      8  C   UNL d   1     -39.891  14.775  20.388  0.00  0.00     0.085 A 
ATOM      9  C   UNL d   1     -40.438  15.347  20.156  0.00  0.00     0.021 A 
ENDROOT
BRANCH   1  10
ATOM     10  N   UNL d   1     -39.242  14.592  16.907  0.00  0.00    -0.183 NA
ATOM     11  C   UNL d   1     -38.506  14.273  16.723  0.00  0.00     0.287 C 
ATOM     12  O   UNL d   1     -37.989  14.062  17.329  0.00  0.00    -0.265 OA
BRANCH  11  13
ATOM     13  C   UNL d   1     -38.287  14.164  15.935  0.00  0.00     0.087 A 
ATOM     14  S   UNL d   1     -38.144  13.440  15.560  0.00  0.00    -0.082 SA
ATOM     15  C   UNL d   1     -37.940  13.584  14.773  0.00  0.00     0.036 A 
ATOM     16  C   UNL d   1     -37.956  14.401  14.660  0.00  0.00     0.008 A 
ATOM     17  C   UNL d   1     -38.169  14.763  15.370  0.00  0.00     0.012 A 
ENDBRANCH  11  13
ENDBRANCH   1  10
BRANCH   2  18
ATOM     18  C   UNL d   1     -40.478  15.735  17.513  0.00  0.00     0.082 C 
BRANCH  18  19
ATOM     19  C   UNL d   1     -41.131  15.454  17.098  0.00  0.00     0.019 C 
ATOM     20  C   UNL d   1     -41.483  15.915  16.517  0.00  0.00     0.002 C 
ENDBRANCH  18  19
ENDBRANCH   2  18
BRANCH   8  21
ATOM     21  N   UNL d   1     -39.806  14.584  21.197  0.00  0.00    -0.208 NA
ATOM     22  C   UNL d   1     -39.251  14.975  21.650  0.00  0.00     0.279 C 
ATOM     23  O   UNL d   1     -39.169  14.785  22.447  0.00  0.00    -0.265 OA
ATOM     24  C   UNL d   1     -38.770  15.559  21.321  0.00  0.00     0.068 C 
ENDBRANCH   8  21
TORSDOF 5
ENDMDL
MODEL 5
REMARK VINA RESULT:      -4.7      2.036      5.168
REMARK  5 active torsions:
REMARK  status: ('A' for Active; 'I' for Inactive)
REMARK    1  A    between atoms: N_2  and  C_1 
REMARK       I    between atoms: C_7  and  N_2 
REMARK    2  A    between atoms: C_21  and  N_3 
REMARK    3  A    between atoms: C_8  and  C_7 
REMARK       I    between atoms: C_12  and  N_13 
REMARK    4  A    between atoms: N_13  and  C_14 
REMARK    5  A    between atoms: C_20  and  C_21 
ROOT
ATOM      1  C   UNL d   1     -46.325  12.351  23.089  0.00  0.00     0.182 A 
ATOM      2  N   UNL d   1     -46.497  13.055  22.706  0.00  0.00    -0.285 N 
ATOM      3  S   UNL d   1     -47.019  12.074  23.435  0.00  0.00    -0.048 SA
ATOM      4  C   UNL d   1     -47.623  12.612  23.264  0.00  0.00     0.050 A 
ATOM      5  C   UNL d   1     -47.299  13.221  22.812  0.00  0.00     0.072 A 
ATOM      6  C   UNL d   1     -48.423  12.625  23.461  0.00  0.00     0.027 A 
ATOM      7  C   UNL d   1     -47.775  13.844  22.557  0.00  0.00     0.020 A 
ATOM      8  C   UNL d   1     -48.898  13.247  23.206  0.00  0.00     0.085 A 
ATOM      9  C   UNL d   1     -48.574  13.856  22.754  0.00  0.00     0.021 A 
ENDROOT
BRANCH   1  10
ATOM     10  N   UNL d   1     -45.584  11.990  23.117  0.00  0.00    -0.183 NA
ATOM     11  C   UNL d   1     -45.530  11.189  23.300  0.00  0.00     0.287 C 
ATOM     12  O   UNL d   1     -46.215  10.756  23.453  0.00  0.00    -0.265 OA
BRANCH  11  13
ATOM     13  C   UNL d   1     -44.793  10.820  23.331  0.00  0.00     0.087 A 
ATOM     14  S   UNL d   1     -44.618  10.099  23.698  0.00  0.00    -0.082 SA
ATOM     15  C   UNL d   1     -43.815   9.936  23.596  0.00  0.00     0.036 A 
ATOM     16  C   UNL d   1     -43.490  10.559  23.164  0.00  0.00     0.008 A 
ATOM     17  C   UNL d   1     -44.085  11.106  22.998  0.00  0.00     0.012 A 
ENDBRANCH  11  13
ENDBRANCH   1  10
BRANCH   2  18
ATOM     18  C   UNL d   1     -45.964  13.526  22.285  0.00  0.00     0.082 C 
BRANCH  18  19
ATOM     19  C   UNL d   1     -45.675  14.224  22.611  0.00  0.00     0.019 C 
ATOM     20  C   UNL d   1     -45.075  14.639  22.235  0.00  0.00     0.002 C 
ENDBRANCH  18  19
ENDBRANCH   2  18
BRANCH   8  21
ATOM     21  N   UNL d   1     -49.709  13.263  23.405  0.00  0.00    -0.208 NA
ATOM     22  C   UNL d   1     -50.265  13.417  22.829  0.00  0.00     0.279 C 
ATOM     23  O   UNL d   1     -51.064  13.432  23.027  0.00  0.00    -0.265 OA
ATOM     24  C   UNL d   1     -50.039  13.559  22.048  0.00  0.00     0.068 C 
ENDBRANCH   8  21
TORSDOF 5
ENDMDL
