MODEL 1
REMARK VINA RESULT:      57.1      0.000      0.000
REMARK  6 active torsions:
REMARK  status: ('A' for Active; 'I' for Inactive)
REMARK    1  A    between atoms: N_2  and  S_1 
REMARK    2  A    between atoms: C_7  and  S_1 
REMARK    3  A    between atoms: C_3  and  N_2 
REMARK    4  A    between atoms: C_4  and  C_3 
REMARK    5  A    between atoms: N_5  and  C_4 
REMARK    6  A    between atoms: C_6  and  C_4 
ROOT
ATOM      1  C   UNL d   1     -55.441 -99.697 -43.847  0.00  0.00     0.110 C 
ATOM      2  C   UNL d   1     -54.890 -99.142 -44.112  0.00  0.00     0.023 C 
ENDROOT
BRANCH   1   3
ATOM      3  N   UNL d   1     -56.237 -99.510 -43.836  0.00  0.00    -0.157 NA
BRANCH   3   4
ATOM      4  S   UNL d   1     -56.582 -99.097 -44.458  0.00  0.00     0.285 S 
ATOM      5  O   UNL d   1     -56.467 -98.759 -45.204  0.00  0.00    -0.198 OA
ATOM      6  O   UNL d   1     -55.838 -99.137 -44.823  0.00  0.00    -0.198 OA
BRANCH   4   7
ATOM      7  C   UNL d   1     -57.341 -99.022 -44.154  0.00  0.00     0.105 A 
ATOM      8  C   UNL d   1     -57.446 -98.832 -43.349  0.00  0.00     0.013 A 
ATOM      9  C   UNL d   1     -58.213 -98.758 -43.048  0.00  0.00     0.007 A 
ATOM     10  C   UNL d   1     -58.866 -98.869 -43.536  0.00  0.00     0.035 A 
ATOM     11  C   UNL d   1     -58.763 -99.057 -44.332  0.00  0.00     0.007 A 
ATOM     12 BR   UNL d   1     -59.635 -98.793 -43.226  0.00  0.00    -0.049 Br
ATOM     13  C   UNL d   1     -57.994 -99.133 -44.642  0.00  0.00     0.013 A 
ENDBRANCH   4   7
ENDBRANCH   3   4
ENDBRANCH   1   3
BRANCH   1  14
ATOM     14  C   UNL d   1     -55.188-100.437 -43.594  0.00  0.00     0.089 C 
BRANCH  14  15
ATOM     15  N   UNL d   1     -55.078-101.043 -44.136  0.00  0.00    -0.300 N 
ATOM     16  C   UNL d   1     -54.825-100.873 -44.903  0.00  0.00     0.100 A 
ATOM     17  C   UNL d   1     -54.715-101.486 -45.448  0.00  0.00     0.100 A 
ATOM     18  N   UNL d   1     -54.858-102.266 -45.232  0.00  0.00    -0.299 N 
ATOM     19  C   UNL d   1     -55.113-102.437 -44.461  0.00  0.00     0.100 A 
ATOM     20  C   UNL d   1     -54.747-102.877 -45.781  0.00  0.00     0.100 C 
ATOM     21  C   UNL d   1     -55.222-101.831 -43.920  0.00  0.00     0.100 A 
ENDBRANCH  14  15
BRANCH  14  22
ATOM     22  C   UNL d   1     -55.044-100.570 -42.794  0.00  0.00     0.047 A 
ATOM     23  S   UNL d   1     -54.788-100.007 -42.243  0.00  0.00    -0.085 SA
ATOM     24  C   UNL d   1     -54.718-100.385 -41.512  0.00  0.00     0.035 A 
ATOM     25  C   UNL d   1     -54.927-101.171 -41.598  0.00  0.00     0.007 A 
ATOM     26  C   UNL d   1     -55.130-101.290 -42.396  0.00  0.00     0.009 A 
ENDBRANCH  14  22
ENDBRANCH   1  14
TORSDOF 6
ENDMDL
