MODEL 1
REMARK VINA RESULT:      -5.3      0.000      0.000
REMARK  5 active torsions:
REMARK  status: ('A' for Active; 'I' for Inactive)
REMARK    1  A    between atoms: N_2  and  C_1 
REMARK    2  A    between atoms: C_9  and  C_5 
REMARK       I    between atoms: N_6  and  C_7 
REMARK    3  A    between atoms: C_11  and  N_6 
REMARK    4  A    between atoms: C_7  and  C_10 
REMARK    5  A    between atoms: C_10  and  C_9 
ROOT
ATOM      1  N   UNL d   1      57.883  -0.437  30.120  0.00  0.00    -0.208 NA
ATOM      2  C   UNL d   1      57.802   0.003  30.784  0.00  0.00     0.279 C 
ATOM      3  O   UNL d   1      58.349   0.577  30.984  0.00  0.00    -0.265 OA
ENDROOT
BRANCH   2   4
ATOM      4  C   UNL d   1      57.153  -0.123  31.280  0.00  0.00     0.063 C 
BRANCH   4   5
ATOM      5  C   UNL d   1      57.210  -0.002  32.105  0.00  0.00     0.011 C 
BRANCH   5   6
ATOM      6  C   UNL d   1      56.565  -0.090  32.586  0.00  0.00     0.031 A 
ATOM      7  S   UNL d   1      56.157   0.437  33.070  0.00  0.00    -0.064 SA
ATOM      8  C   UNL d   1      55.558   0.025  33.417  0.00  0.00     0.156 A 
ATOM      9  C   UNL d   1      55.582  -0.744  33.162  0.00  0.00     0.031 A 
ATOM     10  C   UNL d   1      56.197  -0.826  32.652  0.00  0.00     0.009 A 
BRANCH   8  11
ATOM     11  N   UNL d   1      55.010   0.363  33.953  0.00  0.00    -0.107 N 
ATOM     12  O   UNL d   1      54.293   0.652  33.712  0.00  0.00    -0.531 OA
ATOM     13  O   UNL d   1      55.222   0.398  34.759  0.00  0.00    -0.531 OA
ENDBRANCH   8  11
ENDBRANCH   5   6
ENDBRANCH   4   5
ENDBRANCH   2   4
BRANCH   1  14
ATOM     14  C   UNL d   1      58.530  -0.312  29.625  0.00  0.00     0.085 A 
ATOM     15  C   UNL d   1      58.895  -0.955  29.250  0.00  0.00     0.018 A 
ATOM     16  C   UNL d   1      58.609  -1.717  29.374  0.00  0.00     0.002 C 
ATOM     17  C   UNL d   1      59.538  -0.831  28.758  0.00  0.00     0.002 A 
ATOM     18  C   UNL d   1      59.828  -0.060  28.632  0.00  0.00     0.000 A 
ATOM     19  C   UNL d   1      59.459   0.578  29.010  0.00  0.00     0.002 A 
ATOM     20  C   UNL d   1      58.815   0.453  29.503  0.00  0.00     0.019 A 
ENDBRANCH   1  14
TORSDOF 5
ENDMDL
MODEL 2
REMARK VINA RESULT:      -5.1      1.835      5.058
REMARK  5 active torsions:
REMARK  status: ('A' for Active; 'I' for Inactive)
REMARK    1  A    between atoms: N_2  and  C_1 
REMARK    2  A    between atoms: C_9  and  C_5 
REMARK       I    between atoms: N_6  and  C_7 
REMARK    3  A    between atoms: C_11  and  N_6 
REMARK    4  A    between atoms: C_7  and  C_10 
REMARK    5  A    between atoms: C_10  and  C_9 
ROOT
ATOM      1  N   UNL d   1      56.936  -0.438  32.068  0.00  0.00    -0.208 NA
ATOM      2  C   UNL d   1      57.044   0.032  31.429  0.00  0.00     0.279 C 
ATOM      3  O   UNL d   1      56.567   0.682  31.293  0.00  0.00    -0.265 OA
ENDROOT
BRANCH   2   4
ATOM      4  C   UNL d   1      57.650  -0.140  30.893  0.00  0.00     0.063 C 
BRANCH   4   5
ATOM      5  C   UNL d   1      57.806   0.361  30.242  0.00  0.00     0.011 C 
BRANCH   5   6
ATOM      6  C   UNL d   1      58.333   0.147  29.667  0.00  0.00     0.031 A 
ATOM      7  S   UNL d   1      58.904  -0.446  29.630  0.00  0.00    -0.064 SA
ATOM      8  C   UNL d   1      59.262  -0.386  28.910  0.00  0.00     0.156 A 
ATOM      9  C   UNL d   1      58.929   0.229  28.499  0.00  0.00     0.031 A 
ATOM     10  C   UNL d   1      58.358   0.563  28.955  0.00  0.00     0.009 A 
BRANCH   8  11
ATOM     11  N   UNL d   1      59.877  -0.892  28.653  0.00  0.00    -0.107 N 
ATOM     12  O   UNL d   1      59.756  -1.677  28.502  0.00  0.00    -0.531 OA
ATOM     13  O   UNL d   1      60.638  -0.562  28.552  0.00  0.00    -0.531 OA
ENDBRANCH   8  11
ENDBRANCH   5   6
ENDBRANCH   4   5
ENDBRANCH   2   4
BRANCH   1  14
ATOM     14  C   UNL d   1      56.333  -0.267  32.602  0.00  0.00     0.085 A 
ATOM     15  C   UNL d   1      55.856  -0.878  32.897  0.00  0.00     0.018 A 
ATOM     16  C   UNL d   1      55.988  -1.653  32.656  0.00  0.00     0.002 C 
ATOM     17  C   UNL d   1      55.255  -0.708  33.429  0.00  0.00     0.002 A 
ATOM     18  C   UNL d   1      55.122   0.077  33.674  0.00  0.00     0.000 A 
ATOM     19  C   UNL d   1      55.602   0.682  33.375  0.00  0.00     0.002 A 
ATOM     20  C   UNL d   1      56.202   0.512  32.843  0.00  0.00     0.019 A 
ENDBRANCH   1  14
TORSDOF 5
ENDMDL
MODEL 3
REMARK VINA RESULT:      -4.1      1.845      5.117
REMARK  5 active torsions:
REMARK  status: ('A' for Active; 'I' for Inactive)
REMARK    1  A    between atoms: N_2  and  C_1 
REMARK    2  A    between atoms: C_9  and  C_5 
REMARK       I    between atoms: N_6  and  C_7 
REMARK    3  A    between atoms: C_11  and  N_6 
REMARK    4  A    between atoms: C_7  and  C_10 
REMARK    5  A    between atoms: C_10  and  C_9 
ROOT
ATOM      1  N   UNL d   1      57.097  -0.028  32.431  0.00  0.00    -0.208 NA
ATOM      2  C   UNL d   1      57.013   0.216  31.674  0.00  0.00     0.279 C 
ATOM      3  O   UNL d   1      56.357   0.640  31.434  0.00  0.00    -0.265 OA
ENDROOT
BRANCH   2   4
ATOM      4  C   UNL d   1      57.600   0.038  31.119  0.00  0.00     0.063 C 
BRANCH   4   5
ATOM      5  C   UNL d   1      57.718   0.518  30.445  0.00  0.00     0.011 C 
BRANCH   5   6
ATOM      6  C   UNL d   1      58.313   0.363  29.920  0.00  0.00     0.031 A 
ATOM      7  S   UNL d   1      59.128   0.288  30.011  0.00  0.00    -0.064 SA
ATOM      8  C   UNL d   1      59.434   0.130  29.282  0.00  0.00     0.156 A 
ATOM      9  C   UNL d   1      58.832   0.105  28.741  0.00  0.00     0.031 A 
ATOM     10  C   UNL d   1      58.138   0.246  29.121  0.00  0.00     0.009 A 
BRANCH   8  11
ATOM     11  N   UNL d   1      60.251   0.015  29.135  0.00  0.00    -0.107 N 
ATOM     12  O   UNL d   1      60.602  -0.711  29.197  0.00  0.00    -0.531 OA
ATOM     13  O   UNL d   1      60.707   0.680  28.919  0.00  0.00    -0.531 OA
ENDBRANCH   8  11
ENDBRANCH   5   6
ENDBRANCH   4   5
ENDBRANCH   2   4
BRANCH   1  14
ATOM     14  C   UNL d   1      56.513   0.149  32.984  0.00  0.00     0.085 A 
ATOM     15  C   UNL d   1      56.719   0.505  33.704  0.00  0.00     0.018 A 
ATOM     16  C   UNL d   1      57.507   0.681  33.864  0.00  0.00     0.002 C 
ATOM     17  C   UNL d   1      56.137   0.682  34.254  0.00  0.00     0.002 A 
ATOM     18  C   UNL d   1      55.340   0.505  34.093  0.00  0.00     0.000 A 
ATOM     19  C   UNL d   1      55.142   0.149  33.372  0.00  0.00     0.002 A 
ATOM     20  C   UNL d   1      55.723  -0.027  32.822  0.00  0.00     0.019 A 
ENDBRANCH   1  14
TORSDOF 5
ENDMDL
MODEL 4
REMARK VINA RESULT:      -3.4      1.128      1.721
REMARK  5 active torsions:
REMARK  status: ('A' for Active; 'I' for Inactive)
REMARK    1  A    between atoms: N_2  and  C_1 
REMARK    2  A    between atoms: C_9  and  C_5 
REMARK       I    between atoms: N_6  and  C_7 
REMARK    3  A    between atoms: C_11  and  N_6 
REMARK    4  A    between atoms: C_7  and  C_10 
REMARK    5  A    between atoms: C_10  and  C_9 
ROOT
ATOM      1  N   UNL d   1      58.654  -1.071  29.936  0.00  0.00    -0.208 NA
ATOM      2  C   UNL d   1      58.060  -1.301  30.421  0.00  0.00     0.279 C 
ATOM      3  O   UNL d   1      57.801  -2.076  30.439  0.00  0.00    -0.265 OA
ENDROOT
BRANCH   2   4
ATOM      4  C   UNL d   1      57.698  -0.745  30.915  0.00  0.00     0.063 C 
BRANCH   4   5
ATOM      5  C   UNL d   1      56.944  -0.888  31.247  0.00  0.00     0.011 C 
BRANCH   5   6
ATOM      6  C   UNL d   1      56.660  -0.433  31.852  0.00  0.00     0.031 A 
ATOM      7  S   UNL d   1      56.230  -0.617  32.531  0.00  0.00    -0.064 SA
ATOM      8  C   UNL d   1      56.107   0.074  32.927  0.00  0.00     0.156 A 
ATOM      9  C   UNL d   1      56.449   0.682  32.514  0.00  0.00     0.031 A 
ATOM     10  C   UNL d   1      56.792   0.382  31.853  0.00  0.00     0.009 A 
BRANCH   8  11
ATOM     11  N   UNL d   1      55.689   0.127  33.651  0.00  0.00    -0.107 N 
ATOM     12  O   UNL d   1      54.927  -0.136  33.729  0.00  0.00    -0.531 OA
ATOM     13  O   UNL d   1      56.081   0.465  34.306  0.00  0.00    -0.531 OA
ENDBRANCH   8  11
ENDBRANCH   5   6
ENDBRANCH   4   5
ENDBRANCH   2   4
BRANCH   1  14
ATOM     14  C   UNL d   1      59.014  -1.624  29.444  0.00  0.00     0.085 A 
ATOM     15  C   UNL d   1      59.698  -1.418  29.021  0.00  0.00     0.018 A 
ATOM     16  C   UNL d   1      60.014  -0.662  29.096  0.00  0.00     0.002 C 
ATOM     17  C   UNL d   1      60.057  -1.969  28.531  0.00  0.00     0.002 A 
ATOM     18  C   UNL d   1      59.738  -2.734  28.455  0.00  0.00     0.000 A 
ATOM     19  C   UNL d   1      59.055  -2.932  28.880  0.00  0.00     0.002 A 
ATOM     20  C   UNL d   1      58.696  -2.382  29.370  0.00  0.00     0.019 A 
ENDBRANCH   1  14
TORSDOF 5
ENDMDL
MODEL 5
REMARK VINA RESULT:      -3.3      1.640      5.225
REMARK  5 active torsions:
REMARK  status: ('A' for Active; 'I' for Inactive)
REMARK    1  A    between atoms: N_2  and  C_1 
REMARK    2  A    between atoms: C_9  and  C_5 
REMARK       I    between atoms: N_6  and  C_7 
REMARK    3  A    between atoms: C_11  and  N_6 
REMARK    4  A    between atoms: C_7  and  C_10 
REMARK    5  A    between atoms: C_10  and  C_9 
ROOT
ATOM      1  N   UNL d   1      56.454   0.680  33.274  0.00  0.00    -0.208 NA
ATOM      2  C   UNL d   1      56.367   0.347  32.551  0.00  0.00     0.279 C 
ATOM      3  O   UNL d   1      55.662   0.003  32.322  0.00  0.00    -0.265 OA
ENDROOT
BRANCH   2   4
ATOM      4  C   UNL d   1      57.003   0.349  32.022  0.00  0.00     0.063 C 
BRANCH   4   5
ATOM      5  C   UNL d   1      57.119  -0.280  31.484  0.00  0.00     0.011 C 
BRANCH   5   6
ATOM      6  C   UNL d   1      57.662  -0.226  30.888  0.00  0.00     0.031 A 
ATOM      7  S   UNL d   1      57.944  -0.775  30.342  0.00  0.00    -0.064 SA
ATOM      8  C   UNL d   1      58.486  -0.395  29.881  0.00  0.00     0.156 A 
ATOM      9  C   UNL d   1      58.548   0.375  30.126  0.00  0.00     0.031 A 
ATOM     10  C   UNL d   1      58.047   0.490  30.743  0.00  0.00     0.009 A 
BRANCH   8  11
ATOM     11  N   UNL d   1      58.904  -0.762  29.255  0.00  0.00    -0.107 N 
ATOM     12  O   UNL d   1      58.690  -0.669  28.481  0.00  0.00    -0.531 OA
ATOM     13  O   UNL d   1      59.562  -1.237  29.450  0.00  0.00    -0.531 OA
ENDBRANCH   8  11
ENDBRANCH   5   6
ENDBRANCH   4   5
ENDBRANCH   2   4
BRANCH   1  14
ATOM     14  C   UNL d   1      55.822   0.679  33.801  0.00  0.00     0.085 A 
ATOM     15  C   UNL d   1      55.964   0.679  34.618  0.00  0.00     0.018 A 
ATOM     16  C   UNL d   1      56.737   0.681  34.899  0.00  0.00     0.002 C 
ATOM     17  C   UNL d   1      55.334   0.678  35.143  0.00  0.00     0.002 A 
ATOM     18  C   UNL d   1      54.551   0.676  34.860  0.00  0.00     0.000 A 
ATOM     19  C   UNL d   1      54.417   0.675  34.043  0.00  0.00     0.002 A 
ATOM     20  C   UNL d   1      55.046   0.677  33.518  0.00  0.00     0.019 A 
ENDBRANCH   1  14
TORSDOF 5
ENDMDL
