MODEL 1
REMARK VINA RESULT:      73.9      0.000      0.000
REMARK  3 active torsions:
REMARK  status: ('A' for Active; 'I' for Inactive)
REMARK    1  A    between atoms: N_10  and  C_7 
REMARK       I    between atoms: C_9  and  N_10 
REMARK    2  A    between atoms: C_12  and  C_9 
REMARK    3  A    between atoms: O_20  and  C_17 
ROOT
ATOM      1  C   UNL d   1     -55.293-101.533 -43.777  0.00  0.00     0.081 A 
ATOM      2  C   UNL d   1     -55.380-101.565 -44.590  0.00  0.00     0.301 A 
ATOM      3  C   UNL d   1     -55.533-100.876 -43.345  0.00  0.00     0.090 A 
ATOM      4  O   UNL d   1     -55.720-100.916 -44.988  0.00  0.00    -0.273 OA
ATOM      5  N   UNL d   1     -55.440-100.855 -42.523  0.00  0.00    -0.226 NA
ATOM      6  C   UNL d   1     -55.869-100.235 -43.742  0.00  0.00     0.041 A 
ATOM      7  C   UNL d   1     -55.100-101.507 -42.134  0.00  0.00     0.166 A 
ATOM      8  C   UNL d   1     -54.955-102.181 -43.382  0.00  0.00     0.010 A 
ATOM      9  C   UNL d   1     -55.964-100.252 -44.565  0.00  0.00     0.105 A 
ATOM     10  C   UNL d   1     -54.858-102.168 -42.561  0.00  0.00     0.039 A 
ATOM     11  O   UNL d   1     -55.137-102.230 -45.021  0.00  0.00    -0.259 OA
ATOM     12  C   UNL d   1     -56.113 -99.570 -43.315  0.00  0.00     0.004 A 
ATOM     13  C   UNL d   1     -54.715-102.838 -43.818  0.00  0.00     0.000 C 
ATOM     14  C   UNL d   1     -56.296 -99.619 -44.958  0.00  0.00     0.025 A 
ATOM     15  C   UNL d   1     -56.448 -98.934 -43.717  0.00  0.00     0.000 A 
ATOM     16  C   UNL d   1     -56.539 -98.958 -44.539  0.00  0.00     0.002 A 
ENDROOT
BRANCH   7  17
ATOM     17  N   UNL d   1     -55.004-101.489 -41.304  0.00  0.00    -0.189 NA
ATOM     18  C   UNL d   1     -55.187-102.157 -40.858  0.00  0.00     0.281 C 
ATOM     19  O   UNL d   1     -55.466-102.844 -41.233  0.00  0.00    -0.265 OA
BRANCH  18  20
ATOM     20  C   UNL d   1     -55.095-102.144 -40.049  0.00  0.00     0.060 A 
ATOM     21  C   UNL d   1     -54.991-101.444 -39.666  0.00  0.00     0.029 A 
ATOM     22  C   UNL d   1     -54.897-101.431 -38.841  0.00  0.00     0.094 A 
ATOM     23  C   UNL d   1     -54.909-102.121 -38.409  0.00  0.00     0.024 A 
ATOM     24  C   UNL d   1     -55.019-102.845 -38.812  0.00  0.00     0.002 A 
ATOM     25  C   UNL d   1     -55.111-102.855 -39.626  0.00  0.00     0.005 A 
BRANCH  22  26
ATOM     26  O   UNL d   1     -54.789-100.706 -38.449  0.00  0.00    -0.328 OA
ATOM     27  C   UNL d   1     -54.795-100.680 -37.611  0.00  0.00     0.181 C 
ENDBRANCH  22  26
ENDBRANCH  18  20
ENDBRANCH   7  17
TORSDOF 3
ENDMDL
