MODEL 1
REMARK VINA RESULT:      -5.1      0.000      0.000
REMARK  6 active torsions:
REMARK  status: ('A' for Active; 'I' for Inactive)
REMARK    1  A    between atoms: S_2  and  C_1 
REMARK    2  A    between atoms: C_9  and  S_2 
REMARK    3  A    between atoms: N_10  and  C_6 
REMARK    4  A    between atoms: C_13  and  N_10 
REMARK    5  A    between atoms: N_12  and  C_14 
REMARK    6  A    between atoms: C_14  and  C_13 
ROOT
ATOM      1  C   UNL d   1     -41.621-122.673 -51.137  0.00  0.00     0.187 A 
ATOM      2  N   UNL d   1     -41.670-123.144 -51.808  0.00  0.00    -0.208 NA
ATOM      3  C   UNL d   1     -41.281-121.953 -51.353  0.00  0.00     0.118 A 
ATOM      4  S   UNL d   1     -41.123-121.984 -52.160  0.00  0.00    -0.035 SA
ATOM      5  C   UNL d   1     -41.362-122.716 -52.440  0.00  0.00     0.196 A 
ATOM      6 CL   UNL d   1     -41.128-121.316 -50.852  0.00  0.00    -0.073 Cl
ENDROOT
BRANCH   1   7
ATOM      7  S   UNL d   1     -41.865-122.880 -50.380  0.00  0.00     0.228 S 
ATOM      8  O   UNL d   1     -42.563-122.452 -50.430  0.00  0.00    -0.216 OA
ATOM      9  O   UNL d   1     -41.170-123.309 -50.325  0.00  0.00    -0.216 OA
BRANCH   7  10
ATOM     10  C   UNL d   1     -42.040-123.134 -49.608  0.00  0.00     0.089 A 
ATOM     11  C   UNL d   1     -42.815-123.113 -49.339  0.00  0.00     0.011 A 
ATOM     12  C   UNL d   1     -42.993-123.367 -48.566  0.00  0.00     0.001 A 
ATOM     13  C   UNL d   1     -42.386-123.640 -48.070  0.00  0.00     0.000 A 
ATOM     14  C   UNL d   1     -41.600-123.660 -48.347  0.00  0.00     0.001 A 
ATOM     15  C   UNL d   1     -41.424-123.407 -49.115  0.00  0.00     0.011 A 
ENDBRANCH   7  10
ENDBRANCH   1   7
BRANCH   5  16
ATOM     16  N   UNL d   1     -41.303-122.975 -53.217  0.00  0.00    -0.218 NA
BRANCH  16  17
ATOM     17  C   UNL d   1     -41.699-122.565 -53.805  0.00  0.00     0.120 C 
BRANCH  17  18
ATOM     18  C   UNL d   1     -41.545-122.734 -54.594  0.00  0.00     0.101 C 
BRANCH  18  19
ATOM     19  N   UNL d   1     -42.056-122.411 -55.159  0.00  0.00    -0.299 N 
ATOM     20  C   UNL d   1     -41.893-121.670 -55.468  0.00  0.00     0.100 C 
ATOM     21  C   UNL d   1     -42.716-122.829 -55.406  0.00  0.00     0.100 C 
ENDBRANCH  18  19
ENDBRANCH  17  18
ENDBRANCH  16  17
ENDBRANCH   5  16
TORSDOF 6
ENDMDL
MODEL 2
REMARK VINA RESULT:      -4.1      1.660      4.939
REMARK  6 active torsions:
REMARK  status: ('A' for Active; 'I' for Inactive)
REMARK    1  A    between atoms: S_2  and  C_1 
REMARK    2  A    between atoms: C_9  and  S_2 
REMARK    3  A    between atoms: N_10  and  C_6 
REMARK    4  A    between atoms: C_13  and  N_10 
REMARK    5  A    between atoms: N_12  and  C_14 
REMARK    6  A    between atoms: C_14  and  C_13 
ROOT
ATOM      1  C   UNL d   1     -41.682-122.470 -52.732  0.00  0.00     0.187 A 
ATOM      2  N   UNL d   1     -41.872-122.011 -52.079  0.00  0.00    -0.208 NA
ATOM      3  C   UNL d   1     -41.382-123.190 -52.462  0.00  0.00     0.118 A 
ATOM      4  S   UNL d   1     -41.389-123.170 -51.640  0.00  0.00    -0.035 SA
ATOM      5  C   UNL d   1     -41.690-122.446 -51.403  0.00  0.00     0.196 A 
ATOM      6 CL   UNL d   1     -41.123-123.817 -52.931  0.00  0.00    -0.073 Cl
ENDROOT
BRANCH   1   7
ATOM      7  S   UNL d   1     -41.773-122.254 -53.519  0.00  0.00     0.228 S 
ATOM      8  O   UNL d   1     -41.126-121.751 -53.513  0.00  0.00    -0.216 OA
ATOM      9  O   UNL d   1     -42.421-122.756 -53.532  0.00  0.00    -0.216 OA
BRANCH   7  10
ATOM     10  C   UNL d   1     -41.933-122.088 -54.318  0.00  0.00     0.089 A 
ATOM     11  C   UNL d   1     -41.317-121.893 -54.825  0.00  0.00     0.011 A 
ATOM     12  C   UNL d   1     -41.474-121.726 -55.625  0.00  0.00     0.001 A 
ATOM     13  C   UNL d   1     -42.254-121.757 -55.909  0.00  0.00     0.000 A 
ATOM     14  C   UNL d   1     -42.877-121.956 -55.391  0.00  0.00     0.001 A 
ATOM     15  C   UNL d   1     -42.720-122.121 -54.597  0.00  0.00     0.011 A 
ENDBRANCH   7  10
ENDBRANCH   1   7
BRANCH   5  16
ATOM     16  N   UNL d   1     -41.791-122.198 -50.626  0.00  0.00    -0.218 NA
BRANCH  16  17
ATOM     17  C   UNL d   1     -42.067-122.733 -50.071  0.00  0.00     0.120 C 
BRANCH  17  18
ATOM     18  C   UNL d   1     -42.567-122.478 -49.472  0.00  0.00     0.101 C 
BRANCH  18  19
ATOM     19  N   UNL d   1     -42.630-122.954 -48.798  0.00  0.00    -0.299 N 
ATOM     20  C   UNL d   1     -43.016-123.674 -48.854  0.00  0.00     0.100 C 
ATOM     21  C   UNL d   1     -42.310-122.707 -48.086  0.00  0.00     0.100 C 
ENDBRANCH  18  19
ENDBRANCH  17  18
ENDBRANCH  16  17
ENDBRANCH   5  16
TORSDOF 6
ENDMDL
