MODEL 1
REMARK VINA RESULT:      -2.5      0.000      0.000
REMARK  5 active torsions:
REMARK  status: ('A' for Active; 'I' for Inactive)
REMARK    1  A    between atoms: N_2  and  C_1 
REMARK    2  A    between atoms: N_3  and  C_1 
REMARK       I    between atoms: C_4  and  N_2 
REMARK    3  A    between atoms: C_15  and  C_4 
REMARK    4  A    between atoms: O_17  and  C_9 
REMARK    5  A    between atoms: O_18  and  C_10 
ROOT
ATOM      1  N   UNL d   1      32.794  18.517 -23.393  0.00  0.00    -0.281 N 
ATOM      2  C   UNL d   1      32.873  19.670 -22.539  0.00  0.00     0.020 A 
ATOM      3  C   UNL d   1      32.752  18.860 -22.642  0.00  0.00     0.082 A 
ATOM      4  C   UNL d   1      33.038  20.145 -23.203  0.00  0.00     0.005 A 
ATOM      5  C   UNL d   1      32.833  20.017 -21.794  0.00  0.00     0.028 A 
ATOM      6  C   UNL d   1      32.955  20.825 -21.702  0.00  0.00     0.116 A 
ATOM      7  C   UNL d   1      33.119  21.296 -22.360  0.00  0.00     0.116 A 
ATOM      8  C   UNL d   1      33.161  20.957 -23.108  0.00  0.00     0.026 A 
ATOM      9  C   UNL d   1      32.960  18.994 -24.060  0.00  0.00     0.082 A 
ATOM     10  C   UNL d   1      33.083  19.813 -23.961  0.00  0.00     0.019 A 
ENDROOT
BRANCH   1  11
ATOM     11  C   UNL d   1      32.672  17.702 -23.490  0.00  0.00     0.209 C 
ATOM     12  S   UNL d   1      33.239  17.168 -23.220  0.00  0.00    -0.038 SA
BRANCH  11  13
ATOM     13  N   UNL d   1      31.984  17.430 -23.855  0.00  0.00    -0.180 NA
ATOM     14  C   UNL d   1      31.697  16.676 -23.678  0.00  0.00     0.281 C 
ATOM     15  O   UNL d   1      32.099  16.199 -23.138  0.00  0.00    -0.265 OA
BRANCH  14  16
ATOM     16  C   UNL d   1      31.007  16.405 -24.046  0.00  0.00     0.058 A 
ATOM     17  C   UNL d   1      30.274  16.634 -23.749  0.00  0.00     0.005 A 
ATOM     18  C   UNL d   1      29.585  16.368 -24.111  0.00  0.00     0.000 A 
ATOM     19  C   UNL d   1      29.632  15.872 -24.769  0.00  0.00     0.000 A 
ATOM     20  C   UNL d   1      30.374  15.644 -25.064  0.00  0.00     0.000 A 
ATOM     21  C   UNL d   1      31.063  15.914 -24.697  0.00  0.00     0.005 A 
ENDBRANCH  14  16
ENDBRANCH  11  13
ENDBRANCH   1  11
BRANCH   6  22
ATOM     22  O   UNL d   1      32.913  21.164 -20.953  0.00  0.00    -0.326 OA
ATOM     23  C   UNL d   1      32.970  20.689 -20.281  0.00  0.00     0.181 C 
ENDBRANCH   6  22
BRANCH   7  24
ATOM     24  O   UNL d   1      33.241  22.110 -22.263  0.00  0.00    -0.326 OA
ATOM     25  C   UNL d   1      32.990  22.638 -22.843  0.00  0.00     0.181 C 
ENDBRANCH   7  24
TORSDOF 5
ENDMDL
MODEL 2
REMARK VINA RESULT:      -0.8      1.943      5.557
REMARK  5 active torsions:
REMARK  status: ('A' for Active; 'I' for Inactive)
REMARK    1  A    between atoms: N_2  and  C_1 
REMARK    2  A    between atoms: N_3  and  C_1 
REMARK       I    between atoms: C_4  and  N_2 
REMARK    3  A    between atoms: C_15  and  C_4 
REMARK    4  A    between atoms: O_17  and  C_9 
REMARK    5  A    between atoms: O_18  and  C_10 
ROOT
ATOM      1  N   UNL d   1      33.020  20.228 -22.175  0.00  0.00    -0.281 N 
ATOM      2  C   UNL d   1      32.668  19.105 -23.000  0.00  0.00     0.020 A 
ATOM      3  C   UNL d   1      32.737  19.920 -22.888  0.00  0.00     0.082 A 
ATOM      4  C   UNL d   1      32.887  18.589 -22.384  0.00  0.00     0.005 A 
ATOM      5  C   UNL d   1      32.387  18.793 -23.707  0.00  0.00     0.028 A 
ATOM      6  C   UNL d   1      32.322  17.979 -23.808  0.00  0.00     0.116 A 
ATOM      7  C   UNL d   1      32.539  17.468 -23.198  0.00  0.00     0.116 A 
ATOM      8  C   UNL d   1      32.821  17.772 -22.487  0.00  0.00     0.026 A 
ATOM      9  C   UNL d   1      33.241  19.710 -21.556  0.00  0.00     0.082 A 
ATOM     10  C   UNL d   1      33.173  18.886 -21.664  0.00  0.00     0.019 A 
ENDROOT
BRANCH   1  11
ATOM     11  C   UNL d   1      33.087  21.048 -22.069  0.00  0.00     0.209 C 
ATOM     12  S   UNL d   1      33.239  21.534 -22.718  0.00  0.00    -0.038 SA
BRANCH  11  13
ATOM     13  N   UNL d   1      33.002  21.374 -21.316  0.00  0.00    -0.180 NA
ATOM     14  C   UNL d   1      32.729  22.149 -21.234  0.00  0.00     0.281 C 
ATOM     15  O   UNL d   1      32.542  22.593 -21.903  0.00  0.00    -0.265 OA
BRANCH  14  16
ATOM     16  C   UNL d   1      32.644  22.474 -20.477  0.00  0.00     0.058 A 
ATOM     17  C   UNL d   1      33.199  22.297 -19.897  0.00  0.00     0.005 A 
ATOM     18  C   UNL d   1      33.121  22.617 -19.143  0.00  0.00     0.000 A 
ATOM     19  C   UNL d   1      32.485  23.114 -18.973  0.00  0.00     0.000 A 
ATOM     20  C   UNL d   1      31.926  23.290 -19.562  0.00  0.00     0.000 A 
ATOM     21  C   UNL d   1      32.011  22.965 -20.318  0.00  0.00     0.005 A 
ENDBRANCH  14  16
ENDBRANCH  11  13
ENDBRANCH   1  11
BRANCH   6  22
ATOM     22  O   UNL d   1      32.040  17.676 -24.519  0.00  0.00    -0.326 OA
ATOM     23  C   UNL d   1      31.743  18.184 -25.097  0.00  0.00     0.181 C 
ENDBRANCH   6  22
BRANCH   7  24
ATOM     24  O   UNL d   1      32.472  16.648 -23.304  0.00  0.00    -0.326 OA
ATOM     25  C   UNL d   1      32.660  16.135 -22.689  0.00  0.00     0.181 C 
ENDBRANCH   7  24
TORSDOF 5
ENDMDL
MODEL 3
REMARK VINA RESULT:      -0.3      1.358      5.035
REMARK  5 active torsions:
REMARK  status: ('A' for Active; 'I' for Inactive)
REMARK    1  A    between atoms: N_2  and  C_1 
REMARK    2  A    between atoms: N_3  and  C_1 
REMARK       I    between atoms: C_4  and  N_2 
REMARK    3  A    between atoms: C_15  and  C_4 
REMARK    4  A    between atoms: O_17  and  C_9 
REMARK    5  A    between atoms: O_18  and  C_10 
ROOT
ATOM      1  N   UNL d   1      32.837  19.410 -23.948  0.00  0.00    -0.281 N 
ATOM      2  C   UNL d   1      32.743  17.986 -23.773  0.00  0.00     0.020 A 
ATOM      3  C   UNL d   1      32.962  18.731 -23.492  0.00  0.00     0.082 A 
ATOM      4  C   UNL d   1      32.393  17.921 -24.526  0.00  0.00     0.005 A 
ATOM      5  C   UNL d   1      32.865  17.308 -23.324  0.00  0.00     0.028 A 
ATOM      6  C   UNL d   1      32.643  16.570 -23.613  0.00  0.00     0.116 A 
ATOM      7  C   UNL d   1      32.296  16.505 -24.359  0.00  0.00     0.116 A 
ATOM      8  C   UNL d   1      32.171  17.179 -24.814  0.00  0.00     0.026 A 
ATOM      9  C   UNL d   1      32.485  19.344 -24.705  0.00  0.00     0.082 A 
ATOM     10  C   UNL d   1      32.262  18.594 -24.992  0.00  0.00     0.019 A 
ENDROOT
BRANCH   1  11
ATOM     11  C   UNL d   1      33.058  20.155 -23.660  0.00  0.00     0.209 C 
ATOM     12  S   UNL d   1      33.238  20.762 -24.189  0.00  0.00    -0.038 SA
BRANCH  11  13
ATOM     13  N   UNL d   1      33.098  20.287 -22.847  0.00  0.00    -0.180 NA
ATOM     14  C   UNL d   1      33.117  21.060 -22.557  0.00  0.00     0.281 C 
ATOM     15  O   UNL d   1      33.097  21.697 -23.081  0.00  0.00    -0.265 OA
BRANCH  14  16
ATOM     16  C   UNL d   1      33.157  21.189 -21.741  0.00  0.00     0.058 A 
ATOM     17  C   UNL d   1      33.201  21.959 -21.455  0.00  0.00     0.005 A 
ATOM     18  C   UNL d   1      33.240  22.094 -20.644  0.00  0.00     0.000 A 
ATOM     19  C   UNL d   1      33.237  21.455 -20.122  0.00  0.00     0.000 A 
ATOM     20  C   UNL d   1      33.193  20.680 -20.415  0.00  0.00     0.000 A 
ATOM     21  C   UNL d   1      33.153  20.551 -21.230  0.00  0.00     0.005 A 
ENDBRANCH  14  16
ENDBRANCH  11  13
ENDBRANCH   1  11
BRANCH   6  22
ATOM     22  O   UNL d   1      32.769  15.897 -23.157  0.00  0.00    -0.326 OA
ATOM     23  C   UNL d   1      33.075  15.965 -22.394  0.00  0.00     0.181 C 
ENDBRANCH   6  22
BRANCH   7  24
ATOM     24  O   UNL d   1      32.075  15.760 -24.647  0.00  0.00    -0.326 OA
ATOM     25  C   UNL d   1      31.283  15.591 -24.791  0.00  0.00     0.181 C 
ENDBRANCH   7  24
TORSDOF 5
ENDMDL
