MODEL 1
REMARK VINA RESULT:      27.0      0.000      0.000
REMARK  0 active torsions:
REMARK  status: ('A' for Active; 'I' for Inactive)
ROOT
ATOM      1  C   UNL d   1     -57.577 -98.811 -44.640  0.00  0.00     0.166 A 
ATOM      2  C   UNL d   1     -57.552 -98.821 -43.813  0.00  0.00     0.117 A 
ATOM      3  N   UNL d   1     -58.373 -98.784 -44.879  0.00  0.00    -0.288 N 
ATOM      4  C   UNL d   1     -58.332 -98.801 -43.539  0.00  0.00     0.037 A 
ATOM      5  N   UNL d   1     -56.882 -98.826 -45.088  0.00  0.00    -0.225 NA
ATOM      6  C   UNL d   1     -58.822 -98.779 -44.196  0.00  0.00     0.067 A 
ATOM      7  N   UNL d   1     -56.827 -98.847 -43.433  0.00  0.00    -0.241 NA
ATOM      8  C   UNL d   1     -56.156 -98.852 -44.708  0.00  0.00     0.101 A 
ATOM      9  C   UNL d   1     -56.130 -98.862 -43.876  0.00  0.00     0.099 A 
ATOM     10  C   UNL d   1     -59.652 -98.756 -44.079  0.00  0.00     0.018 A 
ATOM     11  C   UNL d   1     -58.639 -98.801 -42.759  0.00  0.00     0.003 A 
ATOM     12  C   UNL d   1     -58.981 -98.760 -45.445  0.00  0.00     0.101 C 
ATOM     13  C   UNL d   1     -59.441 -98.778 -42.656  0.00  0.00     0.000 A 
ATOM     14  C   UNL d   1     -59.931 -98.756 -43.303  0.00  0.00     0.002 A 
ATOM     15  C   UNL d   1     -55.417 -98.887 -43.528  0.00  0.00     0.021 A 
ATOM     16  C   UNL d   1     -55.459 -98.867 -45.152  0.00  0.00     0.021 A 
ATOM     17  C   UNL d   1     -59.801 -98.776 -41.965  0.00  0.00     0.000 C 
ATOM     18  C   UNL d   1     -54.712 -98.903 -43.948  0.00  0.00     0.002 A 
ATOM     19  C   UNL d   1     -54.737 -98.893 -44.773  0.00  0.00     0.002 A 
ENDROOT
TORSDOF 0
ENDMDL
