MODEL 1
REMARK VINA RESULT:      53.1      0.000      0.000
REMARK  3 active torsions:
REMARK  status: ('A' for Active; 'I' for Inactive)
REMARK    1  A    between atoms: N_7  and  C_1 
REMARK    2  A    between atoms: C_11  and  N_3 
REMARK       I    between atoms: C_9  and  N_7 
REMARK    3  A    between atoms: C_12  and  C_9 
ROOT
ATOM      1  C   UNL d   1     -50.965  25.747  33.427  0.00  0.00     0.169 A 
ATOM      2  C   UNL d   1     -51.406  26.395  33.400  0.00  0.00     0.067 A 
ATOM      3  N   UNL d   1     -50.212  25.966  33.389  0.00  0.00    -0.212 N 
ATOM      4  C   UNL d   1     -50.923  27.020  33.346  0.00  0.00     0.116 A 
ATOM      5  N   UNL d   1     -50.188  26.753  33.339  0.00  0.00    -0.163 NA
ATOM      6  S   UNL d   1     -52.123  27.439  33.357  0.00  0.00     0.213 S 
ATOM      7  C   UNL d   1     -51.369  27.662  33.320  0.00  0.00     0.120 A 
ATOM      8  C   UNL d   1     -52.145  26.656  33.407  0.00  0.00     0.103 A 
ATOM      9  O   UNL d   1     -52.020  28.213  33.306  0.00  0.00    -0.217 OA
ATOM     10  O   UNL d   1     -52.758  27.198  33.392  0.00  0.00    -0.217 OA
ENDROOT
BRANCH   1  11
ATOM     11  N   UNL d   1     -51.526  25.310  33.471  0.00  0.00    -0.187 NA
ATOM     12  C   UNL d   1     -51.669  24.320  33.645  0.00  0.00     0.303 C 
ATOM     13  O   UNL d   1     -51.080  23.843  33.771  0.00  0.00    -0.263 OA
BRANCH  12  14
ATOM     14  C   UNL d   1     -52.442  24.018  33.651  0.00  0.00     0.158 A 
ATOM     15  O   UNL d   1     -53.124  24.381  33.999  0.00  0.00    -0.300 OA
ATOM     16  C   UNL d   1     -53.780  23.878  33.870  0.00  0.00     0.123 A 
ATOM     17  C   UNL d   1     -53.517  23.203  33.446  0.00  0.00     0.029 A 
ATOM     18  C   UNL d   1     -52.695  23.282  33.308  0.00  0.00     0.032 A 
ENDBRANCH  12  14
ENDBRANCH   1  11
BRANCH   3  19
ATOM     19  C   UNL d   1     -49.548  25.454  33.400  0.00  0.00     0.085 A 
ATOM     20  C   UNL d   1     -49.664  24.627  33.506  0.00  0.00     0.031 A 
ATOM     21  C   UNL d   1     -49.012  24.124  33.517  0.00  0.00     0.059 A 
ATOM     22 CL   UNL d   1     -49.112  23.298  33.620  0.00  0.00    -0.082 Cl
ATOM     23  C   UNL d   1     -48.230  24.438  33.422  0.00  0.00     0.011 A 
ATOM     24  C   UNL d   1     -48.130  25.263  33.319  0.00  0.00     0.002 A 
ATOM     25  C   UNL d   1     -48.787  25.761  33.309  0.00  0.00     0.019 A 
ENDBRANCH   3  19
TORSDOF 3
ENDMDL
