MODEL 1
REMARK VINA RESULT:       1.7      0.000      0.000
REMARK  5 active torsions:
REMARK  status: ('A' for Active; 'I' for Inactive)
REMARK    1  A    between atoms: N_2  and  S_1 
REMARK    2  A    between atoms: C_11  and  S_1 
REMARK    3  A    between atoms: C_3  and  N_9 
REMARK    4  A    between atoms: N_9  and  N_16 
REMARK    5  A    between atoms: N_16  and  C_23 
ROOT
ATOM      1  C   UNL d   1      55.979   0.173  33.230  0.00  0.00     0.104 A 
ATOM      2  C   UNL d   1      55.860   0.517  32.482  0.00  0.00     0.015 A 
ATOM      3  C   UNL d   1      56.636  -0.314  33.342  0.00  0.00     0.015 A 
ATOM      4  C   UNL d   1      57.030  -0.104  31.987  0.00  0.00     0.103 A 
ATOM      5  C   UNL d   1      57.153  -0.451  32.734  0.00  0.00     0.022 A 
ATOM      6  C   UNL d   1      56.378   0.381  31.870  0.00  0.00     0.022 A 
ENDROOT
BRANCH   1   7
ATOM      7  S   UNL d   1      55.458   0.307  33.856  0.00  0.00     0.271 S 
ATOM      8  O   UNL d   1      55.989  -0.072  34.368  0.00  0.00    -0.200 OA
ATOM      9  O   UNL d   1      54.937   0.677  33.358  0.00  0.00    -0.200 OA
BRANCH   7  10
ATOM     10  N   UNL d   1      54.937   0.438  34.492  0.00  0.00    -0.231 N 
ATOM     11  C   UNL d   1      54.101   0.472  34.475  0.00  0.00     0.075 A 
ATOM     12  C   UNL d   1      53.828   0.615  35.240  0.00  0.00     0.018 A 
ATOM     13  C   UNL d   1      53.573   0.387  33.843  0.00  0.00     0.018 A 
ATOM     14  C   UNL d   1      53.027   0.677  35.400  0.00  0.00     0.002 A 
ATOM     15  C   UNL d   1      54.500   0.672  35.742  0.00  0.00     0.021 A 
ATOM     16  C   UNL d   1      52.486   0.595  34.782  0.00  0.00     0.000 A 
ATOM     17  C   UNL d   1      52.766   0.450  34.004  0.00  0.00     0.002 A 
ATOM     18  C   UNL d   1      55.157   0.565  35.290  0.00  0.00     0.092 A 
ENDBRANCH   7  10
ENDBRANCH   1   7
BRANCH   4  19
ATOM     19  N   UNL d   1      57.553  -0.238  31.358  0.00  0.00    -0.148 NA
BRANCH  19  20
ATOM     20  N   UNL d   1      57.886   0.384  30.970  0.00  0.00    -0.138 NA
BRANCH  20  21
ATOM     21  C   UNL d   1      58.494   0.258  30.420  0.00  0.00     0.218 A 
ATOM     22  C   UNL d   1      59.251   0.404  30.624  0.00  0.00     0.305 A 
ATOM     23  N   UNL d   1      59.867   0.278  30.072  0.00  0.00    -0.177 NA
ATOM     24  O   UNL d   1      59.422   0.681  31.389  0.00  0.00    -0.263 OA
ATOM     25  C   UNL d   1      59.710   0.012  29.337  0.00  0.00     0.226 A 
ATOM     26  N   UNL d   1      58.939  -0.148  29.096  0.00  0.00    -0.177 NA
ATOM     27  S   UNL d   1      60.354  -0.110  28.786  0.00  0.00    -0.037 SA
ATOM     28  C   UNL d   1      58.319  -0.021  29.651  0.00  0.00     0.305 A 
ATOM     29  O   UNL d   1      57.536  -0.175  29.431  0.00  0.00    -0.263 OA
ENDBRANCH  20  21
ENDBRANCH  19  20
ENDBRANCH   4  19
TORSDOF 5
ENDMDL
MODEL 2
REMARK VINA RESULT:       2.3      2.368      3.574
REMARK  5 active torsions:
REMARK  status: ('A' for Active; 'I' for Inactive)
REMARK    1  A    between atoms: N_2  and  S_1 
REMARK    2  A    between atoms: C_11  and  S_1 
REMARK    3  A    between atoms: C_3  and  N_9 
REMARK    4  A    between atoms: N_9  and  N_16 
REMARK    5  A    between atoms: N_16  and  C_23 
ROOT
ATOM      1  C   UNL d   1      57.739  -0.578  30.640  0.00  0.00     0.104 A 
ATOM      2  C   UNL d   1      57.549  -0.811  29.865  0.00  0.00     0.015 A 
ATOM      3  C   UNL d   1      58.531  -0.580  30.872  0.00  0.00     0.015 A 
ATOM      4  C   UNL d   1      58.915  -1.037  29.576  0.00  0.00     0.103 A 
ATOM      5  C   UNL d   1      59.111  -0.805  30.352  0.00  0.00     0.022 A 
ATOM      6  C   UNL d   1      58.129  -1.038  29.341  0.00  0.00     0.022 A 
ENDROOT
BRANCH   1   7
ATOM      7  S   UNL d   1      57.157  -0.347  31.178  0.00  0.00     0.271 S 
ATOM      8  O   UNL d   1      56.919  -1.138  31.247  0.00  0.00    -0.200 OA
ATOM      9  O   UNL d   1      57.387   0.426  31.112  0.00  0.00    -0.200 OA
BRANCH   7  10
ATOM     10  N   UNL d   1      56.567  -0.121  31.721  0.00  0.00    -0.231 N 
ATOM     11  C   UNL d   1      56.271  -0.555  32.371  0.00  0.00     0.075 A 
ATOM     12  C   UNL d   1      55.692  -0.105  32.747  0.00  0.00     0.018 A 
ATOM     13  C   UNL d   1      56.473  -1.309  32.650  0.00  0.00     0.018 A 
ATOM     14  C   UNL d   1      55.298  -0.386  33.408  0.00  0.00     0.002 A 
ATOM     15  C   UNL d   1      55.624   0.621  32.328  0.00  0.00     0.021 A 
ATOM     16  C   UNL d   1      55.487  -1.135  33.700  0.00  0.00     0.000 A 
ATOM     17  C   UNL d   1      56.077  -1.592  33.315  0.00  0.00     0.002 A 
ATOM     18  C   UNL d   1      56.148   0.604  31.718  0.00  0.00     0.092 A 
ENDBRANCH   7  10
ENDBRANCH   1   7
BRANCH   4  19
ATOM     19  N   UNL d   1      59.500  -1.269  29.037  0.00  0.00    -0.148 NA
BRANCH  19  20
ATOM     20  N   UNL d   1      59.339  -1.832  28.483  0.00  0.00    -0.138 NA
BRANCH  20  21
ATOM     21  C   UNL d   1      59.754  -2.550  28.482  0.00  0.00     0.218 A 
ATOM     22  C   UNL d   1      60.551  -2.548  28.468  0.00  0.00     0.305 A 
ATOM     23  N   UNL d   1      60.973  -3.270  28.467  0.00  0.00    -0.177 NA
ATOM     24  O   UNL d   1      60.957  -1.824  28.455  0.00  0.00    -0.263 OA
ATOM     25  C   UNL d   1      60.589  -3.969  28.479  0.00  0.00     0.226 A 
ATOM     26  N   UNL d   1      59.766  -4.005  28.494  0.00  0.00    -0.177 NA
ATOM     27  S   UNL d   1      61.038  -4.698  28.477  0.00  0.00    -0.037 SA
ATOM     28  C   UNL d   1      59.341  -3.279  28.495  0.00  0.00     0.305 A 
ATOM     29  O   UNL d   1      58.514  -3.289  28.510  0.00  0.00    -0.263 OA
ENDBRANCH  20  21
ENDBRANCH  19  20
ENDBRANCH   4  19
TORSDOF 5
ENDMDL
MODEL 3
REMARK VINA RESULT:       2.7     10.007     11.045
REMARK  5 active torsions:
REMARK  status: ('A' for Active; 'I' for Inactive)
REMARK    1  A    between atoms: N_2  and  S_1 
REMARK    2  A    between atoms: C_11  and  S_1 
REMARK    3  A    between atoms: C_3  and  N_9 
REMARK    4  A    between atoms: N_9  and  N_16 
REMARK    5  A    between atoms: N_16  and  C_23 
ROOT
ATOM      1  C   UNL d   1      59.098  -9.705  31.660  0.00  0.00     0.104 A 
ATOM      2  C   UNL d   1      58.540  -9.630  32.273  0.00  0.00     0.015 A 
ATOM      3  C   UNL d   1      59.894  -9.800  31.858  0.00  0.00     0.015 A 
ATOM      4  C   UNL d   1      59.562  -9.742  33.244  0.00  0.00     0.103 A 
ATOM      5  C   UNL d   1      60.124  -9.818  32.635  0.00  0.00     0.022 A 
ATOM      6  C   UNL d   1      58.770  -9.648  33.054  0.00  0.00     0.022 A 
ENDROOT
BRANCH   1   7
ATOM      7  S   UNL d   1      58.873  -9.688  30.867  0.00  0.00     0.271 S 
ATOM      8  O   UNL d   1      58.086  -9.577  31.100  0.00  0.00    -0.200 OA
ATOM      9  O   UNL d   1      59.642  -9.797  30.635  0.00  0.00    -0.200 OA
BRANCH   7  10
ATOM     10  N   UNL d   1      58.640  -9.670  30.067  0.00  0.00    -0.231 N 
ATOM     11  C   UNL d   1      57.865  -9.714  29.755  0.00  0.00     0.075 A 
ATOM     12  C   UNL d   1      57.910  -9.674  28.933  0.00  0.00     0.018 A 
ATOM     13  C   UNL d   1      57.135  -9.787  30.140  0.00  0.00     0.018 A 
ATOM     14  C   UNL d   1      57.236  -9.704  28.469  0.00  0.00     0.002 A 
ATOM     15  C   UNL d   1      58.722  -9.603  28.727  0.00  0.00     0.021 A 
ATOM     16  C   UNL d   1      56.499  -9.776  28.835  0.00  0.00     0.000 A 
ATOM     17  C   UNL d   1      56.456  -9.817  29.673  0.00  0.00     0.002 A 
ATOM     18  C   UNL d   1      59.151  -9.602  29.407  0.00  0.00     0.092 A 
ENDBRANCH   7  10
ENDBRANCH   1   7
BRANCH   4  19
ATOM     19  N   UNL d   1      59.788  -9.759  34.042  0.00  0.00    -0.148 NA
BRANCH  19  20
ATOM     20  N   UNL d   1      60.536  -9.548  34.255  0.00  0.00    -0.138 NA
BRANCH  20  21
ATOM     21  C   UNL d   1      60.660  -8.916  34.777  0.00  0.00     0.218 A 
ATOM     22  C   UNL d   1      60.919  -8.215  34.500  0.00  0.00     0.305 A 
ATOM     23  N   UNL d   1      61.046  -7.575  35.024  0.00  0.00    -0.177 NA
ATOM     24  O   UNL d   1      61.063  -8.126  33.686  0.00  0.00    -0.263 OA
ATOM     25  C   UNL d   1      60.910  -7.654  35.806  0.00  0.00     0.226 A 
ATOM     26  N   UNL d   1      60.642  -8.365  36.124  0.00  0.00    -0.177 NA
ATOM     27  S   UNL d   1      61.045  -6.988  36.327  0.00  0.00    -0.037 SA
ATOM     28  C   UNL d   1      60.514  -9.008  35.597  0.00  0.00     0.305 A 
ATOM     29  O   UNL d   1      60.245  -9.733  35.894  0.00  0.00    -0.263 OA
ENDBRANCH  20  21
ENDBRANCH  19  20
ENDBRANCH   4  19
TORSDOF 5
ENDMDL
