MODEL 1
REMARK VINA RESULT:      63.4      0.000      0.000
REMARK  3 active torsions:
REMARK  status: ('A' for Active; 'I' for Inactive)
REMARK    1  A    between atoms: C_8  and  C_1 
REMARK    2  A    between atoms: N_7  and  C_8 
REMARK    3  A    between atoms: C_13  and  C_8 
ROOT
ATOM      1  C   UNL d   1     -55.204-101.070 -44.034  0.00  0.00     0.075 C 
ENDROOT
BRANCH   1   2
ATOM      2  N   UNL d   1     -55.468-100.303 -44.168  0.00  0.00    -0.303 N 
ATOM      3  C   UNL d   1     -56.262-100.119 -44.102  0.00  0.00     0.080 A 
ATOM      4  C   UNL d   1     -56.520 -99.346 -44.238  0.00  0.00     0.018 A 
ATOM      5  C   UNL d   1     -57.315 -99.161 -44.173  0.00  0.00     0.002 C 
ATOM      6  C   UNL d   1     -55.980 -98.755 -44.441  0.00  0.00     0.003 A 
ATOM      7  C   UNL d   1     -55.182 -98.955 -44.504  0.00  0.00     0.019 A 
ATOM      8  C   UNL d   1     -54.922 -99.725 -44.369  0.00  0.00     0.080 A 
ENDBRANCH   1   2
BRANCH   1   9
ATOM      9  C   UNL d   1     -55.104-101.332 -43.258  0.00  0.00     0.106 A 
ATOM     10  C   UNL d   1     -54.899-100.860 -42.604  0.00  0.00     0.290 A 
ATOM     11  N   UNL d   1     -54.860-101.346 -41.941  0.00  0.00    -0.169 N 
ATOM     12  O   UNL d   1     -54.759-100.046 -42.622  0.00  0.00    -0.265 OA
ATOM     13  N   UNL d   1     -54.711-101.360 -41.136  0.00  0.00    -0.138 NA
ATOM     14  C   UNL d   1     -55.039-102.115 -42.179  0.00  0.00     0.200 A 
ATOM     15  C   UNL d   1     -54.797-102.135 -40.870  0.00  0.00     0.222 A 
ATOM     16  N   UNL d   1     -55.000-102.601 -41.516  0.00  0.00    -0.197 NA
ATOM     17  S   UNL d   1     -55.190-102.108 -42.987  0.00  0.00    -0.042 SA
ENDBRANCH   1   9
BRANCH   1  18
ATOM     18  C   UNL d   1     -55.040-101.571 -44.660  0.00  0.00     0.017 A 
ATOM     19  C   UNL d   1     -54.980-101.274 -45.413  0.00  0.00     0.002 A 
ATOM     20  C   UNL d   1     -54.819-101.774 -46.023  0.00  0.00     0.000 A 
ATOM     21  C   UNL d   1     -54.713-102.594 -45.892  0.00  0.00     0.000 A 
ATOM     22  C   UNL d   1     -54.774-102.880 -45.144  0.00  0.00     0.000 A 
ATOM     23  C   UNL d   1     -54.939-102.377 -44.510  0.00  0.00     0.002 A 
ENDBRANCH   1  18
TORSDOF 3
ENDMDL
