MODEL 1
REMARK VINA RESULT:      30.6      0.000      0.000
REMARK  6 active torsions:
REMARK  status: ('A' for Active; 'I' for Inactive)
REMARK       I    between atoms: N_2  and  C_1 
REMARK    1  A    between atoms: C_5  and  C_1 
REMARK    2  A    between atoms: C_3  and  N_2 
REMARK    3  A    between atoms: O_16  and  C_6 
REMARK    4  A    between atoms: O_17  and  C_11 
REMARK    5  A    between atoms: O_18  and  C_12 
REMARK    6  A    between atoms: C_19  and  O_18 
ROOT
ATOM      1  C   UNL d   1      13.968  13.366  -2.296  0.00  0.00     0.279 C 
ATOM      2  N   UNL d   1      14.717  13.172  -2.002  0.00  0.00    -0.206 NA
ATOM      3  O   UNL d   1      13.517  13.941  -1.928  0.00  0.00    -0.265 OA
ENDROOT
BRANCH   1   4
ATOM      4  C   UNL d   1      13.669  12.967  -2.979  0.00  0.00     0.058 A 
ATOM      5  C   UNL d   1      13.471  12.167  -2.927  0.00  0.00     0.007 A 
ATOM      6  C   UNL d   1      13.183  11.783  -3.586  0.00  0.00     0.025 A 
ATOM      7  C   UNL d   1      13.092  12.195  -4.300  0.00  0.00     0.100 A 
ATOM      8  C   UNL d   1      13.293  12.990  -4.339  0.00  0.00     0.025 A 
ATOM      9  C   UNL d   1      13.581  13.374  -3.680  0.00  0.00     0.007 A 
BRANCH   7  10
ATOM     10  O   UNL d   1      12.796  11.798  -4.980  0.00  0.00    -0.305 OA
BRANCH  10  11
ATOM     11  C   UNL d   1      13.248  11.783  -5.670  0.00  0.00     0.123 C 
ATOM     12  C   UNL d   1      12.901  12.001  -6.387  0.00  0.00     0.029 C 
ENDBRANCH  10  11
ENDBRANCH   7  10
ENDBRANCH   1   4
BRANCH   2  13
ATOM     13  C   UNL d   1      15.005  13.557  -1.344  0.00  0.00     0.109 A 
ATOM     14  C   UNL d   1      14.944  14.376  -1.302  0.00  0.00     0.045 A 
ATOM     15  C   UNL d   1      15.231  14.765  -0.646  0.00  0.00     0.096 A 
ATOM     16  C   UNL d   1      15.583  14.350  -0.016  0.00  0.00     0.026 A 
ATOM     17  C   UNL d   1      15.639  13.545  -0.064  0.00  0.00     0.028 A 
ATOM     18  C   UNL d   1      15.353  13.130  -0.725  0.00  0.00     0.112 A 
BRANCH  15  19
ATOM     19  O   UNL d   1      15.161  15.591  -0.622  0.00  0.00    -0.328 OA
ATOM     20  C   UNL d   1      15.825  16.051  -0.431  0.00  0.00     0.181 C 
ENDBRANCH  15  19
BRANCH  18  21
ATOM     21  O   UNL d   1      15.416  12.316  -0.759  0.00  0.00    -0.327 OA
ATOM     22  C   UNL d   1      15.473  11.880  -0.054  0.00  0.00     0.181 C 
ENDBRANCH  18  21
ENDBRANCH   2  13
TORSDOF 6
ENDMDL
