MODEL 1
REMARK VINA RESULT:      -2.9      0.000      0.000
REMARK  3 active torsions:
REMARK  status: ('A' for Active; 'I' for Inactive)
REMARK    1  A    between atoms: N_7  and  C_1 
REMARK    2  A    between atoms: C_11  and  N_3 
REMARK       I    between atoms: C_9  and  N_7 
REMARK    3  A    between atoms: C_12  and  C_9 
ROOT
ATOM      1  C   UNL d   1      33.088  21.477 -22.509  0.00  0.00     0.169 A 
ATOM      2  C   UNL d   1      33.121  22.141 -22.925  0.00  0.00     0.067 A 
ATOM      3  N   UNL d   1      33.135  20.876 -23.013  0.00  0.00    -0.212 N 
ATOM      4  C   UNL d   1      33.189  21.951 -23.690  0.00  0.00     0.116 A 
ATOM      5  N   UNL d   1      33.197  21.171 -23.741  0.00  0.00    -0.163 NA
ATOM      6  S   UNL d   1      33.175  23.219 -23.591  0.00  0.00     0.213 S 
ATOM      7  C   UNL d   1      33.221  22.618 -24.098  0.00  0.00     0.120 A 
ATOM      8  C   UNL d   1      33.113  22.923 -22.866  0.00  0.00     0.103 A 
ATOM      9  O   UNL d   1      33.239  23.435 -24.340  0.00  0.00    -0.217 OA
ATOM     10  O   UNL d   1      33.131  23.702 -23.115  0.00  0.00    -0.217 OA
ENDROOT
BRANCH   1  11
ATOM     11  N   UNL d   1      33.033  21.815 -21.884  0.00  0.00    -0.187 NA
ATOM     12  C   UNL d   1      32.372  21.821 -21.114  0.00  0.00     0.303 C 
ATOM     13  O   UNL d   1      31.741  21.382 -21.119  0.00  0.00    -0.263 OA
BRANCH  12  14
ATOM     14  C   UNL d   1      32.515  22.313 -20.462  0.00  0.00     0.158 A 
ATOM     15  O   UNL d   1      33.160  22.253 -19.915  0.00  0.00    -0.300 OA
ATOM     16  C   UNL d   1      33.080  22.864 -19.350  0.00  0.00     0.123 A 
ATOM     17  C   UNL d   1      32.391  23.308 -19.535  0.00  0.00     0.029 A 
ATOM     18  C   UNL d   1      32.039  22.975 -20.218  0.00  0.00     0.032 A 
ENDBRANCH  12  14
ENDBRANCH   1  11
BRANCH   3  19
ATOM     19  C   UNL d   1      33.121  20.062 -22.812  0.00  0.00     0.085 A 
ATOM     20  C   UNL d   1      32.983  19.489 -23.413  0.00  0.00     0.031 A 
ATOM     21  C   UNL d   1      32.969  18.689 -23.216  0.00  0.00     0.059 A 
ATOM     22 CL   UNL d   1      32.833  18.108 -23.804  0.00  0.00    -0.082 Cl
ATOM     23  C   UNL d   1      33.093  18.446 -22.413  0.00  0.00     0.011 A 
ATOM     24  C   UNL d   1      33.228  19.028 -21.826  0.00  0.00     0.002 A 
ATOM     25  C   UNL d   1      33.241  19.826 -22.030  0.00  0.00     0.019 A 
ENDBRANCH   3  19
TORSDOF 3
ENDMDL
MODEL 2
REMARK VINA RESULT:      -1.8      0.969      1.313
REMARK  3 active torsions:
REMARK  status: ('A' for Active; 'I' for Inactive)
REMARK    1  A    between atoms: N_7  and  C_1 
REMARK    2  A    between atoms: C_11  and  N_3 
REMARK       I    between atoms: C_9  and  N_7 
REMARK    3  A    between atoms: C_12  and  C_9 
ROOT
ATOM      1  C   UNL d   1      33.005  20.602 -23.337  0.00  0.00     0.169 A 
ATOM      2  C   UNL d   1      33.079  21.278 -23.728  0.00  0.00     0.067 A 
ATOM      3  N   UNL d   1      32.953  20.023 -23.866  0.00  0.00    -0.212 N 
ATOM      4  C   UNL d   1      33.073  21.118 -24.503  0.00  0.00     0.116 A 
ATOM      5  N   UNL d   1      32.995  20.344 -24.585  0.00  0.00    -0.163 NA
ATOM      6  S   UNL d   1      33.200  22.374 -24.353  0.00  0.00     0.213 S 
ATOM      7  C   UNL d   1      33.148  21.795 -24.886  0.00  0.00     0.120 A 
ATOM      8  C   UNL d   1      33.158  22.053 -23.638  0.00  0.00     0.103 A 
ATOM      9  O   UNL d   1      33.235  22.617 -25.096  0.00  0.00    -0.217 OA
ATOM     10  O   UNL d   1      33.241  22.837 -23.857  0.00  0.00    -0.217 OA
ENDROOT
BRANCH   1  11
ATOM     11  N   UNL d   1      33.028  20.914 -22.697  0.00  0.00    -0.187 NA
ATOM     12  C   UNL d   1      32.468  20.889 -21.851  0.00  0.00     0.303 C 
ATOM     13  O   UNL d   1      31.840  20.449 -21.796  0.00  0.00    -0.263 OA
BRANCH  12  14
ATOM     14  C   UNL d   1      32.693  21.354 -21.203  0.00  0.00     0.158 A 
ATOM     15  O   UNL d   1      32.531  22.178 -21.091  0.00  0.00    -0.300 OA
ATOM     16  C   UNL d   1      32.864  22.412 -20.360  0.00  0.00     0.123 A 
ATOM     17  C   UNL d   1      33.234  21.743 -20.011  0.00  0.00     0.029 A 
ATOM     18  C   UNL d   1      33.132  21.089 -20.524  0.00  0.00     0.032 A 
ENDBRANCH  12  14
ENDBRANCH   1  11
BRANCH   3  19
ATOM     19  C   UNL d   1      32.867  19.206 -23.696  0.00  0.00     0.085 A 
ATOM     20  C   UNL d   1      32.402  18.724 -24.207  0.00  0.00     0.031 A 
ATOM     21  C   UNL d   1      32.318  17.921 -24.040  0.00  0.00     0.059 A 
ATOM     22 CL   UNL d   1      31.859  17.429 -24.539  0.00  0.00    -0.082 Cl
ATOM     23  C   UNL d   1      32.696  17.585 -23.360  0.00  0.00     0.011 A 
ATOM     24  C   UNL d   1      33.155  18.078 -22.862  0.00  0.00     0.002 A 
ATOM     25  C   UNL d   1      33.235  18.880 -23.034  0.00  0.00     0.019 A 
ENDBRANCH   3  19
TORSDOF 3
ENDMDL
MODEL 3
REMARK VINA RESULT:      -1.5      2.021      3.996
REMARK  3 active torsions:
REMARK  status: ('A' for Active; 'I' for Inactive)
REMARK    1  A    between atoms: N_7  and  C_1 
REMARK    2  A    between atoms: C_11  and  N_3 
REMARK       I    between atoms: C_9  and  N_7 
REMARK    3  A    between atoms: C_12  and  C_9 
ROOT
ATOM      1  C   UNL d   1      32.938  21.741 -21.691  0.00  0.00     0.169 A 
ATOM      2  C   UNL d   1      32.970  21.015 -21.985  0.00  0.00     0.067 A 
ATOM      3  N   UNL d   1      32.895  21.682 -20.909  0.00  0.00    -0.212 N 
ATOM      4  C   UNL d   1      32.947  20.502 -21.383  0.00  0.00     0.116 A 
ATOM      5  N   UNL d   1      32.901  20.916 -20.721  0.00  0.00    -0.163 NA
ATOM      6  S   UNL d   1      33.023  19.844 -22.468  0.00  0.00     0.213 S 
ATOM      7  C   UNL d   1      32.980  19.781 -21.684  0.00  0.00     0.120 A 
ATOM      8  C   UNL d   1      33.017  20.607 -22.653  0.00  0.00     0.103 A 
ATOM      9  O   UNL d   1      33.024  19.107 -22.204  0.00  0.00    -0.217 OA
ATOM     10  O   UNL d   1      33.059  19.950 -23.139  0.00  0.00    -0.217 OA
ENDROOT
BRANCH   1  11
ATOM     11  N   UNL d   1      32.967  22.054 -22.330  0.00  0.00    -0.187 NA
ATOM     12  C   UNL d   1      32.492  22.824 -22.790  0.00  0.00     0.303 C 
ATOM     13  O   UNL d   1      31.947  23.232 -22.434  0.00  0.00    -0.263 OA
BRANCH  12  14
ATOM     14  C   UNL d   1      32.697  23.018 -23.569  0.00  0.00     0.158 A 
ATOM     15  O   UNL d   1      32.469  22.603 -24.271  0.00  0.00    -0.300 OA
ATOM     16  C   UNL d   1      32.804  22.998 -24.928  0.00  0.00     0.123 A 
ATOM     17  C   UNL d   1      33.241  23.658 -24.647  0.00  0.00     0.029 A 
ATOM     18  C   UNL d   1      33.180  23.677 -23.811  0.00  0.00     0.032 A 
ENDBRANCH  12  14
ENDBRANCH   1  11
BRANCH   3  19
ATOM     19  C   UNL d   1      32.850  22.320 -20.367  0.00  0.00     0.085 A 
ATOM     20  C   UNL d   1      32.411  22.229 -19.654  0.00  0.00     0.031 A 
ATOM     21  C   UNL d   1      32.368  22.856 -19.122  0.00  0.00     0.059 A 
ATOM     22 CL   UNL d   1      31.935  22.780 -18.408  0.00  0.00    -0.082 Cl
ATOM     23  C   UNL d   1      32.762  23.587 -19.292  0.00  0.00     0.011 A 
ATOM     24  C   UNL d   1      33.194  23.663 -20.005  0.00  0.00     0.002 A 
ATOM     25  C   UNL d   1      33.234  23.032 -20.533  0.00  0.00     0.019 A 
ENDBRANCH   3  19
TORSDOF 3
ENDMDL
