MODEL 1
REMARK VINA RESULT:      -6.3      0.000      0.000
REMARK  3 active torsions:
REMARK  status: ('A' for Active; 'I' for Inactive)
REMARK    1  A    between atoms: C_11  and  N_2 
REMARK    2  A    between atoms: N_7  and  C_4 
REMARK    3  A    between atoms: C_14  and  C_11 
ROOT
ATOM      1  C   UNL d   1     -39.400  14.648  18.719  0.00  0.00     0.091 A 
ATOM      2  N   UNL d   1     -39.502  15.085  20.073  0.00  0.00    -0.211 N 
ATOM      3  C   UNL d   1     -39.836  14.730  19.412  0.00  0.00     0.170 A 
ATOM      4  C   UNL d   1     -39.741  14.292  18.062  0.00  0.00     0.154 A 
ATOM      5  N   UNL d   1     -38.727  15.360  20.041  0.00  0.00    -0.162 NA
ATOM      6  C   UNL d   1     -38.289  15.278  19.345  0.00  0.00     0.127 A 
ATOM      7  N   UNL d   1     -40.612  14.455  19.445  0.00  0.00    -0.205 NA
ATOM      8  N   UNL d   1     -40.508  14.018  18.087  0.00  0.00    -0.206 NA
ATOM      9  C   UNL d   1     -40.948  14.100  18.786  0.00  0.00     0.202 A 
ENDROOT
BRANCH   2  10
ATOM     10  C   UNL d   1     -39.939  15.166  20.767  0.00  0.00     0.102 C 
BRANCH  10  11
ATOM     11  C   UNL d   1     -39.559  15.184  21.494  0.00  0.00     0.019 A 
ATOM     12  C   UNL d   1     -39.391  15.904  21.855  0.00  0.00     0.002 A 
ATOM     13  C   UNL d   1     -39.009  15.920  22.584  0.00  0.00     0.011 A 
ATOM     14  C   UNL d   1     -38.796  15.215  22.952  0.00  0.00     0.058 A 
ATOM     15  C   UNL d   1     -38.967  14.485  22.587  0.00  0.00     0.011 A 
ATOM     16 CL   UNL d   1     -38.411  15.228  23.687  0.00  0.00    -0.082 Cl
ATOM     17  C   UNL d   1     -39.347  14.476  21.860  0.00  0.00     0.002 A 
ENDBRANCH  10  11
ENDBRANCH   2  10
BRANCH   4  18
ATOM     18  N   UNL d   1     -39.288  14.208  17.343  0.00  0.00    -0.289 N 
ATOM     19  C   UNL d   1     -39.335  14.826  16.747  0.00  0.00     0.082 A 
ATOM     20  C   UNL d   1     -38.884  14.750  16.023  0.00  0.00     0.019 A 
ATOM     21  C   UNL d   1     -38.391  14.057  15.901  0.00  0.00     0.003 A 
ATOM     22  C   UNL d   1     -38.346  13.446  16.491  0.00  0.00     0.019 A 
ATOM     23  C   UNL d   1     -37.943  13.981  15.180  0.00  0.00     0.000 C 
ATOM     24  C   UNL d   1     -38.795  13.522  17.212  0.00  0.00     0.082 A 
ENDBRANCH   4  18
TORSDOF 3
ENDMDL
MODEL 2
REMARK VINA RESULT:      -5.6      8.295      9.889
REMARK  3 active torsions:
REMARK  status: ('A' for Active; 'I' for Inactive)
REMARK    1  A    between atoms: C_11  and  N_2 
REMARK    2  A    between atoms: N_7  and  C_4 
REMARK    3  A    between atoms: C_14  and  C_11 
ROOT
ATOM      1  C   UNL d   1     -47.874  12.717  23.272  0.00  0.00     0.091 A 
ATOM      2  N   UNL d   1     -46.741  11.879  23.489  0.00  0.00    -0.211 N 
ATOM      3  C   UNL d   1     -47.530  11.970  23.279  0.00  0.00     0.170 A 
ATOM      4  C   UNL d   1     -48.664  12.801  23.061  0.00  0.00     0.154 A 
ATOM      5  N   UNL d   1     -46.294  12.539  23.693  0.00  0.00    -0.162 NA
ATOM      6  C   UNL d   1     -46.640  13.290  23.685  0.00  0.00     0.127 A 
ATOM      7  N   UNL d   1     -47.976  11.309  23.076  0.00  0.00    -0.205 NA
ATOM      8  N   UNL d   1     -49.112  12.150  22.859  0.00  0.00    -0.206 NA
ATOM      9  C   UNL d   1     -48.765  11.397  22.866  0.00  0.00     0.202 A 
ENDROOT
BRANCH   2  10
ATOM     10  C   UNL d   1     -46.396  11.130  23.496  0.00  0.00     0.102 C 
BRANCH  10  11
ATOM     11  C   UNL d   1     -45.588  11.048  23.379  0.00  0.00     0.019 A 
ATOM     12  C   UNL d   1     -45.188  10.403  23.698  0.00  0.00     0.002 A 
ATOM     13  C   UNL d   1     -44.377  10.322  23.579  0.00  0.00     0.011 A 
ATOM     14  C   UNL d   1     -43.967  10.886  23.141  0.00  0.00     0.058 A 
ATOM     15  C   UNL d   1     -44.373  11.539  22.817  0.00  0.00     0.011 A 
ATOM     16 CL   UNL d   1     -43.150  10.807  23.019  0.00  0.00    -0.082 Cl
ATOM     17  C   UNL d   1     -45.180  11.615  22.939  0.00  0.00     0.002 A 
ENDBRANCH  10  11
ENDBRANCH   2  10
BRANCH   4  18
ATOM     18  N   UNL d   1     -49.021  13.576  23.054  0.00  0.00    -0.289 N 
ATOM     19  C   UNL d   1     -48.861  14.100  22.391  0.00  0.00     0.082 A 
ATOM     20  C   UNL d   1     -49.216  14.881  22.375  0.00  0.00     0.019 A 
ATOM     21  C   UNL d   1     -49.726  15.128  23.022  0.00  0.00     0.003 A 
ATOM     22  C   UNL d   1     -49.883  14.608  23.676  0.00  0.00     0.019 A 
ATOM     23  C   UNL d   1     -50.078  15.904  23.005  0.00  0.00     0.000 C 
ATOM     24  C   UNL d   1     -49.530  13.831  23.692  0.00  0.00     0.082 A 
ENDBRANCH   4  18
TORSDOF 3
ENDMDL
MODEL 3
REMARK VINA RESULT:      -5.2      8.006      9.696
REMARK  3 active torsions:
REMARK  status: ('A' for Active; 'I' for Inactive)
REMARK    1  A    between atoms: C_11  and  N_2 
REMARK    2  A    between atoms: N_7  and  C_4 
REMARK    3  A    between atoms: C_14  and  C_11 
ROOT
ATOM      1  C   UNL d   1     -47.917  13.322  22.926  0.00  0.00     0.091 A 
ATOM      2  N   UNL d   1     -46.556  12.895  22.939  0.00  0.00    -0.211 N 
ATOM      3  C   UNL d   1     -47.358  12.718  22.913  0.00  0.00     0.170 A 
ATOM      4  C   UNL d   1     -48.717  13.138  22.900  0.00  0.00     0.154 A 
ATOM      5  N   UNL d   1     -46.312  13.680  22.978  0.00  0.00    -0.162 NA
ATOM      6  C   UNL d   1     -46.874  14.286  22.992  0.00  0.00     0.127 A 
ATOM      7  N   UNL d   1     -47.601  11.933  22.873  0.00  0.00    -0.205 NA
ATOM      8  N   UNL d   1     -48.965  12.363  22.861  0.00  0.00    -0.206 NA
ATOM      9  C   UNL d   1     -48.402  11.754  22.847  0.00  0.00     0.202 A 
ENDROOT
BRANCH   2  10
ATOM     10  C   UNL d   1     -45.996  12.290  22.925  0.00  0.00     0.102 C 
BRANCH  10  11
ATOM     11  C   UNL d   1     -45.281  12.399  22.538  0.00  0.00     0.019 A 
ATOM     12  C   UNL d   1     -45.229  12.922  21.905  0.00  0.00     0.002 A 
ATOM     13  C   UNL d   1     -44.511  13.030  21.518  0.00  0.00     0.011 A 
ATOM     14  C   UNL d   1     -43.844  12.614  21.764  0.00  0.00     0.058 A 
ATOM     15  C   UNL d   1     -43.897  12.083  22.405  0.00  0.00     0.011 A 
ATOM     16 CL   UNL d   1     -43.119  12.720  21.376  0.00  0.00    -0.082 Cl
ATOM     17  C   UNL d   1     -44.615  11.980  22.787  0.00  0.00     0.002 A 
ENDBRANCH  10  11
ENDBRANCH   2  10
BRANCH   4  18
ATOM     18  N   UNL d   1     -49.297  13.765  22.914  0.00  0.00    -0.289 N 
ATOM     19  C   UNL d   1     -49.577  14.054  23.674  0.00  0.00     0.082 A 
ATOM     20  C   UNL d   1     -50.159  14.683  23.698  0.00  0.00     0.019 A 
ATOM     21  C   UNL d   1     -50.454  15.015  22.962  0.00  0.00     0.003 A 
ATOM     22  C   UNL d   1     -50.176  14.728  22.211  0.00  0.00     0.019 A 
ATOM     23  C   UNL d   1     -51.034  15.641  22.986  0.00  0.00     0.000 C 
ATOM     24  C   UNL d   1     -49.596  14.102  22.189  0.00  0.00     0.082 A 
ENDBRANCH   4  18
TORSDOF 3
ENDMDL
MODEL 4
REMARK VINA RESULT:      -5.1      1.561      2.329
REMARK  3 active torsions:
REMARK  status: ('A' for Active; 'I' for Inactive)
REMARK    1  A    between atoms: C_11  and  N_2 
REMARK    2  A    between atoms: N_7  and  C_4 
REMARK    3  A    between atoms: C_14  and  C_11 
ROOT
ATOM      1  C   UNL d   1     -39.419  15.118  19.059  0.00  0.00     0.091 A 
ATOM      2  N   UNL d   1     -38.856  14.612  20.269  0.00  0.00    -0.211 N 
ATOM      3  C   UNL d   1     -38.777  15.032  19.567  0.00  0.00     0.170 A 
ATOM      4  C   UNL d   1     -39.332  15.540  18.360  0.00  0.00     0.154 A 
ATOM      5  N   UNL d   1     -39.582  14.274  20.462  0.00  0.00    -0.162 NA
ATOM      6  C   UNL d   1     -40.226  14.360  19.951  0.00  0.00     0.127 A 
ATOM      7  N   UNL d   1     -38.051  15.370  19.375  0.00  0.00    -0.205 NA
ATOM      8  N   UNL d   1     -38.616  15.877  18.162  0.00  0.00    -0.206 NA
ATOM      9  C   UNL d   1     -37.969  15.791  18.675  0.00  0.00     0.202 A 
ENDROOT
BRANCH   2  10
ATOM     10  C   UNL d   1     -38.214  14.526  20.778  0.00  0.00     0.102 C 
BRANCH  10  11
ATOM     11  C   UNL d   1     -38.310  14.159  21.504  0.00  0.00     0.019 A 
ATOM     12  C   UNL d   1     -38.613  14.580  22.144  0.00  0.00     0.002 A 
ATOM     13  C   UNL d   1     -38.709  14.210  22.873  0.00  0.00     0.011 A 
ATOM     14  C   UNL d   1     -38.502  13.418  22.962  0.00  0.00     0.058 A 
ATOM     15  C   UNL d   1     -38.195  12.991  22.314  0.00  0.00     0.011 A 
ATOM     16 CL   UNL d   1     -38.597  13.042  23.695  0.00  0.00    -0.082 Cl
ATOM     17  C   UNL d   1     -38.102  13.365  21.591  0.00  0.00     0.002 A 
ENDBRANCH  10  11
ENDBRANCH   2  10
BRANCH   4  18
ATOM     18  N   UNL d   1     -39.997  15.628  17.832  0.00  0.00    -0.289 N 
ATOM     19  C   UNL d   1     -39.878  15.506  16.989  0.00  0.00     0.082 A 
ATOM     20  C   UNL d   1     -40.540  15.593  16.452  0.00  0.00     0.019 A 
ATOM     21  C   UNL d   1     -41.314  15.801  16.764  0.00  0.00     0.003 A 
ATOM     22  C   UNL d   1     -41.430  15.921  17.598  0.00  0.00     0.019 A 
ATOM     23  C   UNL d   1     -41.973  15.887  16.229  0.00  0.00     0.000 C 
ATOM     24  C   UNL d   1     -40.771  15.834  18.132  0.00  0.00     0.082 A 
ENDBRANCH   4  18
TORSDOF 3
ENDMDL
MODEL 5
REMARK VINA RESULT:      -4.6      2.508      5.303
REMARK  3 active torsions:
REMARK  status: ('A' for Active; 'I' for Inactive)
REMARK    1  A    between atoms: C_11  and  N_2 
REMARK    2  A    between atoms: N_7  and  C_4 
REMARK    3  A    between atoms: C_14  and  C_11 
ROOT
ATOM      1  C   UNL d   1     -39.367  15.118  18.443  0.00  0.00     0.091 A 
ATOM      2  N   UNL d   1     -38.813  14.992  17.135  0.00  0.00    -0.211 N 
ATOM      3  C   UNL d   1     -38.747  15.240  17.916  0.00  0.00     0.170 A 
ATOM      4  C   UNL d   1     -39.294  15.368  19.223  0.00  0.00     0.154 A 
ATOM      5  N   UNL d   1     -39.502  14.621  16.881  0.00  0.00    -0.162 NA
ATOM      6  C   UNL d   1     -40.124  14.499  17.411  0.00  0.00     0.127 A 
ATOM      7  N   UNL d   1     -38.057  15.611  18.169  0.00  0.00    -0.205 NA
ATOM      8  N   UNL d   1     -38.614  15.737  19.481  0.00  0.00    -0.206 NA
ATOM      9  C   UNL d   1     -37.990  15.859  18.948  0.00  0.00     0.202 A 
ENDROOT
BRANCH   2  10
ATOM     10  C   UNL d   1     -38.192  15.114  16.606  0.00  0.00     0.102 C 
BRANCH  10  11
ATOM     11  C   UNL d   1     -38.130  14.653  15.931  0.00  0.00     0.019 A 
ATOM     12  C   UNL d   1     -38.082  15.009  15.191  0.00  0.00     0.002 A 
ATOM     13  C   UNL d   1     -38.019  14.545  14.514  0.00  0.00     0.011 A 
ATOM     14  C   UNL d   1     -38.004  13.724  14.578  0.00  0.00     0.058 A 
ATOM     15  C   UNL d   1     -38.052  13.363  15.328  0.00  0.00     0.011 A 
ATOM     16 CL   UNL d   1     -37.941  13.253  13.898  0.00  0.00    -0.082 Cl
ATOM     17  C   UNL d   1     -38.115  13.831  15.999  0.00  0.00     0.002 A 
ENDBRANCH  10  11
ENDBRANCH   2  10
BRANCH   4  18
ATOM     18  N   UNL d   1     -39.937  15.241  19.770  0.00  0.00    -0.289 N 
ATOM     19  C   UNL d   1     -40.027  14.467  20.134  0.00  0.00     0.082 A 
ATOM     20  C   UNL d   1     -40.669  14.331  20.685  0.00  0.00     0.019 A 
ATOM     21  C   UNL d   1     -41.214  14.970  20.866  0.00  0.00     0.003 A 
ATOM     22  C   UNL d   1     -41.124  15.735  20.505  0.00  0.00     0.019 A 
ATOM     23  C   UNL d   1     -41.853  14.834  21.414  0.00  0.00     0.000 C 
ATOM     24  C   UNL d   1     -40.485  15.870  19.957  0.00  0.00     0.082 A 
ENDBRANCH   4  18
TORSDOF 3
ENDMDL
MODEL 6
REMARK VINA RESULT:      -4.5      7.809      9.410
REMARK  3 active torsions:
REMARK  status: ('A' for Active; 'I' for Inactive)
REMARK    1  A    between atoms: C_11  and  N_2 
REMARK    2  A    between atoms: N_7  and  C_4 
REMARK    3  A    between atoms: C_14  and  C_11 
ROOT
ATOM      1  C   UNL d   1     -47.349  12.859  22.745  0.00  0.00     0.091 A 
ATOM      2  N   UNL d   1     -46.178  12.189  23.207  0.00  0.00    -0.211 N 
ATOM      3  C   UNL d   1     -46.542  12.860  22.903  0.00  0.00     0.170 A 
ATOM      4  C   UNL d   1     -47.706  13.534  22.441  0.00  0.00     0.154 A 
ATOM      5  N   UNL d   1     -46.624  11.513  23.353  0.00  0.00    -0.162 NA
ATOM      6  C   UNL d   1     -47.436  11.512  23.194  0.00  0.00     0.127 A 
ATOM      7  N   UNL d   1     -46.094  13.536  22.757  0.00  0.00    -0.205 NA
ATOM      8  N   UNL d   1     -47.270  14.206  22.294  0.00  0.00    -0.206 NA
ATOM      9  C   UNL d   1     -46.455  14.207  22.454  0.00  0.00     0.202 A 
ENDROOT
BRANCH   2  10
ATOM     10  C   UNL d   1     -45.369  12.190  23.365  0.00  0.00     0.102 C 
BRANCH  10  11
ATOM     11  C   UNL d   1     -44.946  11.488  23.352  0.00  0.00     0.019 A 
ATOM     12  C   UNL d   1     -44.203  11.459  22.999  0.00  0.00     0.002 A 
ATOM     13  C   UNL d   1     -43.779  10.753  22.987  0.00  0.00     0.011 A 
ATOM     14  C   UNL d   1     -44.100  10.076  23.329  0.00  0.00     0.058 A 
ATOM     15  C   UNL d   1     -44.852  10.105  23.686  0.00  0.00     0.011 A 
ATOM     16 CL   UNL d   1     -43.676   9.363  23.318  0.00  0.00    -0.082 Cl
ATOM     17  C   UNL d   1     -45.270  10.810  23.695  0.00  0.00     0.002 A 
ENDBRANCH  10  11
ENDBRANCH   2  10
BRANCH   4  18
ATOM     18  N   UNL d   1     -48.544  13.533  22.277  0.00  0.00    -0.289 N 
ATOM     19  C   UNL d   1     -49.085  13.826  22.877  0.00  0.00     0.082 A 
ATOM     20  C   UNL d   1     -49.928  13.829  22.721  0.00  0.00     0.019 A 
ATOM     21  C   UNL d   1     -50.220  13.538  21.967  0.00  0.00     0.003 A 
ATOM     22  C   UNL d   1     -49.684  13.248  21.374  0.00  0.00     0.019 A 
ATOM     23  C   UNL d   1     -51.059  13.541  21.812  0.00  0.00     0.000 C 
ATOM     24  C   UNL d   1     -48.845  13.246  21.530  0.00  0.00     0.082 A 
ENDBRANCH   4  18
TORSDOF 3
ENDMDL
