MODEL 1
REMARK VINA RESULT:      42.7      0.000      0.000
REMARK  7 active torsions:
REMARK  status: ('A' for Active; 'I' for Inactive)
REMARK       I    between atoms: C_2  and  N_1 
REMARK    1  A    between atoms: C_7  and  C_2 
REMARK    2  A    between atoms: C_10  and  C_3 
REMARK       I    between atoms: C_4  and  N_6 
REMARK    3  A    between atoms: C_5  and  C_4 
REMARK       I    between atoms: N_13  and  C_5 
REMARK    4  A    between atoms: N_6  and  C_10 
REMARK    5  A    between atoms: C_23  and  N_13 
REMARK    6  A    between atoms: O_22  and  C_24 
REMARK    7  A    between atoms: C_24  and  C_23 
ROOT
ATOM      1  N   UNL d   1      14.105  15.159  -3.214  0.00  0.00    -0.250 N 
ATOM      2  C   UNL d   1      14.445  15.072  -2.464  0.00  0.00     0.266 C 
ATOM      3  C   UNL d   1      13.779  14.560  -3.676  0.00  0.00     0.190 A 
ATOM      4  O   UNL d   1      14.481  14.333  -2.108  0.00  0.00    -0.267 OA
ATOM      5  O   UNL d   1      13.503  14.896  -4.385  0.00  0.00    -0.285 OA
ATOM      6  C   UNL d   1      14.031  15.861  -3.638  0.00  0.00     0.112 A 
ATOM      7  C   UNL d   1      13.659  15.704  -4.363  0.00  0.00     0.144 A 
ENDROOT
BRANCH   3   8
ATOM      8  C   UNL d   1      13.734  13.765  -3.467  0.00  0.00     0.146 C 
BRANCH   8   9
ATOM      9  N   UNL d   1      13.259  13.251  -3.901  0.00  0.00    -0.199 NA
ATOM     10  C   UNL d   1      13.249  12.452  -3.717  0.00  0.00     0.337 C 
ATOM     11  O   UNL d   1      12.774  11.938  -4.150  0.00  0.00    -0.260 OA
BRANCH  10  12
ATOM     12  C   UNL d   1      13.713  12.156  -3.099  0.00  0.00     0.337 C 
ATOM     13  O   UNL d   1      14.427  11.781  -3.271  0.00  0.00    -0.260 OA
ATOM     14  N   UNL d   1      13.470  12.231  -2.316  0.00  0.00    -0.200 NA
BRANCH  14  15
ATOM     15  C   UNL d   1      13.923  11.941  -1.703  0.00  0.00     0.129 C 
BRANCH  15  16
ATOM     16  C   UNL d   1      13.595  11.791  -0.958  0.00  0.00     0.137 C 
BRANCH  16  17
ATOM     17  O   UNL d   1      14.064  11.804  -0.282  0.00  0.00    -0.325 OA
ATOM     18  C   UNL d   1      14.418  12.509  -0.020  0.00  0.00     0.182 C 
ENDBRANCH  16  17
ENDBRANCH  15  16
ENDBRANCH  14  15
ENDBRANCH  10  12
ENDBRANCH   8   9
ENDBRANCH   3   8
BRANCH   2  19
ATOM     19  C   UNL d   1      14.755  15.742  -2.065  0.00  0.00     0.057 A 
ATOM     20  C   UNL d   1      14.801  15.747  -1.248  0.00  0.00     0.006 A 
ATOM     21  C   UNL d   1      15.106  16.407  -0.857  0.00  0.00     0.012 A 
ATOM     22  C   UNL d   1      15.363  17.058  -1.289  0.00  0.00     0.058 A 
ATOM     23  C   UNL d   1      15.316  17.051  -2.115  0.00  0.00     0.012 A 
ATOM     24 CL   UNL d   1      15.672  17.724  -0.891  0.00  0.00    -0.082 Cl
ATOM     25  C   UNL d   1      15.014  16.396  -2.496  0.00  0.00     0.006 A 
ENDBRANCH   2  19
TORSDOF 7
ENDMDL
