MODEL 1
REMARK VINA RESULT:       2.7      0.000      0.000
REMARK  9 active torsions:
REMARK  status: ('A' for Active; 'I' for Inactive)
REMARK    1  A    between atoms: C_12  and  N_1 
REMARK    2  A    between atoms: S_7  and  C_2 
REMARK    3  A    between atoms: C_15  and  S_7 
REMARK    4  A    between atoms: C_9  and  C_15 
REMARK    5  A    between atoms: O_14  and  C_9 
REMARK       I    between atoms: C_10  and  N_16 
REMARK    6  A    between atoms: C_19  and  C_12 
REMARK    7  A    between atoms: C_18  and  O_14 
REMARK    8  A    between atoms: N_16  and  C_19 
REMARK    9  A    between atoms: C_20  and  C_18 
ROOT
ATOM      1  N   UNL d   1     -41.396-121.686 -52.453  0.00  0.00    -0.251 N 
ATOM      2  C   UNL d   1     -41.446-122.482 -52.241  0.00  0.00     0.182 A 
ATOM      3  C   UNL d   1     -41.606-121.443 -53.220  0.00  0.00     0.268 A 
ATOM      4  N   UNL d   1     -41.706-123.046 -52.792  0.00  0.00    -0.222 NA
ATOM      5  C   UNL d   1     -41.866-122.009 -53.770  0.00  0.00     0.074 A 
ATOM      6  C   UNL d   1     -41.915-122.805 -53.558  0.00  0.00     0.088 A 
ATOM      7  O   UNL d   1     -41.556-120.639 -53.435  0.00  0.00    -0.267 OA
ATOM      8  C   UNL d   1     -42.077-121.766 -54.539  0.00  0.00     0.006 A 
ATOM      9  C   UNL d   1     -42.176-123.369 -54.111  0.00  0.00     0.019 A 
ATOM     10  C   UNL d   1     -42.337-122.333 -55.090  0.00  0.00     0.000 A 
ATOM     11  C   UNL d   1     -42.386-123.128 -54.877  0.00  0.00     0.002 A 
ENDROOT
BRANCH   2  12
ATOM     12  S   UNL d   1     -41.234-122.731 -51.465  0.00  0.00    -0.044 SA
BRANCH  12  13
ATOM     13  C   UNL d   1     -41.424-123.504 -51.199  0.00  0.00     0.107 C 
BRANCH  13  14
ATOM     14  C   UNL d   1     -41.872-123.606 -50.514  0.00  0.00     0.307 C 
ATOM     15  O   UNL d   1     -42.670-123.805 -50.568  0.00  0.00    -0.258 OA
BRANCH  14  16
ATOM     16  O   UNL d   1     -41.514-123.506 -49.770  0.00  0.00    -0.271 OA
BRANCH  16  17
ATOM     17  C   UNL d   1     -41.872-123.017 -49.210  0.00  0.00     0.126 C 
BRANCH  17  18
ATOM     18  C   UNL d   1     -41.943-123.274 -48.433  0.00  0.00     0.025 A 
ATOM     19  C   UNL d   1     -41.282-123.559 -48.029  0.00  0.00     0.002 A 
ATOM     20  C   UNL d   1     -41.352-123.815 -47.254  0.00  0.00     0.000 A 
ATOM     21  C   UNL d   1     -42.083-123.790 -46.873  0.00  0.00     0.000 A 
ATOM     22  C   UNL d   1     -42.750-123.503 -47.279  0.00  0.00     0.000 A 
ATOM     23  C   UNL d   1     -42.674-123.246 -48.059  0.00  0.00     0.002 A 
ENDBRANCH  17  18
ENDBRANCH  16  17
ENDBRANCH  14  16
ENDBRANCH  13  14
ENDBRANCH  12  13
ENDBRANCH   2  12
BRANCH   1  24
ATOM     24  C   UNL d   1     -41.134-121.118 -51.896  0.00  0.00     0.106 C 
BRANCH  24  25
ATOM     25  C   UNL d   1     -41.181-120.312 -52.059  0.00  0.00     0.121 C 
BRANCH  25  26
ATOM     26  N   UNL d   1     -41.136-119.744 -51.452  0.00  0.00    -0.205 NA
ATOM     27  C   UNL d   1     -41.168-118.934 -51.630  0.00  0.00     0.280 C 
ATOM     28  O   UNL d   1     -41.245-118.687 -52.413  0.00  0.00    -0.265 OA
ATOM     29  C   UNL d   1     -41.123-118.377 -51.025  0.00  0.00     0.068 C 
ENDBRANCH  25  26
ENDBRANCH  24  25
ENDBRANCH   1  24
TORSDOF 9
ENDMDL
