MODEL 1
REMARK VINA RESULT:      -5.4      0.000      0.000
REMARK  3 active torsions:
REMARK  status: ('A' for Active; 'I' for Inactive)
REMARK    1  A    between atoms: C_5  and  C_4 
REMARK    2  A    between atoms: C_6  and  C_5 
REMARK       I    between atoms: N_9  and  C_6 
REMARK    3  A    between atoms: C_12  and  N_9 
ROOT
ATOM      1  N   UNL d   1      59.885  -0.649  29.068  0.00  0.00    -0.205 NA
ATOM      2  C   UNL d   1      59.353  -0.110  29.398  0.00  0.00     0.297 A 
ATOM      3  N   UNL d   1      58.381  -1.151  29.612  0.00  0.00    -0.239 NA
ATOM      4  C   UNL d   1      58.614  -0.357  29.665  0.00  0.00     0.144 A 
ATOM      5  C   UNL d   1      59.659  -1.445  29.012  0.00  0.00     0.102 A 
ATOM      6  C   UNL d   1      58.920  -1.692  29.280  0.00  0.00     0.099 A 
ATOM      7  O   UNL d   1      59.580   0.682  29.452  0.00  0.00    -0.264 OA
ATOM      8  C   UNL d   1      60.194  -1.994  28.680  0.00  0.00     0.021 A 
ATOM      9  C   UNL d   1      58.690  -2.496  29.224  0.00  0.00     0.021 A 
ATOM     10  C   UNL d   1      59.967  -2.786  28.626  0.00  0.00     0.002 A 
ATOM     11  C   UNL d   1      59.227  -3.033  28.893  0.00  0.00     0.002 A 
ENDROOT
BRANCH   4  12
ATOM     12  C   UNL d   1      58.076   0.180  29.996  0.00  0.00     0.086 C 
BRANCH  12  13
ATOM     13  C   UNL d   1      57.809   0.061  30.770  0.00  0.00     0.281 C 
ATOM     14  N   UNL d   1      57.020  -0.010  30.899  0.00  0.00    -0.208 NA
ATOM     15  O   UNL d   1      58.332   0.016  31.392  0.00  0.00    -0.265 OA
BRANCH  14  16
ATOM     16  C   UNL d   1      56.729  -0.131  31.678  0.00  0.00     0.085 A 
ATOM     17  C   UNL d   1      56.610   0.490  32.174  0.00  0.00     0.019 A 
ATOM     18  C   UNL d   1      56.322   0.365  32.943  0.00  0.00     0.002 A 
ATOM     19  C   UNL d   1      56.164  -0.398  33.177  0.00  0.00     0.000 A 
ATOM     20  C   UNL d   1      56.280  -1.024  32.688  0.00  0.00     0.002 A 
ATOM     21  C   UNL d   1      56.562  -0.890  31.938  0.00  0.00     0.019 A 
ENDBRANCH  14  16
ENDBRANCH  12  13
ENDBRANCH   4  12
TORSDOF 3
ENDMDL
MODEL 2
REMARK VINA RESULT:      -4.6      0.852      4.245
REMARK  3 active torsions:
REMARK  status: ('A' for Active; 'I' for Inactive)
REMARK    1  A    between atoms: C_5  and  C_4 
REMARK    2  A    between atoms: C_6  and  C_5 
REMARK       I    between atoms: N_9  and  C_6 
REMARK    3  A    between atoms: C_12  and  N_9 
ROOT
ATOM      1  N   UNL d   1      57.866   0.444  31.906  0.00  0.00    -0.205 NA
ATOM      2  C   UNL d   1      58.135   0.246  31.151  0.00  0.00     0.297 A 
ATOM      3  N   UNL d   1      57.146  -0.794  31.035  0.00  0.00    -0.239 NA
ATOM      4  C   UNL d   1      57.781  -0.363  30.723  0.00  0.00     0.144 A 
ATOM      5  C   UNL d   1      57.230   0.016  32.225  0.00  0.00     0.102 A 
ATOM      6  C   UNL d   1      56.876  -0.592  31.797  0.00  0.00     0.099 A 
ATOM      7  O   UNL d   1      58.767   0.673  30.836  0.00  0.00    -0.264 OA
ATOM      8  C   UNL d   1      56.954   0.212  32.989  0.00  0.00     0.021 A 
ATOM      9  C   UNL d   1      56.234  -1.025  32.117  0.00  0.00     0.021 A 
ATOM     10  C   UNL d   1      56.321  -0.215  33.304  0.00  0.00     0.002 A 
ATOM     11  C   UNL d   1      55.967  -0.823  32.875  0.00  0.00     0.002 A 
ENDROOT
BRANCH   4  12
ATOM     12  C   UNL d   1      58.047  -0.565  29.965  0.00  0.00     0.086 C 
BRANCH  12  13
ATOM     13  C   UNL d   1      58.320  -1.332  29.823  0.00  0.00     0.281 C 
ATOM     14  N   UNL d   1      58.831  -1.454  29.215  0.00  0.00    -0.208 NA
ATOM     15  O   UNL d   1      58.079  -1.956  30.286  0.00  0.00    -0.265 OA
BRANCH  14  16
ATOM     16  C   UNL d   1      59.120  -2.226  29.054  0.00  0.00     0.085 A 
ATOM     17  C   UNL d   1      58.653  -2.772  28.694  0.00  0.00     0.019 A 
ATOM     18  C   UNL d   1      58.943  -3.535  28.537  0.00  0.00     0.002 A 
ATOM     19  C   UNL d   1      59.707  -3.711  28.757  0.00  0.00     0.000 A 
ATOM     20  C   UNL d   1      60.179  -3.171  29.117  0.00  0.00     0.002 A 
ATOM     21  C   UNL d   1      59.885  -2.429  29.266  0.00  0.00     0.019 A 
ENDBRANCH  14  16
ENDBRANCH  12  13
ENDBRANCH   4  12
TORSDOF 3
ENDMDL
MODEL 3
REMARK VINA RESULT:      -4.5      1.598      2.006
REMARK  3 active torsions:
REMARK  status: ('A' for Active; 'I' for Inactive)
REMARK    1  A    between atoms: C_5  and  C_4 
REMARK    2  A    between atoms: C_6  and  C_5 
REMARK       I    between atoms: N_9  and  C_6 
REMARK    3  A    between atoms: C_12  and  N_9 
ROOT
ATOM      1  N   UNL d   1      59.042   0.132  28.998  0.00  0.00    -0.205 NA
ATOM      2  C   UNL d   1      58.296   0.264  29.324  0.00  0.00     0.297 A 
ATOM      3  N   UNL d   1      58.878   0.655  30.581  0.00  0.00    -0.239 NA
ATOM      4  C   UNL d   1      58.215   0.522  30.102  0.00  0.00     0.144 A 
ATOM      5  C   UNL d   1      59.711   0.263  29.471  0.00  0.00     0.102 A 
ATOM      6  C   UNL d   1      59.630   0.521  30.250  0.00  0.00     0.099 A 
ATOM      7  O   UNL d   1      57.632   0.133  28.850  0.00  0.00    -0.264 OA
ATOM      8  C   UNL d   1      60.469   0.131  29.146  0.00  0.00     0.021 A 
ATOM      9  C   UNL d   1      60.304   0.654  30.730  0.00  0.00     0.021 A 
ATOM     10  C   UNL d   1      61.132   0.262  29.619  0.00  0.00     0.002 A 
ATOM     11  C   UNL d   1      61.051   0.520  30.398  0.00  0.00     0.002 A 
ENDROOT
BRANCH   4  12
ATOM     12  C   UNL d   1      57.467   0.656  30.434  0.00  0.00     0.086 C 
BRANCH  12  13
ATOM     13  C   UNL d   1      57.204   0.171  31.049  0.00  0.00     0.281 C 
ATOM     14  N   UNL d   1      56.742   0.491  31.622  0.00  0.00    -0.208 NA
ATOM     15  O   UNL d   1      57.405  -0.617  31.078  0.00  0.00    -0.265 OA
BRANCH  14  16
ATOM     16  C   UNL d   1      56.464   0.014  32.256  0.00  0.00     0.085 A 
ATOM     17  C   UNL d   1      56.222  -0.741  32.126  0.00  0.00     0.019 A 
ATOM     18  C   UNL d   1      55.948  -1.209  32.756  0.00  0.00     0.002 A 
ATOM     19  C   UNL d   1      55.931  -0.883  33.501  0.00  0.00     0.000 A 
ATOM     20  C   UNL d   1      56.171  -0.129  33.639  0.00  0.00     0.002 A 
ATOM     21  C   UNL d   1      56.437   0.319  33.016  0.00  0.00     0.019 A 
ENDBRANCH  14  16
ENDBRANCH  12  13
ENDBRANCH   4  12
TORSDOF 3
ENDMDL
MODEL 4
REMARK VINA RESULT:      -3.2      1.245      4.517
REMARK  3 active torsions:
REMARK  status: ('A' for Active; 'I' for Inactive)
REMARK    1  A    between atoms: C_5  and  C_4 
REMARK    2  A    between atoms: C_6  and  C_5 
REMARK       I    between atoms: N_9  and  C_6 
REMARK    3  A    between atoms: C_12  and  N_9 
ROOT
ATOM      1  N   UNL d   1      57.439   0.432  33.540  0.00  0.00    -0.205 NA
ATOM      2  C   UNL d   1      57.875   0.556  32.850  0.00  0.00     0.297 A 
ATOM      3  N   UNL d   1      56.691   0.428  32.040  0.00  0.00    -0.239 NA
ATOM      4  C   UNL d   1      57.507   0.554  32.113  0.00  0.00     0.144 A 
ATOM      5  C   UNL d   1      56.621   0.306  33.475  0.00  0.00     0.102 A 
ATOM      6  C   UNL d   1      56.254   0.303  32.738  0.00  0.00     0.099 A 
ATOM      7  O   UNL d   1      58.688   0.682  32.917  0.00  0.00    -0.264 OA
ATOM      8  C   UNL d   1      56.175   0.180  34.170  0.00  0.00     0.021 A 
ATOM      9  C   UNL d   1      55.428   0.176  32.670  0.00  0.00     0.021 A 
ATOM     10  C   UNL d   1      55.362   0.054  34.103  0.00  0.00     0.002 A 
ATOM     11  C   UNL d   1      54.995   0.052  33.366  0.00  0.00     0.002 A 
ENDROOT
BRANCH   4  12
ATOM     12  C   UNL d   1      57.940   0.677  31.417  0.00  0.00     0.086 C 
BRANCH  12  13
ATOM     13  C   UNL d   1      57.967   0.081  30.845  0.00  0.00     0.281 C 
ATOM     14  N   UNL d   1      58.625   0.012  30.390  0.00  0.00    -0.208 NA
ATOM     15  O   UNL d   1      57.342  -0.429  30.741  0.00  0.00    -0.265 OA
BRANCH  14  16
ATOM     16  C   UNL d   1      58.671  -0.587  29.803  0.00  0.00     0.085 A 
ATOM     17  C   UNL d   1      58.490  -0.427  29.036  0.00  0.00     0.019 A 
ATOM     18  C   UNL d   1      58.538  -1.023  28.460  0.00  0.00     0.002 A 
ATOM     19  C   UNL d   1      58.771  -1.767  28.691  0.00  0.00     0.000 A 
ATOM     20  C   UNL d   1      58.954  -1.935  29.454  0.00  0.00     0.002 A 
ATOM     21  C   UNL d   1      58.904  -1.345  30.010  0.00  0.00     0.019 A 
ENDBRANCH  14  16
ENDBRANCH  12  13
ENDBRANCH   4  12
TORSDOF 3
ENDMDL
MODEL 5
REMARK VINA RESULT:      -3.0      1.297      4.485
REMARK  3 active torsions:
REMARK  status: ('A' for Active; 'I' for Inactive)
REMARK    1  A    between atoms: C_5  and  C_4 
REMARK    2  A    between atoms: C_6  and  C_5 
REMARK       I    between atoms: N_9  and  C_6 
REMARK    3  A    between atoms: C_12  and  N_9 
ROOT
ATOM      1  N   UNL d   1      56.556  -1.293  32.079  0.00  0.00    -0.205 NA
ATOM      2  C   UNL d   1      56.919  -1.065  31.373  0.00  0.00     0.297 A 
ATOM      3  N   UNL d   1      56.946   0.312  31.793  0.00  0.00    -0.239 NA
ATOM      4  C   UNL d   1      57.110  -0.276  31.232  0.00  0.00     0.144 A 
ATOM      5  C   UNL d   1      56.389  -0.709  32.645  0.00  0.00     0.102 A 
ATOM      6  C   UNL d   1      56.581   0.080  32.504  0.00  0.00     0.099 A 
ATOM      7  O   UNL d   1      57.084  -1.647  30.811  0.00  0.00    -0.264 OA
ATOM      8  C   UNL d   1      56.023  -0.935  33.361  0.00  0.00     0.021 A 
ATOM      9  C   UNL d   1      56.413   0.670  33.075  0.00  0.00     0.021 A 
ATOM     10  C   UNL d   1      55.857  -0.353  33.922  0.00  0.00     0.002 A 
ATOM     11  C   UNL d   1      56.049   0.436  33.782  0.00  0.00     0.002 A 
ENDROOT
BRANCH   4  12
ATOM     12  C   UNL d   1      57.474  -0.042  30.525  0.00  0.00     0.086 C 
BRANCH  12  13
ATOM     13  C   UNL d   1      58.297   0.032  30.498  0.00  0.00     0.281 C 
ATOM     14  N   UNL d   1      58.684  -0.199  29.834  0.00  0.00    -0.208 NA
ATOM     15  O   UNL d   1      58.712   0.334  31.129  0.00  0.00    -0.265 OA
BRANCH  14  16
ATOM     16  C   UNL d   1      59.520  -0.131  29.787  0.00  0.00     0.085 A 
ATOM     17  C   UNL d   1      59.990  -0.778  29.873  0.00  0.00     0.019 A 
ATOM     18  C   UNL d   1      60.816  -0.705  29.826  0.00  0.00     0.002 A 
ATOM     19  C   UNL d   1      61.133   0.032  29.691  0.00  0.00     0.000 A 
ATOM     20  C   UNL d   1      60.671   0.682  29.604  0.00  0.00     0.002 A 
ATOM     21  C   UNL d   1      59.864   0.600  29.652  0.00  0.00     0.019 A 
ENDBRANCH  14  16
ENDBRANCH  12  13
ENDBRANCH   4  12
TORSDOF 3
ENDMDL
