MODEL 1
REMARK VINA RESULT:      98.8      0.000      0.000
REMARK  6 active torsions:
REMARK  status: ('A' for Active; 'I' for Inactive)
REMARK    1  A    between atoms: C_10  and  C_1 
REMARK    2  A    between atoms: C_4  and  O_8 
REMARK       I    between atoms: N_12  and  C_4 
REMARK    3  A    between atoms: O_8  and  C_13 
REMARK    4  A    between atoms: C_23  and  N_12 
REMARK    5  A    between atoms: C_24  and  N_12 
REMARK    6  A    between atoms: O_22  and  C_19 
ROOT
ATOM      1  C   UNL d   1      62.106  44.541  49.812  0.00  0.00     0.064 A 
ATOM      2  C   UNL d   1      61.617  44.890  50.396  0.00  0.00     0.199 A 
ATOM      3  C   UNL d   1      61.426  45.688  50.351  0.00  0.00     0.062 A 
ATOM      4  C   UNL d   1      62.397  45.003  49.187  0.00  0.00     0.126 A 
ATOM      5  C   UNL d   1      61.721  46.155  49.720  0.00  0.00     0.105 A 
ATOM      6  O   UNL d   1      62.205  45.818  49.137  0.00  0.00    -0.305 OA
ATOM      7  C   UNL d   1      61.528  46.961  49.675  0.00  0.00     0.050 A 
ATOM      8  C   UNL d   1      60.942  46.044  50.926  0.00  0.00     0.007 A 
ATOM      9  C   UNL d   1      61.045  47.300  50.255  0.00  0.00     0.107 A 
ATOM     10  O   UNL d   1      61.329  44.428  51.016  0.00  0.00    -0.286 OA
ATOM     11  C   UNL d   1      60.754  46.844  50.877  0.00  0.00     0.025 A 
ENDROOT
BRANCH   1  12
ATOM     12  C   UNL d   1      62.294  43.741  49.861  0.00  0.00     0.005 A 
ATOM     13  C   UNL d   1      62.094  43.230  49.245  0.00  0.00     0.002 A 
ATOM     14  C   UNL d   1      62.283  42.430  49.295  0.00  0.00     0.024 A 
ATOM     15  C   UNL d   1      62.670  42.141  49.961  0.00  0.00     0.094 A 
ATOM     16  C   UNL d   1      62.870  42.655  50.580  0.00  0.00     0.024 A 
ATOM     17  C   UNL d   1      62.681  43.452  50.528  0.00  0.00     0.002 A 
BRANCH  15  18
ATOM     18  O   UNL d   1      62.860  41.344  50.015  0.00  0.00    -0.328 OA
ATOM     19  C   UNL d   1      63.047  40.921  49.329  0.00  0.00     0.181 C 
ENDBRANCH  15  18
ENDBRANCH   1  12
BRANCH   9  20
ATOM     20  O   UNL d   1      60.857  48.100  50.206  0.00  0.00    -0.259 OA
BRANCH  20  21
ATOM     21  C   UNL d   1      61.028  48.601  50.837  0.00  0.00     0.377 C 
ATOM     22  N   UNL d   1      60.502  49.202  51.037  0.00  0.00    -0.252 N 
ATOM     23  O   UNL d   1      61.724  48.500  51.266  0.00  0.00    -0.237 OA
BRANCH  22  24
ATOM     24  C   UNL d   1      60.673  49.705  51.670  0.00  0.00     0.085 C 
ATOM     25  C   UNL d   1      60.189  49.706  52.337  0.00  0.00     0.021 C 
ENDBRANCH  22  24
BRANCH  22  26
ATOM     26  C   UNL d   1      59.806  49.303  50.607  0.00  0.00     0.085 C 
ATOM     27  C   UNL d   1      59.170  49.708  50.939  0.00  0.00     0.021 C 
ENDBRANCH  22  26
ENDBRANCH  20  21
ENDBRANCH   9  20
TORSDOF 6
ENDMDL
