MODEL 1
REMARK VINA RESULT:       5.1      0.000      0.000
REMARK  4 active torsions:
REMARK  status: ('A' for Active; 'I' for Inactive)
REMARK    1  A    between atoms: S_3  and  N_1 
REMARK    2  A    between atoms: C_9  and  S_3 
REMARK    3  A    between atoms: C_10  and  N_5 
REMARK    4  A    between atoms: C_15  and  C_10 
ROOT
ATOM      1  N   UNL d   1     -41.745-123.307 -52.566  0.00  0.00    -0.195 N 
ATOM      2  C   UNL d   1     -41.614-122.554 -52.263  0.00  0.00     0.193 A 
ATOM      3  C   UNL d   1     -41.618-122.595 -51.445  0.00  0.00     0.185 A 
ATOM      4  N   UNL d   1     -41.753-123.380 -51.226  0.00  0.00    -0.269 N 
ATOM      5  C   UNL d   1     -41.830-123.817 -51.926  0.00  0.00     0.179 A 
ATOM      6  N   UNL d   1     -41.490-121.828 -52.630  0.00  0.00    -0.223 NA
ATOM      7  N   UNL d   1     -41.500-121.917 -50.988  0.00  0.00    -0.224 NA
ATOM      8  C   UNL d   1     -41.373-121.155 -52.186  0.00  0.00     0.101 A 
ATOM      9  C   UNL d   1     -41.377-121.193 -51.359  0.00  0.00     0.101 A 
ATOM     10  C   UNL d   1     -41.258-120.513 -50.917  0.00  0.00     0.021 A 
ATOM     11  C   UNL d   1     -41.250-120.432 -52.556  0.00  0.00     0.021 A 
ATOM     12  C   UNL d   1     -41.135-119.792 -51.298  0.00  0.00     0.002 A 
ATOM     13  C   UNL d   1     -41.131-119.753 -52.113  0.00  0.00     0.002 A 
ENDROOT
BRANCH   1  14
ATOM     14  S   UNL d   1     -41.733-123.222 -53.458  0.00  0.00     0.274 S 
ATOM     15  O   UNL d   1     -41.128-123.696 -53.897  0.00  0.00    -0.200 OA
ATOM     16  O   UNL d   1     -41.125-123.765 -53.273  0.00  0.00    -0.200 OA
BRANCH  14  17
ATOM     17  C   UNL d   1     -42.182-122.779 -53.990  0.00  0.00     0.104 A 
ATOM     18  C   UNL d   1     -42.984-122.655 -53.847  0.00  0.00     0.015 A 
ATOM     19  C   UNL d   1     -43.440-122.208 -54.383  0.00  0.00     0.030 A 
ATOM     20  C   UNL d   1     -43.083-121.892 -55.054  0.00  0.00     0.140 A 
ATOM     21  C   UNL d   1     -42.269-122.020 -55.198  0.00  0.00     0.030 A 
ATOM     22  F   UNL d   1     -43.587-121.457 -55.549  0.00  0.00    -0.204 F 
ATOM     23  C   UNL d   1     -41.826-122.461 -54.666  0.00  0.00     0.015 A 
ENDBRANCH  14  17
ENDBRANCH   1  14
BRANCH   4  24
ATOM     24  C   UNL d   1     -41.801-123.674 -50.455  0.00  0.00     0.108 C 
BRANCH  24  25
ATOM     25  C   UNL d   1     -42.503-123.590 -50.020  0.00  0.00     0.118 A 
ATOM     26  O   UNL d   1     -43.232-123.338 -50.321  0.00  0.00    -0.304 OA
ATOM     27  C   UNL d   1     -43.789-123.333 -49.693  0.00  0.00     0.123 A 
ATOM     28  C   UNL d   1     -43.394-123.584 -49.007  0.00  0.00     0.029 A 
ATOM     29  C   UNL d   1     -42.601-123.741 -49.214  0.00  0.00     0.028 A 
ENDBRANCH  24  25
ENDBRANCH   4  24
TORSDOF 4
ENDMDL
