MODEL 1
REMARK VINA RESULT:      -6.9      0.000      0.000
REMARK  5 active torsions:
REMARK  status: ('A' for Active; 'I' for Inactive)
REMARK    1  A    between atoms: N_6  and  C_1 
REMARK    2  A    between atoms: S_10  and  C_4 
REMARK       I    between atoms: C_7  and  N_6 
REMARK       I    between atoms: N_8  and  C_7 
REMARK    3  A    between atoms: C_11  and  N_8 
REMARK    4  A    between atoms: C_12  and  S_10 
REMARK    5  A    between atoms: C_15  and  C_12 
ROOT
ATOM      1  N   UNL d   1     -47.484  13.542  22.984  0.00  0.00    -0.321 NA
ATOM      2  C   UNL d   1     -47.876  14.096  22.778  0.00  0.00     0.422 C 
ATOM      3  N   UNL d   1     -48.343  14.792  22.510  0.00  0.00    -0.180 NA
ATOM      4  O   UNL d   1     -48.435  13.854  23.128  0.00  0.00    -0.228 OA
ENDROOT
BRANCH   1   5
ATOM      5  C   UNL d   1     -46.871  12.936  23.143  0.00  0.00     0.271 A 
ATOM      6  S   UNL d   1     -46.857  12.246  23.307  0.00  0.00    -0.006 SA
ATOM      7  C   UNL d   1     -46.224  11.926  23.400  0.00  0.00     0.166 A 
ATOM      8  N   UNL d   1     -45.620  12.294  23.329  0.00  0.00    -0.132 NA
ATOM      9  N   UNL d   1     -46.268  13.305  23.072  0.00  0.00    -0.107 NA
BRANCH   7  10
ATOM     10  S   UNL d   1     -46.070  11.235  23.567  0.00  0.00    -0.059 SA
BRANCH  10  11
ATOM     11  C   UNL d   1     -45.284  10.994  23.643  0.00  0.00     0.037 C 
BRANCH  11  12
ATOM     12  C   UNL d   1     -45.104  10.191  23.698  0.00  0.00     0.007 C 
ATOM     13  C   UNL d   1     -44.321   9.936  23.671  0.00  0.00     0.001 C 
ENDBRANCH  11  12
ENDBRANCH  10  11
ENDBRANCH   7  10
ENDBRANCH   1   5
BRANCH   3  14
ATOM     14  C   UNL d   1     -49.139  14.868  22.746  0.00  0.00     0.087 A 
ATOM     15  C   UNL d   1     -49.725  14.480  22.329  0.00  0.00     0.019 A 
ATOM     16  C   UNL d   1     -50.522  14.555  22.565  0.00  0.00     0.002 A 
ATOM     17  C   UNL d   1     -50.718  15.019  23.216  0.00  0.00     0.000 A 
ATOM     18  C   UNL d   1     -50.120  15.414  23.640  0.00  0.00     0.002 A 
ATOM     19  C   UNL d   1     -49.331  15.336  23.403  0.00  0.00     0.019 A 
ENDBRANCH   3  14
TORSDOF 5
ENDMDL
MODEL 2
REMARK VINA RESULT:      -6.1      1.659      1.909
REMARK  5 active torsions:
REMARK  status: ('A' for Active; 'I' for Inactive)
REMARK    1  A    between atoms: N_6  and  C_1 
REMARK    2  A    between atoms: S_10  and  C_4 
REMARK       I    between atoms: C_7  and  N_6 
REMARK       I    between atoms: N_8  and  C_7 
REMARK    3  A    between atoms: C_11  and  N_8 
REMARK    4  A    between atoms: C_12  and  S_10 
REMARK    5  A    between atoms: C_15  and  C_12 
ROOT
ATOM      1  N   UNL d   1     -47.773  12.990  22.946  0.00  0.00    -0.321 NA
ATOM      2  C   UNL d   1     -48.459  12.927  23.117  0.00  0.00     0.422 C 
ATOM      3  N   UNL d   1     -49.302  12.833  23.346  0.00  0.00    -0.180 NA
ATOM      4  O   UNL d   1     -48.648  13.356  22.593  0.00  0.00    -0.228 OA
ENDROOT
BRANCH   1   5
ATOM      5  C   UNL d   1     -46.900  12.959  22.873  0.00  0.00     0.271 A 
ATOM      6  S   UNL d   1     -46.408  13.230  22.440  0.00  0.00    -0.006 SA
ATOM      7  C   UNL d   1     -45.720  13.075  22.559  0.00  0.00     0.166 A 
ATOM      8  N   UNL d   1     -45.535  12.655  23.102  0.00  0.00    -0.132 NA
ATOM      9  N   UNL d   1     -46.715  12.539  23.416  0.00  0.00    -0.107 NA
BRANCH   7  10
ATOM     10  S   UNL d   1     -45.124  13.283  22.198  0.00  0.00    -0.059 SA
BRANCH  10  11
ATOM     11  C   UNL d   1     -44.553  12.726  21.986  0.00  0.00     0.037 C 
BRANCH  11  12
ATOM     12  C   UNL d   1     -43.969  12.924  21.439  0.00  0.00     0.007 C 
ATOM     13  C   UNL d   1     -43.236  12.548  21.455  0.00  0.00     0.001 C 
ENDBRANCH  11  12
ENDBRANCH  10  11
ENDBRANCH   7  10
ENDBRANCH   1   5
BRANCH   3  14
ATOM     14  C   UNL d   1     -49.893  13.232  22.913  0.00  0.00     0.087 A 
ATOM     15  C   UNL d   1     -50.212  12.883  22.247  0.00  0.00     0.019 A 
ATOM     16  C   UNL d   1     -50.804  13.283  21.813  0.00  0.00     0.002 A 
ATOM     17  C   UNL d   1     -51.064  14.024  22.054  0.00  0.00     0.000 A 
ATOM     18  C   UNL d   1     -50.738  14.379  22.733  0.00  0.00     0.002 A 
ATOM     19  C   UNL d   1     -50.151  13.980  23.161  0.00  0.00     0.019 A 
ENDBRANCH   3  14
TORSDOF 5
ENDMDL
MODEL 3
REMARK VINA RESULT:      -5.2      2.920      3.365
REMARK  5 active torsions:
REMARK  status: ('A' for Active; 'I' for Inactive)
REMARK    1  A    between atoms: N_6  and  C_1 
REMARK    2  A    between atoms: S_10  and  C_4 
REMARK       I    between atoms: C_7  and  N_6 
REMARK       I    between atoms: N_8  and  C_7 
REMARK    3  A    between atoms: C_11  and  N_8 
REMARK    4  A    between atoms: C_12  and  S_10 
REMARK    5  A    between atoms: C_15  and  C_12 
ROOT
ATOM      1  N   UNL d   1     -45.269  12.997  22.298  0.00  0.00    -0.321 NA
ATOM      2  C   UNL d   1     -45.867  13.070  22.674  0.00  0.00     0.422 C 
ATOM      3  N   UNL d   1     -46.595  13.151  23.159  0.00  0.00    -0.180 NA
ATOM      4  O   UNL d   1     -46.195  13.367  22.128  0.00  0.00    -0.228 OA
ENDROOT
BRANCH   1   5
ATOM      5  C   UNL d   1     -44.468  12.834  21.984  0.00  0.00     0.271 A 
ATOM      6  S   UNL d   1     -44.021  13.139  21.525  0.00  0.00    -0.006 SA
ATOM      7  C   UNL d   1     -43.386  12.831  21.404  0.00  0.00     0.166 A 
ATOM      8  N   UNL d   1     -43.209  12.229  21.738  0.00  0.00    -0.132 NA
ATOM      9  N   UNL d   1     -44.290  12.232  22.318  0.00  0.00    -0.107 NA
BRANCH   7  10
ATOM     10  S   UNL d   1     -42.844  13.036  20.965  0.00  0.00    -0.059 SA
BRANCH  10  11
ATOM     11  C   UNL d   1     -42.231  13.506  21.258  0.00  0.00     0.037 C 
BRANCH  11  12
ATOM     12  C   UNL d   1     -41.661  13.805  20.742  0.00  0.00     0.007 C 
ATOM     13  C   UNL d   1     -41.040  14.264  21.028  0.00  0.00     0.001 C 
ENDBRANCH  11  12
ENDBRANCH  10  11
ENDBRANCH   7  10
ENDBRANCH   1   5
BRANCH   3  14
ATOM     14  C   UNL d   1     -47.277  13.495  22.823  0.00  0.00     0.087 A 
ATOM     15  C   UNL d   1     -47.823  13.022  22.442  0.00  0.00     0.019 A 
ATOM     16  C   UNL d   1     -48.506  13.366  22.105  0.00  0.00     0.002 A 
ATOM     17  C   UNL d   1     -48.628  14.177  22.156  0.00  0.00     0.000 A 
ATOM     18  C   UNL d   1     -48.070  14.658  22.545  0.00  0.00     0.002 A 
ATOM     19  C   UNL d   1     -47.394  14.314  22.878  0.00  0.00     0.019 A 
ENDBRANCH   3  14
TORSDOF 5
ENDMDL
MODEL 4
REMARK VINA RESULT:      -5.2      8.499      9.637
REMARK  5 active torsions:
REMARK  status: ('A' for Active; 'I' for Inactive)
REMARK    1  A    between atoms: N_6  and  C_1 
REMARK    2  A    between atoms: S_10  and  C_4 
REMARK       I    between atoms: C_7  and  N_6 
REMARK       I    between atoms: N_8  and  C_7 
REMARK    3  A    between atoms: C_11  and  N_8 
REMARK    4  A    between atoms: C_12  and  S_10 
REMARK    5  A    between atoms: C_15  and  C_12 
ROOT
ATOM      1  N   UNL d   1     -40.122  14.587  19.556  0.00  0.00    -0.321 NA
ATOM      2  C   UNL d   1     -40.270  14.652  20.247  0.00  0.00     0.422 C 
ATOM      3  N   UNL d   1     -40.476  14.728  21.098  0.00  0.00    -0.180 NA
ATOM      4  O   UNL d   1     -39.600  14.808  20.394  0.00  0.00    -0.228 OA
ENDROOT
BRANCH   1   5
ATOM      5  C   UNL d   1     -40.114  14.469  18.688  0.00  0.00     0.271 A 
ATOM      6  S   UNL d   1     -39.721  14.690  18.140  0.00  0.00    -0.006 SA
ATOM      7  C   UNL d   1     -39.889  14.467  17.482  0.00  0.00     0.166 A 
ATOM      8  N   UNL d   1     -40.441  14.030  17.380  0.00  0.00    -0.132 NA
ATOM      9  N   UNL d   1     -40.665  14.031  18.586  0.00  0.00    -0.107 NA
BRANCH   7  10
ATOM     10  S   UNL d   1     -39.575  14.616  16.843  0.00  0.00    -0.059 SA
BRANCH  10  11
ATOM     11  C   UNL d   1     -38.933  14.167  16.584  0.00  0.00     0.037 C 
BRANCH  11  12
ATOM     12  C   UNL d   1     -38.551  14.364  15.879  0.00  0.00     0.007 C 
ATOM     13  C   UNL d   1     -38.020  13.839  15.532  0.00  0.00     0.001 C 
ENDBRANCH  11  12
ENDBRANCH  10  11
ENDBRANCH   7  10
ENDBRANCH   1   5
BRANCH   3  14
ATOM     14  C   UNL d   1     -39.881  14.925  21.649  0.00  0.00     0.087 A 
ATOM     15  C   UNL d   1     -39.457  14.331  22.017  0.00  0.00     0.019 A 
ATOM     16  C   UNL d   1     -38.861  14.528  22.569  0.00  0.00     0.002 A 
ATOM     17  C   UNL d   1     -38.702  15.315  22.741  0.00  0.00     0.000 A 
ATOM     18  C   UNL d   1     -39.135  15.920  22.366  0.00  0.00     0.002 A 
ATOM     19  C   UNL d   1     -39.725  15.721  21.819  0.00  0.00     0.019 A 
ENDBRANCH   3  14
TORSDOF 5
ENDMDL
MODEL 5
REMARK VINA RESULT:      -5.0      8.703     10.021
REMARK  5 active torsions:
REMARK  status: ('A' for Active; 'I' for Inactive)
REMARK    1  A    between atoms: N_6  and  C_1 
REMARK    2  A    between atoms: S_10  and  C_4 
REMARK       I    between atoms: C_7  and  N_6 
REMARK       I    between atoms: N_8  and  C_7 
REMARK    3  A    between atoms: C_11  and  N_8 
REMARK    4  A    between atoms: C_12  and  S_10 
REMARK    5  A    between atoms: C_15  and  C_12 
ROOT
ATOM      1  N   UNL d   1     -39.815  14.481  19.199  0.00  0.00    -0.321 NA
ATOM      2  C   UNL d   1     -39.834  14.102  18.599  0.00  0.00     0.422 C 
ATOM      3  N   UNL d   1     -39.879  13.624  17.863  0.00  0.00    -0.180 NA
ATOM      4  O   UNL d   1     -39.222  14.374  18.386  0.00  0.00    -0.228 OA
ENDROOT
BRANCH   1   5
ATOM      5  C   UNL d   1     -39.946  14.868  19.974  0.00  0.00     0.271 A 
ATOM      6  S   UNL d   1     -39.560  15.242  20.437  0.00  0.00    -0.006 SA
ATOM      7  C   UNL d   1     -39.871  15.476  21.037  0.00  0.00     0.166 A 
ATOM      8  N   UNL d   1     -40.556  15.336  21.165  0.00  0.00    -0.132 NA
ATOM      9  N   UNL d   1     -40.631  14.728  20.102  0.00  0.00    -0.107 NA
BRANCH   7  10
ATOM     10  S   UNL d   1     -39.594  15.864  21.586  0.00  0.00    -0.059 SA
BRANCH  10  11
ATOM     11  C   UNL d   1     -39.262  15.480  22.237  0.00  0.00     0.037 C 
BRANCH  11  12
ATOM     12  C   UNL d   1     -38.953  15.922  22.861  0.00  0.00     0.007 C 
ATOM     13  C   UNL d   1     -38.583  15.547  23.495  0.00  0.00     0.001 C 
ENDBRANCH  11  12
ENDBRANCH  10  11
ENDBRANCH   7  10
ENDBRANCH   1   5
BRANCH   3  14
ATOM     14  C   UNL d   1     -39.268  13.680  17.298  0.00  0.00     0.087 A 
ATOM     15  C   UNL d   1     -38.652  13.144  17.313  0.00  0.00     0.019 A 
ATOM     16  C   UNL d   1     -38.040  13.200  16.747  0.00  0.00     0.002 A 
ATOM     17  C   UNL d   1     -38.056  13.792  16.178  0.00  0.00     0.000 A 
ATOM     18  C   UNL d   1     -38.685  14.339  16.164  0.00  0.00     0.002 A 
ATOM     19  C   UNL d   1     -39.290  14.280  16.726  0.00  0.00     0.019 A 
ENDBRANCH   3  14
TORSDOF 5
ENDMDL
MODEL 6
REMARK VINA RESULT:      -4.9      2.063      4.728
REMARK  5 active torsions:
REMARK  status: ('A' for Active; 'I' for Inactive)
REMARK    1  A    between atoms: N_6  and  C_1 
REMARK    2  A    between atoms: S_10  and  C_4 
REMARK       I    between atoms: C_7  and  N_6 
REMARK       I    between atoms: N_8  and  C_7 
REMARK    3  A    between atoms: C_11  and  N_8 
REMARK    4  A    between atoms: C_12  and  S_10 
REMARK    5  A    between atoms: C_15  and  C_12 
ROOT
ATOM      1  N   UNL d   1     -47.552  12.172  23.179  0.00  0.00    -0.321 NA
ATOM      2  C   UNL d   1     -46.868  12.288  23.331  0.00  0.00     0.422 C 
ATOM      3  N   UNL d   1     -46.026  12.428  23.542  0.00  0.00    -0.180 NA
ATOM      4  O   UNL d   1     -46.712  12.369  22.650  0.00  0.00    -0.228 OA
ENDROOT
BRANCH   1   5
ATOM      5  C   UNL d   1     -48.413  12.013  23.169  0.00  0.00     0.271 A 
ATOM      6  S   UNL d   1     -48.990  12.309  22.881  0.00  0.00    -0.006 SA
ATOM      7  C   UNL d   1     -49.628  12.009  23.000  0.00  0.00     0.166 A 
ATOM      8  N   UNL d   1     -49.682  11.424  23.400  0.00  0.00    -0.132 NA
ATOM      9  N   UNL d   1     -48.467  11.428  23.569  0.00  0.00    -0.107 NA
BRANCH   7  10
ATOM     10  S   UNL d   1     -50.288  12.207  22.768  0.00  0.00    -0.059 SA
BRANCH  10  11
ATOM     11  C   UNL d   1     -50.363  12.735  22.137  0.00  0.00     0.037 C 
BRANCH  11  12
ATOM     12  C   UNL d   1     -51.037  13.207  22.075  0.00  0.00     0.007 C 
ATOM     13  C   UNL d   1     -51.064  13.825  21.530  0.00  0.00     0.001 C 
ENDBRANCH  11  12
ENDBRANCH  10  11
ENDBRANCH   7  10
ENDBRANCH   1   5
BRANCH   3  14
ATOM     14  C   UNL d   1     -45.470  12.578  22.938  0.00  0.00     0.087 A 
ATOM     15  C   UNL d   1     -44.899  12.021  22.766  0.00  0.00     0.019 A 
ATOM     16  C   UNL d   1     -44.342  12.170  22.161  0.00  0.00     0.002 A 
ATOM     17  C   UNL d   1     -44.369  12.876  21.741  0.00  0.00     0.000 A 
ATOM     18  C   UNL d   1     -44.952  13.444  21.918  0.00  0.00     0.002 A 
ATOM     19  C   UNL d   1     -45.502  13.292  22.518  0.00  0.00     0.019 A 
ENDBRANCH   3  14
TORSDOF 5
ENDMDL
