MODEL 1
REMARK VINA RESULT:      36.9      0.000      0.000
REMARK  6 active torsions:
REMARK  status: ('A' for Active; 'I' for Inactive)
REMARK    1  A    between atoms: N_2  and  S_1 
REMARK    2  A    between atoms: C_4  and  S_1 
REMARK    3  A    between atoms: C_5  and  N_3 
REMARK    4  A    between atoms: C_10  and  C_4 
REMARK    5  A    between atoms: C_14  and  C_10 
REMARK    6  A    between atoms: O_15  and  C_13 
ROOT
ATOM      1  N   UNL d   1      45.778 -18.066  40.318  0.00  0.00    -0.226 N 
ATOM      2  N   UNL d   1      46.049 -18.797  41.780  0.00  0.00    -0.300 N 
ATOM      3  C   UNL d   1      45.167 -18.111  40.884  0.00  0.00     0.111 A 
ATOM      4  C   UNL d   1      46.503 -18.382  40.490  0.00  0.00     0.111 A 
ATOM      5  C   UNL d   1      46.647 -18.745  41.208  0.00  0.00     0.100 A 
ATOM      6  C   UNL d   1      45.311 -18.473  41.601  0.00  0.00     0.100 A 
ENDROOT
BRANCH   1   7
ATOM      7  S   UNL d   1      45.641 -17.698  39.584  0.00  0.00     0.272 S 
ATOM      8  O   UNL d   1      46.467 -17.758  39.404  0.00  0.00    -0.200 OA
ATOM      9  O   UNL d   1      44.845 -17.642  39.760  0.00  0.00    -0.200 OA
BRANCH   7  10
ATOM     10  C   UNL d   1      45.518 -17.339  38.861  0.00  0.00     0.116 C 
BRANCH  10  11
ATOM     11  C   UNL d   1      44.881 -16.802  38.767  0.00  0.00     0.014 C 
BRANCH  11  12
ATOM     12  C   UNL d   1      44.799 -16.343  38.050  0.00  0.00     0.001 A 
ATOM     13  C   UNL d   1      44.076 -16.364  37.616  0.00  0.00     0.000 A 
ATOM     14  C   UNL d   1      44.010 -15.916  36.926  0.00  0.00     0.000 A 
ATOM     15  C   UNL d   1      44.628 -15.458  36.663  0.00  0.00     0.000 A 
ATOM     16  C   UNL d   1      45.341 -15.446  37.105  0.00  0.00     0.000 A 
ATOM     17  C   UNL d   1      45.428 -15.886  37.797  0.00  0.00     0.000 A 
ENDBRANCH  11  12
ENDBRANCH  10  11
ENDBRANCH   7  10
ENDBRANCH   1   7
BRANCH   2  18
ATOM     18  C   UNL d   1      46.172 -19.156  42.504  0.00  0.00     0.086 A 
ATOM     19  C   UNL d   1      46.336 -18.680  43.184  0.00  0.00     0.110 A 
ATOM     20  C   UNL d   1      46.462 -19.040  43.919  0.00  0.00     0.026 A 
ATOM     21  C   UNL d   1      46.427 -19.886  43.996  0.00  0.00     0.002 A 
ATOM     22  C   UNL d   1      46.266 -20.330  43.321  0.00  0.00     0.002 A 
ATOM     23  C   UNL d   1      46.140 -19.957  42.579  0.00  0.00     0.019 A 
BRANCH  19  24
ATOM     24  O   UNL d   1      46.370 -17.863  43.112  0.00  0.00    -0.327 OA
ATOM     25  C   UNL d   1      46.279 -17.374  43.769  0.00  0.00     0.181 C 
ENDBRANCH  19  24
ENDBRANCH   2  18
TORSDOF 6
ENDMDL
