MODEL 1
REMARK VINA RESULT:      21.0      0.000      0.000
REMARK  5 active torsions:
REMARK  status: ('A' for Active; 'I' for Inactive)
REMARK    1  A    between atoms: C_2  and  C_1 
REMARK    2  A    between atoms: C_6  and  C_2 
REMARK    3  A    between atoms: C_3  and  O_5 
REMARK    4  A    between atoms: C_11  and  C_3 
REMARK    5  A    between atoms: O_5  and  C_6 
ROOT
ATOM      1  O   UNL d   1      58.811  49.299  50.516  0.00  0.00    -0.268 OA
ENDROOT
BRANCH   1   2
ATOM      2  C   UNL d   1      58.037  49.499  50.740  0.00  0.00     0.300 C 
ATOM      3  O   UNL d   1      57.890  49.702  51.514  0.00  0.00    -0.259 OA
BRANCH   2   4
ATOM      4  C   UNL d   1      57.429  49.495  50.192  0.00  0.00     0.064 A 
ATOM      5  C   UNL d   1      57.572  49.687  49.411  0.00  0.00     0.005 A 
ATOM      6  C   UNL d   1      56.964  49.681  48.867  0.00  0.00     0.000 A 
ATOM      7  C   UNL d   1      56.205  49.484  49.097  0.00  0.00     0.000 A 
ATOM      8  C   UNL d   1      56.055  49.289  49.884  0.00  0.00     0.000 A 
ATOM      9  C   UNL d   1      56.666  49.293  50.436  0.00  0.00     0.005 A 
ENDBRANCH   2   4
ENDBRANCH   1   2
BRANCH   1  10
ATOM     10  C   UNL d   1      59.455  49.707  50.862  0.00  0.00     0.168 C 
BRANCH  10  11
ATOM     11  C   UNL d   1      60.225  49.573  50.617  0.00  0.00     0.226 C 
ATOM     12  O   UNL d   1      60.414  49.415  49.829  0.00  0.00    -0.284 OA
BRANCH  11  13
ATOM     13  C   UNL d   1      60.845  49.603  51.219  0.00  0.00     0.070 A 
ATOM     14  S   UNL d   1      60.728  49.635  52.068  0.00  0.00    -0.083 SA
ATOM     15  C   UNL d   1      61.505  49.657  52.450  0.00  0.00     0.035 A 
ATOM     16  C   UNL d   1      62.107  49.640  51.830  0.00  0.00     0.008 A 
ATOM     17  C   UNL d   1      61.703  49.606  51.068  0.00  0.00     0.010 A 
ENDBRANCH  11  13
ENDBRANCH  10  11
ENDBRANCH   1  10
TORSDOF 5
ENDMDL
