MODEL 1
REMARK VINA RESULT:      84.0      0.000      0.000
REMARK  5 active torsions:
REMARK  status: ('A' for Active; 'I' for Inactive)
REMARK    1  A    between atoms: N_3  and  C_1 
REMARK    2  A    between atoms: C_12  and  N_2 
REMARK       I    between atoms: C_5  and  N_3 
REMARK    3  A    between atoms: C_8  and  C_5 
REMARK    4  A    between atoms: C_15  and  C_12 
REMARK    5  A    between atoms: O_22  and  C_15 
ROOT
ATOM      1  C   UNL d   1      59.452  49.297  51.510  0.00  0.00     0.183 A 
ATOM      2  N   UNL d   1      60.221  49.194  51.786  0.00  0.00    -0.280 N 
ATOM      3  S   UNL d   1      59.487  49.385  50.689  0.00  0.00    -0.048 SA
ATOM      4  C   UNL d   1      60.738  49.218  51.139  0.00  0.00     0.072 A 
ATOM      5  C   UNL d   1      60.283  49.336  50.458  0.00  0.00     0.048 A 
ATOM      6  C   UNL d   1      61.559  49.147  51.081  0.00  0.00     0.018 A 
ATOM      7  C   UNL d   1      60.648  49.384  49.719  0.00  0.00     0.008 A 
ATOM      8  C   UNL d   1      61.925  49.195  50.342  0.00  0.00     0.002 A 
ATOM      9  C   UNL d   1      61.470  49.314  49.661  0.00  0.00     0.001 A 
ATOM     10  C   UNL d   1      61.829  49.362  48.926  0.00  0.00     0.000 C 
ENDROOT
BRANCH   1  11
ATOM     11  N   UNL d   1      58.770  49.309  51.978  0.00  0.00    -0.183 NA
ATOM     12  C   UNL d   1      58.046  49.514  51.637  0.00  0.00     0.287 C 
ATOM     13  O   UNL d   1      58.008  49.704  50.834  0.00  0.00    -0.265 OA
BRANCH  12  14
ATOM     14  C   UNL d   1      57.368  49.528  52.092  0.00  0.00     0.088 A 
ATOM     15  S   UNL d   1      57.331  49.634  52.916  0.00  0.00    -0.071 SA
ATOM     16  C   UNL d   1      56.547  49.610  53.139  0.00  0.00     0.087 A 
ATOM     17 CL   UNL d   1      56.242  49.690  53.897  0.00  0.00    -0.075 Cl
ATOM     18  C   UNL d   1      56.102  49.491  52.465  0.00  0.00     0.019 A 
ATOM     19  C   UNL d   1      56.608  49.441  51.826  0.00  0.00     0.013 A 
ENDBRANCH  12  14
ENDBRANCH   1  11
BRANCH   2  20
ATOM     20  C   UNL d   1      60.767  49.075  52.392  0.00  0.00     0.151 C 
BRANCH  20  21
ATOM     21  C   UNL d   1      60.566  49.267  53.162  0.00  0.00     0.314 C 
ATOM     22  O   UNL d   1      61.078  49.075  53.772  0.00  0.00    -0.257 OA
BRANCH  21  23
ATOM     23  O   UNL d   1      59.864  49.645  53.322  0.00  0.00    -0.295 OA
ATOM     24  C   UNL d   1      59.563  49.646  54.078  0.00  0.00     0.185 C 
ENDBRANCH  21  23
ENDBRANCH  20  21
ENDBRANCH   2  20
TORSDOF 5
ENDMDL
