MODEL 1
REMARK VINA RESULT:      19.8      0.000      0.000
REMARK  4 active torsions:
REMARK  status: ('A' for Active; 'I' for Inactive)
REMARK    1  A    between atoms: C_2  and  S_1 
REMARK    2  A    between atoms: N_3  and  S_1 
REMARK    3  A    between atoms: C_4  and  C_9 
REMARK       I    between atoms: N_5  and  C_4 
REMARK    4  A    between atoms: C_6  and  N_5 
ROOT
ATOM      1  C   UNL d   1      46.204 -18.320  43.448  0.00  0.00     0.104 A 
ATOM      2  C   UNL d   1      45.960 -17.541  43.533  0.00  0.00     0.018 A 
ATOM      3  C   UNL d   1      45.856 -17.223  44.284  0.00  0.00     0.059 A 
ATOM      4  C   UNL d   1      46.344 -18.786  44.121  0.00  0.00     0.012 A 
ATOM      5  C   UNL d   1      45.995 -17.685  44.954  0.00  0.00     0.005 A 
ATOM      6  C   UNL d   1      46.240 -18.468  44.868  0.00  0.00     0.001 A 
ATOM      7  C   UNL d   1      46.590 -19.574  44.038  0.00  0.00     0.001 C 
ENDROOT
BRANCH   1   8
ATOM      8  S   UNL d   1      46.308 -18.639  42.701  0.00  0.00     0.271 S 
ATOM      9  O   UNL d   1      46.029 -19.361  42.979  0.00  0.00    -0.200 OA
ATOM     10  O   UNL d   1      46.585 -17.916  42.431  0.00  0.00    -0.200 OA
BRANCH   8  11
ATOM     11  N   UNL d   1      46.410 -18.968  41.955  0.00  0.00    -0.229 N 
ATOM     12  C   UNL d   1      46.484 -19.820  41.976  0.00  0.00     0.092 A 
ATOM     13  C   UNL d   1      46.577 -20.329  41.481  0.00  0.00     0.020 A 
ATOM     14  C   UNL d   1      46.645 -20.211  40.661  0.00  0.00     0.002 A 
ATOM     15  C   UNL d   1      46.617 -19.446  40.245  0.00  0.00     0.002 A 
ATOM     16  C   UNL d   1      46.511 -18.644  40.598  0.00  0.00     0.020 A 
ATOM     17  C   UNL d   1      46.417 -18.469  41.413  0.00  0.00     0.092 A 
ENDBRANCH   8  11
ENDBRANCH   1   8
BRANCH   3  18
ATOM     18  C   UNL d   1      45.613 -16.448  44.369  0.00  0.00     0.281 C 
ATOM     19  N   UNL d   1      46.167 -15.845  44.401  0.00  0.00    -0.187 NA
ATOM     20  O   UNL d   1      44.931 -16.430  44.402  0.00  0.00    -0.265 OA
BRANCH  19  21
ATOM     21  C   UNL d   1      45.921 -15.054  44.488  0.00  0.00     0.194 A 
ATOM     22  N   UNL d   1      45.205 -14.811  44.817  0.00  0.00    -0.106 NA
ATOM     23  O   UNL d   1      45.188 -13.974  44.793  0.00  0.00    -0.207 OA
ATOM     24  C   UNL d   1      45.893 -13.717  44.450  0.00  0.00     0.153 A 
ATOM     25  C   UNL d   1      46.349 -14.382  44.260  0.00  0.00     0.070 A 
ENDBRANCH  19  21
ENDBRANCH   3  18
TORSDOF 4
ENDMDL
