MODEL 1
REMARK VINA RESULT:      -6.7      0.000      0.000
REMARK  5 active torsions:
REMARK  status: ('A' for Active; 'I' for Inactive)
REMARK    1  A    between atoms: C_2  and  N_1 
REMARK       I    between atoms: C_3  and  N_1 
REMARK    2  A    between atoms: N_7  and  C_2 
REMARK    3  A    between atoms: C_4  and  C_3 
REMARK    4  A    between atoms: N_5  and  C_9 
REMARK    5  A    between atoms: C_17  and  N_7 
ROOT
ATOM      1  C   UNL d   1     -48.230  14.120  22.805  0.00  0.00     0.064 A 
ATOM      2  C   UNL d   1     -48.168  13.375  23.151  0.00  0.00     0.019 A 
ATOM      3  C   UNL d   1     -47.536  14.567  22.670  0.00  0.00     0.019 A 
ATOM      4  C   UNL d   1     -46.746  13.517  23.227  0.00  0.00     0.084 A 
ATOM      5  C   UNL d   1     -46.792  14.266  22.881  0.00  0.00     0.021 A 
ATOM      6  C   UNL d   1     -47.440  13.073  23.361  0.00  0.00     0.021 A 
ENDROOT
BRANCH   4   7
ATOM      7  N   UNL d   1     -46.028  13.214  23.437  0.00  0.00    -0.217 NA
BRANCH   7   8
ATOM      8  C   UNL d   1     -45.631  12.701  22.926  0.00  0.00     0.224 C 
ATOM      9  S   UNL d   1     -45.485  12.926  22.155  0.00  0.00    -0.037 SA
BRANCH   8  10
ATOM     10  N   UNL d   1     -45.382  11.951  23.209  0.00  0.00    -0.178 NA
ATOM     11  C   UNL d   1     -44.670  11.655  22.971  0.00  0.00     0.287 C 
ATOM     12  O   UNL d   1     -44.197  12.089  22.455  0.00  0.00    -0.265 OA
BRANCH  11  13
ATOM     13  C   UNL d   1     -44.419  10.933  23.237  0.00  0.00     0.087 A 
ATOM     14  S   UNL d   1     -43.636  10.699  23.326  0.00  0.00    -0.082 SA
ATOM     15  C   UNL d   1     -43.629   9.908  23.617  0.00  0.00     0.036 A 
ATOM     16  C   UNL d   1     -44.408   9.684  23.697  0.00  0.00     0.008 A 
ATOM     17  C   UNL d   1     -44.905  10.296  23.470  0.00  0.00     0.012 A 
ENDBRANCH  11  13
ENDBRANCH   8  10
ENDBRANCH   7   8
ENDBRANCH   4   7
BRANCH   1  18
ATOM     18  N   UNL d   1     -48.957  14.416  22.598  0.00  0.00    -0.300 N 
ATOM     19  C   UNL d   1     -49.284  15.038  23.018  0.00  0.00     0.107 A 
ATOM     20  C   UNL d   1     -50.023  15.346  22.815  0.00  0.00     0.142 A 
ATOM     21  O   UNL d   1     -50.438  15.028  22.185  0.00  0.00    -0.300 OA
ATOM     22  C   UNL d   1     -50.118  14.400  21.755  0.00  0.00     0.142 A 
ATOM     23  C   UNL d   1     -49.378  14.089  21.957  0.00  0.00     0.107 A 
ENDBRANCH   1  18
TORSDOF 5
ENDMDL
MODEL 2
REMARK VINA RESULT:      -6.0      1.926      5.332
REMARK  5 active torsions:
REMARK  status: ('A' for Active; 'I' for Inactive)
REMARK    1  A    between atoms: C_2  and  N_1 
REMARK       I    between atoms: C_3  and  N_1 
REMARK    2  A    between atoms: N_7  and  C_2 
REMARK    3  A    between atoms: C_4  and  C_3 
REMARK    4  A    between atoms: N_5  and  C_9 
REMARK    5  A    between atoms: C_17  and  N_7 
ROOT
ATOM      1  C   UNL d   1     -45.706  12.604  22.752  0.00  0.00     0.064 A 
ATOM      2  C   UNL d   1     -46.074  11.998  23.170  0.00  0.00     0.019 A 
ATOM      3  C   UNL d   1     -46.105  13.332  22.651  0.00  0.00     0.019 A 
ATOM      4  C   UNL d   1     -47.220  12.828  23.384  0.00  0.00     0.084 A 
ATOM      5  C   UNL d   1     -46.864  13.445  22.967  0.00  0.00     0.021 A 
ATOM      6  C   UNL d   1     -46.819  12.102  23.484  0.00  0.00     0.021 A 
ENDROOT
BRANCH   4   7
ATOM      7  N   UNL d   1     -47.958  12.926  23.697  0.00  0.00    -0.217 NA
BRANCH   7   8
ATOM      8  C   UNL d   1     -48.611  12.580  23.329  0.00  0.00     0.224 C 
ATOM      9  S   UNL d   1     -48.793  11.797  23.471  0.00  0.00    -0.037 SA
BRANCH   8  10
ATOM     10  N   UNL d   1     -49.083  13.044  22.811  0.00  0.00    -0.178 NA
ATOM     11  C   UNL d   1     -49.868  13.140  22.971  0.00  0.00     0.287 C 
ATOM     12  O   UNL d   1     -50.198  12.785  23.636  0.00  0.00    -0.265 OA
BRANCH  11  13
ATOM     13  C   UNL d   1     -50.332  13.584  22.479  0.00  0.00     0.087 A 
ATOM     14  S   UNL d   1     -50.601  14.346  22.629  0.00  0.00    -0.082 SA
ATOM     15  C   UNL d   1     -51.064  14.597  21.972  0.00  0.00     0.036 A 
ATOM     16  C   UNL d   1     -51.064  13.979  21.440  0.00  0.00     0.008 A 
ATOM     17  C   UNL d   1     -50.623  13.353  21.732  0.00  0.00     0.012 A 
ENDBRANCH  11  13
ENDBRANCH   8  10
ENDBRANCH   7   8
ENDBRANCH   4   7
BRANCH   1  18
ATOM     18  N   UNL d   1     -44.963  12.496  22.442  0.00  0.00    -0.300 N 
ATOM     19  C   UNL d   1     -44.474  11.910  22.738  0.00  0.00     0.107 A 
ATOM     20  C   UNL d   1     -43.717  11.791  22.429  0.00  0.00     0.142 A 
ATOM     21  O   UNL d   1     -43.448  12.265  21.817  0.00  0.00    -0.300 OA
ATOM     22  C   UNL d   1     -43.933  12.858  21.511  0.00  0.00     0.142 A 
ATOM     23  C   UNL d   1     -44.692  12.979  21.819  0.00  0.00     0.107 A 
ENDBRANCH   1  18
TORSDOF 5
ENDMDL
MODEL 3
REMARK VINA RESULT:      -5.8      1.282      1.698
REMARK  5 active torsions:
REMARK  status: ('A' for Active; 'I' for Inactive)
REMARK    1  A    between atoms: C_2  and  N_1 
REMARK       I    between atoms: C_3  and  N_1 
REMARK    2  A    between atoms: N_7  and  C_2 
REMARK    3  A    between atoms: C_4  and  C_3 
REMARK    4  A    between atoms: N_5  and  C_9 
REMARK    5  A    between atoms: C_17  and  N_7 
ROOT
ATOM      1  C   UNL d   1     -48.750  14.154  22.807  0.00  0.00     0.064 A 
ATOM      2  C   UNL d   1     -48.075  14.597  22.644  0.00  0.00     0.019 A 
ATOM      3  C   UNL d   1     -48.671  13.417  23.194  0.00  0.00     0.019 A 
ATOM      4  C   UNL d   1     -47.255  13.588  23.242  0.00  0.00     0.084 A 
ATOM      5  C   UNL d   1     -47.923  13.132  23.412  0.00  0.00     0.021 A 
ATOM      6  C   UNL d   1     -47.336  14.324  22.855  0.00  0.00     0.021 A 
ENDROOT
BRANCH   4   7
ATOM      7  N   UNL d   1     -46.523  13.322  23.449  0.00  0.00    -0.217 NA
BRANCH   7   8
ATOM      8  C   UNL d   1     -46.184  12.686  23.045  0.00  0.00     0.224 C 
ATOM      9  S   UNL d   1     -46.480  11.933  23.148  0.00  0.00    -0.037 SA
BRANCH   8  10
ATOM     10  N   UNL d   1     -45.535  12.826  22.530  0.00  0.00    -0.178 NA
ATOM     11  C   UNL d   1     -44.876  12.366  22.592  0.00  0.00     0.287 C 
ATOM     12  O   UNL d   1     -44.844  11.767  23.156  0.00  0.00    -0.265 OA
BRANCH  11  13
ATOM     13  C   UNL d   1     -44.244  12.491  22.101  0.00  0.00     0.087 A 
ATOM     14  S   UNL d   1     -43.515  12.115  22.151  0.00  0.00    -0.082 SA
ATOM     15  C   UNL d   1     -43.023  12.412  21.534  0.00  0.00     0.036 A 
ATOM     16  C   UNL d   1     -43.468  12.959  21.126  0.00  0.00     0.008 A 
ATOM     17  C   UNL d   1     -44.216  13.021  21.458  0.00  0.00     0.012 A 
ENDBRANCH  11  13
ENDBRANCH   8  10
ENDBRANCH   7   8
ENDBRANCH   4   7
BRANCH   1  18
ATOM     18  N   UNL d   1     -49.483  14.431  22.594  0.00  0.00    -0.300 N 
ATOM     19  C   UNL d   1     -49.825  15.051  23.005  0.00  0.00     0.107 A 
ATOM     20  C   UNL d   1     -50.570  15.340  22.797  0.00  0.00     0.142 A 
ATOM     21  O   UNL d   1     -50.976  15.005  22.169  0.00  0.00    -0.300 OA
ATOM     22  C   UNL d   1     -50.641  14.379  21.747  0.00  0.00     0.142 A 
ATOM     23  C   UNL d   1     -49.894  14.088  21.955  0.00  0.00     0.107 A 
ENDBRANCH   1  18
TORSDOF 5
ENDMDL
MODEL 4
REMARK VINA RESULT:      -5.4      7.795      9.501
REMARK  5 active torsions:
REMARK  status: ('A' for Active; 'I' for Inactive)
REMARK    1  A    between atoms: C_2  and  N_1 
REMARK       I    between atoms: C_3  and  N_1 
REMARK    2  A    between atoms: N_7  and  C_2 
REMARK    3  A    between atoms: C_4  and  C_3 
REMARK    4  A    between atoms: N_5  and  C_9 
REMARK    5  A    between atoms: C_17  and  N_7 
ROOT
ATOM      1  C   UNL d   1     -39.053  14.339  17.136  0.00  0.00     0.064 A 
ATOM      2  C   UNL d   1     -39.860  14.478  17.217  0.00  0.00     0.019 A 
ATOM      3  C   UNL d   1     -38.615  14.076  17.798  0.00  0.00     0.019 A 
ATOM      4  C   UNL d   1     -39.797  14.100  18.596  0.00  0.00     0.084 A 
ATOM      5  C   UNL d   1     -38.987  13.956  18.530  0.00  0.00     0.021 A 
ATOM      6  C   UNL d   1     -40.233  14.362  17.934  0.00  0.00     0.021 A 
ENDROOT
BRANCH   4   7
ATOM      7  N   UNL d   1     -40.170  13.987  19.303  0.00  0.00    -0.217 NA
BRANCH   7   8
ATOM      8  C   UNL d   1     -40.111  14.557  19.897  0.00  0.00     0.224 C 
ATOM      9  S   UNL d   1     -40.561  15.237  19.858  0.00  0.00    -0.037 SA
BRANCH   8  10
ATOM     10  N   UNL d   1     -39.583  14.428  20.538  0.00  0.00    -0.178 NA
ATOM     11  C   UNL d   1     -39.850  14.521  21.294  0.00  0.00     0.287 C 
ATOM     12  O   UNL d   1     -40.632  14.741  21.429  0.00  0.00    -0.265 OA
BRANCH  11  13
ATOM     13  C   UNL d   1     -39.351  14.400  21.919  0.00  0.00     0.087 A 
ATOM     14  S   UNL d   1     -38.959  14.985  22.343  0.00  0.00    -0.082 SA
ATOM     15  C   UNL d   1     -38.500  14.613  22.944  0.00  0.00     0.036 A 
ATOM     16  C   UNL d   1     -38.627  13.812  22.869  0.00  0.00     0.008 A 
ATOM     17  C   UNL d   1     -39.143  13.662  22.250  0.00  0.00     0.012 A 
ENDBRANCH  11  13
ENDBRANCH   8  10
ENDBRANCH   7   8
ENDBRANCH   4   7
BRANCH   1  18
ATOM     18  N   UNL d   1     -38.688  14.455  16.420  0.00  0.00    -0.300 N 
ATOM     19  C   UNL d   1     -38.541  13.821  15.923  0.00  0.00     0.107 A 
ATOM     20  C   UNL d   1     -38.170  13.929  15.194  0.00  0.00     0.142 A 
ATOM     21  O   UNL d   1     -37.943  14.681  14.959  0.00  0.00    -0.300 OA
ATOM     22  C   UNL d   1     -38.085  15.327  15.453  0.00  0.00     0.142 A 
ATOM     23  C   UNL d   1     -38.458  15.221  16.185  0.00  0.00     0.107 A 
ENDBRANCH   1  18
TORSDOF 5
ENDMDL
MODEL 5
REMARK VINA RESULT:      -4.5      7.611      8.381
REMARK  5 active torsions:
REMARK  status: ('A' for Active; 'I' for Inactive)
REMARK    1  A    between atoms: C_2  and  N_1 
REMARK       I    between atoms: C_3  and  N_1 
REMARK    2  A    between atoms: N_7  and  C_2 
REMARK    3  A    between atoms: C_4  and  C_3 
REMARK    4  A    between atoms: N_5  and  C_9 
REMARK    5  A    between atoms: C_17  and  N_7 
ROOT
ATOM      1  C   UNL d   1     -40.394  15.331  18.137  0.00  0.00     0.064 A 
ATOM      2  C   UNL d   1     -40.667  14.587  18.360  0.00  0.00     0.019 A 
ATOM      3  C   UNL d   1     -40.226  15.899  18.728  0.00  0.00     0.019 A 
ATOM      4  C   UNL d   1     -40.608  14.966  19.738  0.00  0.00     0.084 A 
ATOM      5  C   UNL d   1     -40.333  15.717  19.530  0.00  0.00     0.021 A 
ATOM      6  C   UNL d   1     -40.775  14.401  19.146  0.00  0.00     0.021 A 
ENDROOT
BRANCH   4   7
ATOM      7  N   UNL d   1     -40.716  14.778  20.515  0.00  0.00    -0.217 NA
BRANCH   7   8
ATOM      8  C   UNL d   1     -40.154  15.003  21.077  0.00  0.00     0.224 C 
ATOM      9  S   UNL d   1     -40.157  15.763  21.375  0.00  0.00    -0.037 SA
BRANCH   8  10
ATOM     10  N   UNL d   1     -39.584  14.442  21.335  0.00  0.00    -0.178 NA
ATOM     11  C   UNL d   1     -39.385  14.412  22.116  0.00  0.00     0.287 C 
ATOM     12  O   UNL d   1     -39.740  14.928  22.650  0.00  0.00    -0.265 OA
BRANCH  11  13
ATOM     13  C   UNL d   1     -38.837  13.876  22.376  0.00  0.00     0.087 A 
ATOM     14  S   UNL d   1     -38.576  13.794  23.152  0.00  0.00    -0.082 SA
ATOM     15  C   UNL d   1     -38.007  13.172  23.173  0.00  0.00     0.036 A 
ATOM     16  C   UNL d   1     -37.940  12.894  22.410  0.00  0.00     0.008 A 
ATOM     17  C   UNL d   1     -38.438  13.311  21.910  0.00  0.00     0.012 A 
ENDBRANCH  11  13
ENDBRANCH   8  10
ENDBRANCH   7   8
ENDBRANCH   4   7
BRANCH   1  18
ATOM     18  N   UNL d   1     -40.289  15.510  17.352  0.00  0.00    -0.300 N 
ATOM     19  C   UNL d   1     -40.927  15.736  16.891  0.00  0.00     0.107 A 
ATOM     20  C   UNL d   1     -40.831  15.921  16.092  0.00  0.00     0.142 A 
ATOM     21  O   UNL d   1     -40.088  15.879  15.751  0.00  0.00    -0.300 OA
ATOM     22  C   UNL d   1     -39.437  15.652  16.206  0.00  0.00     0.142 A 
ATOM     23  C   UNL d   1     -39.532  15.466  17.007  0.00  0.00     0.107 A 
ENDBRANCH   1  18
TORSDOF 5
ENDMDL
MODEL 6
REMARK VINA RESULT:      -3.8      8.421     10.108
REMARK  5 active torsions:
REMARK  status: ('A' for Active; 'I' for Inactive)
REMARK    1  A    between atoms: C_2  and  N_1 
REMARK       I    between atoms: C_3  and  N_1 
REMARK    2  A    between atoms: N_7  and  C_2 
REMARK    3  A    between atoms: C_4  and  C_3 
REMARK    4  A    between atoms: N_5  and  C_9 
REMARK    5  A    between atoms: C_17  and  N_7 
ROOT
ATOM      1  C   UNL d   1     -38.534  14.841  16.399  0.00  0.00     0.064 A 
ATOM      2  C   UNL d   1     -37.954  15.197  16.861  0.00  0.00     0.019 A 
ATOM      3  C   UNL d   1     -39.327  14.840  16.667  0.00  0.00     0.019 A 
ATOM      4  C   UNL d   1     -38.935  15.547  17.842  0.00  0.00     0.084 A 
ATOM      5  C   UNL d   1     -39.528  15.193  17.390  0.00  0.00     0.021 A 
ATOM      6  C   UNL d   1     -38.144  15.547  17.573  0.00  0.00     0.021 A 
ENDROOT
BRANCH   4   7
ATOM      7  N   UNL d   1     -39.118  15.894  18.547  0.00  0.00    -0.217 NA
BRANCH   7   8
ATOM      8  C   UNL d   1     -39.045  15.466  19.250  0.00  0.00     0.224 C 
ATOM      9  S   UNL d   1     -38.327  15.436  19.637  0.00  0.00    -0.037 SA
BRANCH   8  10
ATOM     10  N   UNL d   1     -39.716  15.065  19.558  0.00  0.00    -0.178 NA
ATOM     11  C   UNL d   1     -40.024  15.298  20.266  0.00  0.00     0.287 C 
ATOM     12  O   UNL d   1     -39.680  15.922  20.679  0.00  0.00    -0.265 OA
BRANCH  11  13
ATOM     13  C   UNL d   1     -40.670  14.920  20.573  0.00  0.00     0.087 A 
ATOM     14  S   UNL d   1     -41.383  15.275  20.780  0.00  0.00    -0.082 SA
ATOM     15  C   UNL d   1     -41.899  14.678  21.075  0.00  0.00     0.036 A 
ATOM     16  C   UNL d   1     -41.486  13.977  21.040  0.00  0.00     0.008 A 
ATOM     17  C   UNL d   1     -40.735  14.104  20.737  0.00  0.00     0.012 A 
ENDBRANCH  11  13
ENDBRANCH   8  10
ENDBRANCH   7   8
ENDBRANCH   4   7
BRANCH   1  18
ATOM     18  N   UNL d   1     -38.339  14.494  15.691  0.00  0.00    -0.300 N 
ATOM     19  C   UNL d   1     -38.210  14.956  15.027  0.00  0.00     0.107 A 
ATOM     20  C   UNL d   1     -38.010  14.613  14.303  0.00  0.00     0.142 A 
ATOM     21  O   UNL d   1     -37.940  13.799  14.243  0.00  0.00    -0.300 OA
ATOM     22  C   UNL d   1     -38.068  13.324  14.905  0.00  0.00     0.142 A 
ATOM     23  C   UNL d   1     -38.268  13.666  15.633  0.00  0.00     0.107 A 
ENDBRANCH   1  18
TORSDOF 5
ENDMDL
