MODEL 1
REMARK VINA RESULT:      -5.9      0.000      0.000
REMARK  1 active torsions:
REMARK  status: ('A' for Active; 'I' for Inactive)
REMARK       I    between atoms: N_2  and  C_1 
REMARK    1  A    between atoms: C_5  and  N_2 
ROOT
ATOM      1  C   UNL d   1     -48.689  11.560  23.111  0.00  0.00     0.100 A 
ATOM      2  C   UNL d   1     -50.100  12.323  22.723  0.00  0.00     0.000 A 
ATOM      3  C   UNL d   1     -48.836  11.789  22.330  0.00  0.00     0.020 A 
ATOM      4  C   UNL d   1     -49.248  11.714  23.698  0.00  0.00     0.020 A 
ATOM      5  C   UNL d   1     -49.541  12.170  22.136  0.00  0.00     0.002 A 
ATOM      6  C   UNL d   1     -49.953  12.095  23.505  0.00  0.00     0.002 A 
ATOM      7  C   UNL d   1     -50.809  12.706  22.531  0.00  0.00     0.000 C 
ENDROOT
BRANCH   1   8
ATOM      8  N   UNL d   1     -47.983  11.178  23.308  0.00  0.00    -0.056 NA
ATOM      9  C   UNL d   1     -47.315  11.616  23.497  0.00  0.00     0.787 C 
ATOM     10  N   UNL d   1     -46.602  11.238  23.696  0.00  0.00     0.064 N 
ATOM     11  N   UNL d   1     -47.354  12.442  23.489  0.00  0.00     0.064 N 
ENDBRANCH   1   8
TORSDOF 1
ENDMDL
MODEL 2
REMARK VINA RESULT:      -5.7      1.747      2.905
REMARK  1 active torsions:
REMARK  status: ('A' for Active; 'I' for Inactive)
REMARK       I    between atoms: N_2  and  C_1 
REMARK    1  A    between atoms: C_5  and  N_2 
ROOT
ATOM      1  C   UNL d   1     -48.101  12.763  23.248  0.00  0.00     0.100 A 
ATOM      2  C   UNL d   1     -46.610  13.319  22.810  0.00  0.00     0.000 A 
ATOM      3  C   UNL d   1     -47.426  12.313  23.412  0.00  0.00     0.020 A 
ATOM      4  C   UNL d   1     -48.029  13.490  22.865  0.00  0.00     0.020 A 
ATOM      5  C   UNL d   1     -46.681  12.592  23.193  0.00  0.00     0.002 A 
ATOM      6  C   UNL d   1     -47.284  13.768  22.646  0.00  0.00     0.002 A 
ATOM      7  C   UNL d   1     -45.863  13.600  22.590  0.00  0.00     0.000 C 
ENDROOT
BRANCH   1   8
ATOM      8  N   UNL d   1     -48.849  12.487  23.466  0.00  0.00    -0.056 NA
ATOM      9  C   UNL d   1     -49.279  12.013  22.952  0.00  0.00     0.787 C 
ATOM     10  N   UNL d   1     -50.033  11.731  23.165  0.00  0.00     0.064 N 
ATOM     11  N   UNL d   1     -48.960  11.814  22.216  0.00  0.00     0.064 N 
ENDBRANCH   1   8
TORSDOF 1
ENDMDL
MODEL 3
REMARK VINA RESULT:      -5.5      1.731      2.919
REMARK  1 active torsions:
REMARK  status: ('A' for Active; 'I' for Inactive)
REMARK       I    between atoms: N_2  and  C_1 
REMARK    1  A    between atoms: C_5  and  N_2 
ROOT
ATOM      1  C   UNL d   1     -48.345  12.751  22.841  0.00  0.00     0.100 A 
ATOM      2  C   UNL d   1     -47.070  11.871  23.412  0.00  0.00     0.000 A 
ATOM      3  C   UNL d   1     -47.600  13.102  22.916  0.00  0.00     0.020 A 
ATOM      4  C   UNL d   1     -48.452  11.960  23.051  0.00  0.00     0.020 A 
ATOM      5  C   UNL d   1     -46.963  12.662  23.201  0.00  0.00     0.002 A 
ATOM      6  C   UNL d   1     -47.815  11.520  23.337  0.00  0.00     0.002 A 
ATOM      7  C   UNL d   1     -46.432  11.428  23.698  0.00  0.00     0.000 C 
ENDROOT
BRANCH   1   8
ATOM      8  N   UNL d   1     -48.986  13.189  22.556  0.00  0.00    -0.056 NA
ATOM      9  C   UNL d   1     -49.132  13.228  21.749  0.00  0.00     0.787 C 
ATOM     10  N   UNL d   1     -49.774  13.667  21.455  0.00  0.00     0.064 N 
ATOM     11  N   UNL d   1     -48.634  12.827  21.225  0.00  0.00     0.064 N 
ENDBRANCH   1   8
TORSDOF 1
ENDMDL
