MODEL 1
REMARK VINA RESULT:      82.9      0.000      0.000
REMARK  6 active torsions:
REMARK  status: ('A' for Active; 'I' for Inactive)
REMARK    1  A    between atoms: C_21  and  N_1 
REMARK       I    between atoms: N_7  and  C_10 
REMARK    2  A    between atoms: C_15  and  N_8 
REMARK    3  A    between atoms: C_10  and  C_27 
REMARK    4  A    between atoms: C_29  and  C_21 
REMARK    5  A    between atoms: O_28  and  C_24 
REMARK    6  A    between atoms: C_27  and  C_29 
ROOT
ATOM      1  N   UNL d   1      61.140  47.720  50.354  0.00  0.00    -0.269 N 
ATOM      2  N   UNL d   1      61.364  46.103  50.370  0.00  0.00    -0.301 N 
ATOM      3  C   UNL d   1      61.023  48.548  50.355  0.00  0.00     0.265 C 
ATOM      4  C   UNL d   1      61.376  47.347  49.669  0.00  0.00     0.102 A 
ATOM      5  C   UNL d   1      61.011  47.309  51.053  0.00  0.00     0.102 A 
ATOM      6  C   UNL d   1      61.492  46.528  49.668  0.00  0.00     0.100 A 
ATOM      7  C   UNL d   1      61.128  46.481  51.052  0.00  0.00     0.100 A 
ATOM      8  O   UNL d   1      61.145  48.994  49.664  0.00  0.00    -0.267 OA
ENDROOT
BRANCH   3   9
ATOM      9  C   UNL d   1      60.782  48.912  51.064  0.00  0.00     0.063 C 
BRANCH   9  10
ATOM     10  C   UNL d   1      60.336  49.621  51.012  0.00  0.00     0.024 C 
BRANCH  10  11
ATOM     11  C   UNL d   1      59.792  49.708  50.382  0.00  0.00     0.088 C 
BRANCH  11  12
ATOM     12  N   UNL d   1      58.971  49.703  50.538  0.00  0.00    -0.224 N 
ATOM     13  C   UNL d   1      58.418  49.702  49.911  0.00  0.00     0.276 A 
ATOM     14  C   UNL d   1      57.611  49.697  50.081  0.00  0.00     0.104 A 
ATOM     15  O   UNL d   1      58.680  49.705  49.142  0.00  0.00    -0.266 OA
ATOM     16  S   UNL d   1      56.951  49.694  49.591  0.00  0.00    -0.080 SA
ATOM     17  C   UNL d   1      57.345  49.693  50.865  0.00  0.00     0.097 A 
ATOM     18  C   UNL d   1      56.298  49.690  50.067  0.00  0.00     0.037 A 
ATOM     19  C   UNL d   1      56.526  49.689  50.855  0.00  0.00     0.027 A 
ATOM     20  N   UNL d   1      57.890  49.695  51.482  0.00  0.00    -0.191 NA
ATOM     21  C   UNL d   1      58.699  49.700  51.326  0.00  0.00     0.356 A 
ATOM     22  O   UNL d   1      59.259  49.701  51.947  0.00  0.00    -0.244 OA
ENDBRANCH  11  12
ENDBRANCH  10  11
ENDBRANCH   9  10
ENDBRANCH   3   9
BRANCH   2  23
ATOM     23  C   UNL d   1      61.475  45.283  50.383  0.00  0.00     0.064 A 
ATOM     24  C   UNL d   1      61.911  44.894  49.801  0.00  0.00     0.020 A 
ATOM     25  C   UNL d   1      62.015  44.086  49.825  0.00  0.00     0.026 A 
ATOM     26  C   UNL d   1      61.684  43.641  50.434  0.00  0.00     0.094 A 
ATOM     27  C   UNL d   1      61.245  44.031  51.020  0.00  0.00     0.026 A 
ATOM     28  C   UNL d   1      61.139  44.849  50.998  0.00  0.00     0.020 A 
BRANCH  26  29
ATOM     29  O   UNL d   1      61.773  42.818  50.483  0.00  0.00    -0.328 OA
ATOM     30  C   UNL d   1      62.433  42.507  50.889  0.00  0.00     0.181 C 
ENDBRANCH  26  29
ENDBRANCH   2  23
TORSDOF 6
ENDMDL
