MODEL 1
REMARK VINA RESULT:      -8.2      0.000      0.000
REMARK  5 active torsions:
REMARK  status: ('A' for Active; 'I' for Inactive)
REMARK    1  A    between atoms: O_2  and  S_1 
REMARK    2  A    between atoms: C_3  and  S_1 
REMARK    3  A    between atoms: C_6  and  O_2 
REMARK    4  A    between atoms: O_17  and  C_14 
REMARK    5  A    between atoms: C_20  and  O_17 
ROOT
ATOM      1  S   UNL d   1     -46.929  13.563  22.709  0.00  0.00     0.304 S 
ATOM      2  O   UNL d   1     -46.972  13.268  21.942  0.00  0.00    -0.193 OA
ATOM      3  O   UNL d   1     -46.886  13.859  23.475  0.00  0.00    -0.193 OA
ENDROOT
BRANCH   1   4
ATOM      4  O   UNL d   1     -47.298  14.256  22.463  0.00  0.00    -0.227 OA
BRANCH   4   5
ATOM      5  C   UNL d   1     -48.118  14.322  22.504  0.00  0.00     0.114 A 
ATOM      6  C   UNL d   1     -48.597  13.929  21.953  0.00  0.00     0.026 A 
ATOM      7  C   UNL d   1     -49.414  13.996  21.996  0.00  0.00     0.002 A 
ATOM      8  C   UNL d   1     -49.888  13.604  21.447  0.00  0.00     0.000 A 
ATOM      9  C   UNL d   1     -49.763  14.459  22.590  0.00  0.00     0.000 A 
ATOM     10  C   UNL d   1     -50.713  13.670  21.486  0.00  0.00     0.000 A 
ATOM     11  C   UNL d   1     -51.062  14.132  22.081  0.00  0.00     0.000 A 
ATOM     12  C   UNL d   1     -50.585  14.525  22.631  0.00  0.00     0.000 A 
ATOM     13  C   UNL d   1     -49.293  14.850  23.138  0.00  0.00     0.002 A 
ATOM     14  C   UNL d   1     -48.468  14.784  23.098  0.00  0.00     0.026 A 
ENDBRANCH   4   5
ENDBRANCH   1   4
BRANCH   1  15
ATOM     15  C   UNL d   1     -46.560  12.870  22.955  0.00  0.00     0.111 A 
ATOM     16  C   UNL d   1     -45.791  12.699  22.707  0.00  0.00     0.015 A 
ATOM     17  C   UNL d   1     -45.422  12.006  22.954  0.00  0.00     0.025 A 
ATOM     18  C   UNL d   1     -45.816  11.475  23.452  0.00  0.00     0.100 A 
ATOM     19  C   UNL d   1     -46.585  11.651  23.697  0.00  0.00     0.025 A 
ATOM     20  C   UNL d   1     -46.954  12.344  23.450  0.00  0.00     0.015 A 
BRANCH  18  21
ATOM     21  O   UNL d   1     -45.447  10.782  23.698  0.00  0.00    -0.305 OA
BRANCH  21  22
ATOM     22  C   UNL d   1     -44.688  10.606  23.438  0.00  0.00     0.123 C 
ATOM     23  C   UNL d   1     -44.321   9.910  23.680  0.00  0.00     0.029 C 
ENDBRANCH  21  22
ENDBRANCH  18  21
ENDBRANCH   1  15
TORSDOF 5
ENDMDL
MODEL 2
REMARK VINA RESULT:      -8.1      1.390      1.867
REMARK  5 active torsions:
REMARK  status: ('A' for Active; 'I' for Inactive)
REMARK    1  A    between atoms: O_2  and  S_1 
REMARK    2  A    between atoms: C_3  and  S_1 
REMARK    3  A    between atoms: C_6  and  O_2 
REMARK    4  A    between atoms: O_17  and  C_14 
REMARK    5  A    between atoms: C_20  and  O_17 
ROOT
ATOM      1  S   UNL d   1     -48.338  11.875  23.626  0.00  0.00     0.304 S 
ATOM      2  O   UNL d   1     -48.225  12.687  23.697  0.00  0.00    -0.193 OA
ATOM      3  O   UNL d   1     -48.451  11.064  23.556  0.00  0.00    -0.193 OA
ENDROOT
BRANCH   1   4
ATOM      4  O   UNL d   1     -49.151  11.983  23.683  0.00  0.00    -0.227 OA
BRANCH   4   5
ATOM      5  C   UNL d   1     -49.559  12.362  23.075  0.00  0.00     0.114 A 
ATOM      6  C   UNL d   1     -49.807  13.148  23.166  0.00  0.00     0.026 A 
ATOM      7  C   UNL d   1     -50.213  13.523  22.559  0.00  0.00     0.002 A 
ATOM      8  C   UNL d   1     -50.460  14.305  22.651  0.00  0.00     0.000 A 
ATOM      9  C   UNL d   1     -50.377  13.118  21.854  0.00  0.00     0.000 A 
ATOM     10  C   UNL d   1     -50.870  14.687  22.042  0.00  0.00     0.000 A 
ATOM     11  C   UNL d   1     -51.033  14.282  21.337  0.00  0.00     0.000 A 
ATOM     12  C   UNL d   1     -50.786  13.497  21.246  0.00  0.00     0.000 A 
ATOM     13  C   UNL d   1     -50.133  12.339  21.760  0.00  0.00     0.002 A 
ATOM     14  C   UNL d   1     -49.723  11.957  22.370  0.00  0.00     0.026 A 
ENDBRANCH   4   5
ENDBRANCH   1   4
BRANCH   1  15
ATOM     15  C   UNL d   1     -47.524  11.766  23.570  0.00  0.00     0.111 A 
ATOM     16  C   UNL d   1     -47.032  12.404  23.389  0.00  0.00     0.015 A 
ATOM     17  C   UNL d   1     -46.218  12.296  23.333  0.00  0.00     0.025 A 
ATOM     18  C   UNL d   1     -45.886  11.548  23.456  0.00  0.00     0.100 A 
ATOM     19  C   UNL d   1     -46.381  10.913  23.637  0.00  0.00     0.025 A 
ATOM     20  C   UNL d   1     -47.195  11.022  23.693  0.00  0.00     0.015 A 
BRANCH  18  21
ATOM     21  O   UNL d   1     -45.072  11.439  23.400  0.00  0.00    -0.305 OA
BRANCH  21  22
ATOM     22  C   UNL d   1     -44.762  10.682  23.329  0.00  0.00     0.123 C 
ATOM     23  C   UNL d   1     -43.960  10.551  23.458  0.00  0.00     0.029 C 
ENDBRANCH  21  22
ENDBRANCH  18  21
ENDBRANCH   1  15
TORSDOF 5
ENDMDL
MODEL 3
REMARK VINA RESULT:      -7.5      1.363      1.916
REMARK  5 active torsions:
REMARK  status: ('A' for Active; 'I' for Inactive)
REMARK    1  A    between atoms: O_2  and  S_1 
REMARK    2  A    between atoms: C_3  and  S_1 
REMARK    3  A    between atoms: C_6  and  O_2 
REMARK    4  A    between atoms: O_17  and  C_14 
REMARK    5  A    between atoms: C_20  and  O_17 
ROOT
ATOM      1  S   UNL d   1     -47.359  12.816  23.371  0.00  0.00     0.304 S 
ATOM      2  O   UNL d   1     -47.314  13.636  23.330  0.00  0.00    -0.193 OA
ATOM      3  O   UNL d   1     -47.404  11.996  23.412  0.00  0.00    -0.193 OA
ENDROOT
BRANCH   1   4
ATOM      4  O   UNL d   1     -48.124  12.872  23.667  0.00  0.00    -0.227 OA
BRANCH   4   5
ATOM      5  C   UNL d   1     -48.766  12.889  23.151  0.00  0.00     0.114 A 
ATOM      6  C   UNL d   1     -49.135  13.607  22.968  0.00  0.00     0.026 A 
ATOM      7  C   UNL d   1     -49.775  13.622  22.453  0.00  0.00     0.002 A 
ATOM      8  C   UNL d   1     -50.142  14.338  22.272  0.00  0.00     0.000 A 
ATOM      9  C   UNL d   1     -50.053  12.917  22.114  0.00  0.00     0.000 A 
ATOM     10  C   UNL d   1     -50.787  14.357  21.754  0.00  0.00     0.000 A 
ATOM     11  C   UNL d   1     -51.064  13.652  21.415  0.00  0.00     0.000 A 
ATOM     12  C   UNL d   1     -50.695  12.934  21.597  0.00  0.00     0.000 A 
ATOM     13  C   UNL d   1     -49.689  12.203  22.292  0.00  0.00     0.002 A 
ATOM     14  C   UNL d   1     -49.043  12.184  22.812  0.00  0.00     0.026 A 
ENDBRANCH   4   5
ENDBRANCH   1   4
BRANCH   1  15
ATOM     15  C   UNL d   1     -46.593  12.759  23.074  0.00  0.00     0.111 A 
ATOM     16  C   UNL d   1     -46.127  12.101  23.251  0.00  0.00     0.015 A 
ATOM     17  C   UNL d   1     -45.362  12.044  22.954  0.00  0.00     0.025 A 
ATOM     18  C   UNL d   1     -45.052  12.645  22.476  0.00  0.00     0.100 A 
ATOM     19  C   UNL d   1     -45.522  13.301  22.302  0.00  0.00     0.025 A 
ATOM     20  C   UNL d   1     -46.287  13.358  22.599  0.00  0.00     0.015 A 
BRANCH  18  21
ATOM     21  O   UNL d   1     -44.287  12.589  22.179  0.00  0.00    -0.305 OA
BRANCH  21  22
ATOM     22  C   UNL d   1     -44.097  12.941  21.462  0.00  0.00     0.123 C 
ATOM     23  C   UNL d   1     -43.321  12.927  21.189  0.00  0.00     0.029 C 
ENDBRANCH  21  22
ENDBRANCH  18  21
ENDBRANCH   1  15
TORSDOF 5
ENDMDL
MODEL 4
REMARK VINA RESULT:      -7.1      8.193      9.670
REMARK  5 active torsions:
REMARK  status: ('A' for Active; 'I' for Inactive)
REMARK    1  A    between atoms: O_2  and  S_1 
REMARK    2  A    between atoms: C_3  and  S_1 
REMARK    3  A    between atoms: C_6  and  O_2 
REMARK    4  A    between atoms: O_17  and  C_14 
REMARK    5  A    between atoms: C_20  and  O_17 
ROOT
ATOM      1  S   UNL d   1     -40.626  14.644  19.121  0.00  0.00     0.304 S 
ATOM      2  O   UNL d   1     -40.640  15.425  18.863  0.00  0.00    -0.193 OA
ATOM      3  O   UNL d   1     -40.611  13.863  19.378  0.00  0.00    -0.193 OA
ENDROOT
BRANCH   1   4
ATOM      4  O   UNL d   1     -40.812  14.390  18.362  0.00  0.00    -0.227 OA
BRANCH   4   5
ATOM      5  C   UNL d   1     -40.232  14.382  17.776  0.00  0.00     0.114 A 
ATOM      6  C   UNL d   1     -39.681  13.764  17.743  0.00  0.00     0.026 A 
ATOM      7  C   UNL d   1     -39.105  13.758  17.158  0.00  0.00     0.002 A 
ATOM      8  C   UNL d   1     -38.557  13.142  17.127  0.00  0.00     0.000 A 
ATOM      9  C   UNL d   1     -39.071  14.371  16.600  0.00  0.00     0.000 A 
ATOM     10  C   UNL d   1     -37.974  13.132  16.540  0.00  0.00     0.000 A 
ATOM     11  C   UNL d   1     -37.941  13.745  15.981  0.00  0.00     0.000 A 
ATOM     12  C   UNL d   1     -38.491  14.363  16.013  0.00  0.00     0.000 A 
ATOM     13  C   UNL d   1     -39.615  14.985  16.629  0.00  0.00     0.002 A 
ATOM     14  C   UNL d   1     -40.199  14.995  17.217  0.00  0.00     0.026 A 
ENDBRANCH   4   5
ENDBRANCH   1   4
BRANCH   1  15
ATOM     15  C   UNL d   1     -40.439  14.898  19.881  0.00  0.00     0.111 A 
ATOM     16  C   UNL d   1     -40.075  14.382  20.413  0.00  0.00     0.015 A 
ATOM     17  C   UNL d   1     -39.888  14.636  21.173  0.00  0.00     0.025 A 
ATOM     18  C   UNL d   1     -40.063  15.410  21.412  0.00  0.00     0.100 A 
ATOM     19  C   UNL d   1     -40.427  15.921  20.876  0.00  0.00     0.025 A 
ATOM     20  C   UNL d   1     -40.614  15.667  20.116  0.00  0.00     0.015 A 
BRANCH  18  21
ATOM     21  O   UNL d   1     -39.877  15.664  22.172  0.00  0.00    -0.305 OA
BRANCH  21  22
ATOM     22  C   UNL d   1     -39.092  15.711  22.408  0.00  0.00     0.123 C 
ATOM     23  C   UNL d   1     -38.906  15.922  23.182  0.00  0.00     0.029 C 
ENDBRANCH  21  22
ENDBRANCH  18  21
ENDBRANCH   1  15
TORSDOF 5
ENDMDL
MODEL 5
REMARK VINA RESULT:      -6.9      8.107      9.536
REMARK  5 active torsions:
REMARK  status: ('A' for Active; 'I' for Inactive)
REMARK    1  A    between atoms: O_2  and  S_1 
REMARK    2  A    between atoms: C_3  and  S_1 
REMARK    3  A    between atoms: C_6  and  O_2 
REMARK    4  A    between atoms: O_17  and  C_14 
REMARK    5  A    between atoms: C_20  and  O_17 
ROOT
ATOM      1  S   UNL d   1     -40.571  14.827  18.914  0.00  0.00     0.304 S 
ATOM      2  O   UNL d   1     -40.726  14.019  18.913  0.00  0.00    -0.193 OA
ATOM      3  O   UNL d   1     -40.416  15.634  18.915  0.00  0.00    -0.193 OA
ENDROOT
BRANCH   1   4
ATOM      4  O   UNL d   1     -40.953  14.899  19.638  0.00  0.00    -0.227 OA
BRANCH   4   5
ATOM      5  C   UNL d   1     -40.515  15.027  20.324  0.00  0.00     0.114 A 
ATOM      6  C   UNL d   1     -40.152  14.391  20.712  0.00  0.00     0.026 A 
ATOM      7  C   UNL d   1     -39.716  14.521  21.396  0.00  0.00     0.002 A 
ATOM      8  C   UNL d   1     -39.355  13.886  21.780  0.00  0.00     0.000 A 
ATOM      9  C   UNL d   1     -39.636  15.289  21.700  0.00  0.00     0.000 A 
ATOM     10  C   UNL d   1     -38.914  14.013  22.470  0.00  0.00     0.000 A 
ATOM     11  C   UNL d   1     -38.835  14.781  22.774  0.00  0.00     0.000 A 
ATOM     12  C   UNL d   1     -39.197  15.417  22.387  0.00  0.00     0.000 A 
ATOM     13  C   UNL d   1     -39.994  15.922  21.319  0.00  0.00     0.002 A 
ATOM     14  C   UNL d   1     -40.435  15.796  20.629  0.00  0.00     0.026 A 
ENDBRANCH   4   5
ENDBRANCH   1   4
BRANCH   1  15
ATOM     15  C   UNL d   1     -40.188  14.755  18.189  0.00  0.00     0.111 A 
ATOM     16  C   UNL d   1     -39.908  14.019  17.939  0.00  0.00     0.015 A 
ATOM     17  C   UNL d   1     -39.526  13.947  17.214  0.00  0.00     0.025 A 
ATOM     18  C   UNL d   1     -39.418  14.609  16.729  0.00  0.00     0.100 A 
ATOM     19  C   UNL d   1     -39.700  15.342  16.983  0.00  0.00     0.025 A 
ATOM     20  C   UNL d   1     -40.082  15.414  17.708  0.00  0.00     0.015 A 
BRANCH  18  21
ATOM     21  O   UNL d   1     -39.036  14.537  16.004  0.00  0.00    -0.305 OA
BRANCH  21  22
ATOM     22  C   UNL d   1     -38.290  14.194  15.965  0.00  0.00     0.123 C 
ATOM     23  C   UNL d   1     -37.951  14.029  15.234  0.00  0.00     0.029 C 
ENDBRANCH  21  22
ENDBRANCH  18  21
ENDBRANCH   1  15
TORSDOF 5
ENDMDL
MODEL 6
REMARK VINA RESULT:      -6.5      8.727     10.057
REMARK  5 active torsions:
REMARK  status: ('A' for Active; 'I' for Inactive)
REMARK    1  A    between atoms: O_2  and  S_1 
REMARK    2  A    between atoms: C_3  and  S_1 
REMARK    3  A    between atoms: C_6  and  O_2 
REMARK    4  A    between atoms: O_17  and  C_14 
REMARK    5  A    between atoms: C_20  and  O_17 
ROOT
ATOM      1  S   UNL d   1     -38.897  15.133  19.087  0.00  0.00     0.304 S 
ATOM      2  O   UNL d   1     -39.199  15.797  19.466  0.00  0.00    -0.193 OA
ATOM      3  O   UNL d   1     -38.594  14.469  18.708  0.00  0.00    -0.193 OA
ENDROOT
BRANCH   1   4
ATOM      4  O   UNL d   1     -38.269  15.116  19.617  0.00  0.00    -0.227 OA
BRANCH   4   5
ATOM      5  C   UNL d   1     -38.289  14.603  20.263  0.00  0.00     0.114 A 
ATOM      6  C   UNL d   1     -38.566  14.868  20.997  0.00  0.00     0.026 A 
ATOM      7  C   UNL d   1     -38.585  14.357  21.639  0.00  0.00     0.002 A 
ATOM      8  C   UNL d   1     -38.861  14.623  22.370  0.00  0.00     0.000 A 
ATOM      9  C   UNL d   1     -38.328  13.572  21.554  0.00  0.00     0.000 A 
ATOM     10  C   UNL d   1     -38.882  14.110  23.019  0.00  0.00     0.000 A 
ATOM     11  C   UNL d   1     -38.624  13.325  22.934  0.00  0.00     0.000 A 
ATOM     12  C   UNL d   1     -38.348  13.060  22.200  0.00  0.00     0.000 A 
ATOM     13  C   UNL d   1     -38.053  13.305  20.828  0.00  0.00     0.002 A 
ATOM     14  C   UNL d   1     -38.032  13.819  20.178  0.00  0.00     0.026 A 
ENDBRANCH   4   5
ENDBRANCH   1   4
BRANCH   1  15
ATOM     15  C   UNL d   1     -39.525  15.150  18.555  0.00  0.00     0.111 A 
ATOM     16  C   UNL d   1     -40.186  15.619  18.710  0.00  0.00     0.015 A 
ATOM     17  C   UNL d   1     -40.815  15.637  18.179  0.00  0.00     0.025 A 
ATOM     18  C   UNL d   1     -40.790  15.185  17.486  0.00  0.00     0.100 A 
ATOM     19  C   UNL d   1     -40.127  14.717  17.335  0.00  0.00     0.025 A 
ATOM     20  C   UNL d   1     -39.498  14.700  17.867  0.00  0.00     0.015 A 
BRANCH  18  21
ATOM     21  O   UNL d   1     -41.418  15.202  16.954  0.00  0.00    -0.305 OA
BRANCH  21  22
ATOM     22  C   UNL d   1     -41.628  15.907  16.588  0.00  0.00     0.123 C 
ATOM     23  C   UNL d   1     -42.248  15.921  16.047  0.00  0.00     0.029 C 
ENDBRANCH  21  22
ENDBRANCH  18  21
ENDBRANCH   1  15
TORSDOF 5
ENDMDL
MODEL 7
REMARK VINA RESULT:      -5.9      8.516     10.140
REMARK  5 active torsions:
REMARK  status: ('A' for Active; 'I' for Inactive)
REMARK    1  A    between atoms: O_2  and  S_1 
REMARK    2  A    between atoms: C_3  and  S_1 
REMARK    3  A    between atoms: C_6  and  O_2 
REMARK    4  A    between atoms: O_17  and  C_14 
REMARK    5  A    between atoms: C_20  and  O_17 
ROOT
ATOM      1  S   UNL d   1     -39.903  15.355  17.840  0.00  0.00     0.304 S 
ATOM      2  O   UNL d   1     -39.320  15.901  18.038  0.00  0.00    -0.193 OA
ATOM      3  O   UNL d   1     -40.485  14.810  17.642  0.00  0.00    -0.193 OA
ENDROOT
BRANCH   1   4
ATOM      4  O   UNL d   1     -40.376  15.639  18.449  0.00  0.00    -0.227 OA
BRANCH   4   5
ATOM      5  C   UNL d   1     -40.262  15.370  19.220  0.00  0.00     0.114 A 
ATOM      6  C   UNL d   1     -39.687  15.720  19.703  0.00  0.00     0.026 A 
ATOM      7  C   UNL d   1     -39.575  15.450  20.470  0.00  0.00     0.002 A 
ATOM      8  C   UNL d   1     -39.001  15.799  20.950  0.00  0.00     0.000 A 
ATOM      9  C   UNL d   1     -40.036  14.826  20.764  0.00  0.00     0.000 A 
ATOM     10  C   UNL d   1     -38.885  15.530  21.724  0.00  0.00     0.000 A 
ATOM     11  C   UNL d   1     -39.347  14.906  22.018  0.00  0.00     0.000 A 
ATOM     12  C   UNL d   1     -39.922  14.556  21.535  0.00  0.00     0.000 A 
ATOM     13  C   UNL d   1     -40.607  14.476  20.288  0.00  0.00     0.002 A 
ATOM     14  C   UNL d   1     -40.724  14.746  19.514  0.00  0.00     0.026 A 
ENDBRANCH   4   5
ENDBRANCH   1   4
BRANCH   1  15
ATOM     15  C   UNL d   1     -39.429  15.071  17.230  0.00  0.00     0.111 A 
ATOM     16  C   UNL d   1     -39.239  14.268  17.192  0.00  0.00     0.015 A 
ATOM     17  C   UNL d   1     -38.765  13.983  16.582  0.00  0.00     0.025 A 
ATOM     18  C   UNL d   1     -38.475  14.498  16.003  0.00  0.00     0.100 A 
ATOM     19  C   UNL d   1     -38.666  15.299  16.045  0.00  0.00     0.025 A 
ATOM     20  C   UNL d   1     -39.140  15.584  16.655  0.00  0.00     0.015 A 
BRANCH  18  21
ATOM     21  O   UNL d   1     -38.001  14.213  15.393  0.00  0.00    -0.305 OA
BRANCH  21  22
ATOM     22  C   UNL d   1     -38.304  13.672  14.855  0.00  0.00     0.123 C 
ATOM     23  C   UNL d   1     -37.940  13.570  14.124  0.00  0.00     0.029 C 
ENDBRANCH  21  22
ENDBRANCH  18  21
ENDBRANCH   1  15
TORSDOF 5
ENDMDL
