MODEL 1
REMARK VINA RESULT:      27.8      0.000      0.000
REMARK  1 active torsions:
REMARK  status: ('A' for Active; 'I' for Inactive)
REMARK    1  A    between atoms: C_13  and  N_3 
ROOT
ATOM      1  C   UNL d   1      58.999  49.707  50.136  0.00  0.00     0.166 A 
ATOM      2  C   UNL d   1      58.802  49.707  50.933  0.00  0.00     0.117 A 
ATOM      3  N   UNL d   1      59.827  49.707  50.102  0.00  0.00    -0.289 N 
ATOM      4  C   UNL d   1      59.479  49.707  51.377  0.00  0.00     0.038 A 
ATOM      5  N   UNL d   1      58.416  49.707  49.545  0.00  0.00    -0.225 NA
ATOM      6  C   UNL d   1      60.118  49.707  50.859  0.00  0.00     0.067 A 
ATOM      7  N   UNL d   1      57.996  49.708  51.124  0.00  0.00    -0.241 NA
ATOM      8  C   UNL d   1      57.635  49.707  49.750  0.00  0.00     0.101 A 
ATOM      9  C   UNL d   1      57.430  49.708  50.554  0.00  0.00     0.099 A 
ATOM     10  C   UNL d   1      60.891  49.707  51.156  0.00  0.00     0.018 A 
ATOM     11  C   UNL d   1      59.613  49.707  52.191  0.00  0.00     0.015 A 
ATOM     12  C   UNL d   1      60.381  49.707  52.491  0.00  0.00     0.058 A 
ATOM     13  C   UNL d   1      61.020  49.707  51.973  0.00  0.00     0.013 A 
ATOM     14 CL   UNL d   1      60.515  49.707  53.305  0.00  0.00    -0.082 Cl
ATOM     15  C   UNL d   1      57.060  49.708  49.182  0.00  0.00     0.021 A 
ATOM     16  C   UNL d   1      56.641  49.708  50.765  0.00  0.00     0.021 A 
ATOM     17  C   UNL d   1      56.253  49.708  49.414  0.00  0.00     0.002 A 
ATOM     18  C   UNL d   1      56.034  49.708  50.192  0.00  0.00     0.002 A 
ENDROOT
BRANCH   3  19
ATOM     19  C   UNL d   1      60.266  49.707  49.424  0.00  0.00     0.082 C 
ATOM     20  C   UNL d   1      61.108  49.701  49.493  0.00  0.00     0.021 C 
ENDBRANCH   3  19
TORSDOF 1
ENDMDL
