MODEL 1
REMARK VINA RESULT:       6.1      0.000      0.000
REMARK  8 active torsions:
REMARK  status: ('A' for Active; 'I' for Inactive)
REMARK    1  A    between atoms: C_2  and  C_1 
REMARK    2  A    between atoms: C_3  and  C_1 
REMARK    3  A    between atoms: C_5  and  C_1 
REMARK    4  A    between atoms: N_4  and  C_6 
REMARK    5  A    between atoms: C_7  and  N_4 
REMARK    6  A    between atoms: C_8  and  N_4 
REMARK    7  A    between atoms: C_20  and  C_7 
REMARK    8  A    between atoms: C_21  and  C_8 
ROOT
ATOM      1  C   UNL d   1     -42.590-122.805 -49.939  0.00  0.00     0.044 A 
ATOM      2  C   UNL d   1     -42.063-122.199 -51.386  0.00  0.00     0.064 A 
ATOM      3  C   UNL d   1     -43.016-122.198 -50.309  0.00  0.00     0.004 A 
ATOM      4  C   UNL d   1     -41.908-123.105 -50.288  0.00  0.00     0.004 A 
ATOM      5  C   UNL d   1     -42.752-121.893 -51.036  0.00  0.00     0.018 A 
ATOM      6  C   UNL d   1     -41.645-122.800 -51.015  0.00  0.00     0.018 A 
ENDROOT
BRANCH   2   7
ATOM      7  N   UNL d   1     -41.803-121.898 -52.103  0.00  0.00    -0.304 N 
BRANCH   7   8
ATOM      8  C   UNL d   1     -42.223-122.051 -52.791  0.00  0.00     0.080 C 
BRANCH   8   9
ATOM      9  C   UNL d   1     -41.926-122.559 -53.358  0.00  0.00     0.018 A 
ATOM     10  C   UNL d   1     -41.440-123.183 -53.122  0.00  0.00     0.002 A 
ATOM     11  C   UNL d   1     -41.129-123.711 -53.689  0.00  0.00     0.000 A 
ATOM     12  C   UNL d   1     -41.313-123.603 -54.497  0.00  0.00     0.000 A 
ATOM     13  C   UNL d   1     -41.799-122.979 -54.732  0.00  0.00     0.000 A 
ATOM     14  C   UNL d   1     -42.105-122.456 -54.157  0.00  0.00     0.002 A 
ENDBRANCH   8   9
ENDBRANCH   7   8
BRANCH   7  15
ATOM     15  C   UNL d   1     -41.123-121.442 -52.136  0.00  0.00     0.080 C 
BRANCH  15  16
ATOM     16  C   UNL d   1     -41.171-120.628 -52.100  0.00  0.00     0.018 A 
ATOM     17  C   UNL d   1     -41.243-120.179 -52.792  0.00  0.00     0.002 A 
ATOM     18  C   UNL d   1     -41.292-119.356 -52.755  0.00  0.00     0.000 A 
ATOM     19  C   UNL d   1     -41.269-118.974 -52.026  0.00  0.00     0.000 A 
ATOM     20  C   UNL d   1     -41.198-119.414 -51.325  0.00  0.00     0.000 A 
ATOM     21  C   UNL d   1     -41.149-120.245 -51.375  0.00  0.00     0.002 A 
ENDBRANCH  15  16
ENDBRANCH   7  15
ENDBRANCH   2   7
BRANCH   1  22
ATOM     22  C   UNL d   1     -42.852-123.107 -49.217  0.00  0.00     0.297 C 
ATOM     23  O   UNL d   1     -43.114-123.410 -48.496  0.00  0.00    -0.281 OA
BRANCH  22  24
ATOM     24  C   UNL d   1     -42.162-122.854 -48.861  0.00  0.00     0.457 C 
ATOM     25  F   UNL d   1     -42.405-122.071 -48.946  0.00  0.00    -0.163 F 
ATOM     26  F   UNL d   1     -41.919-123.638 -48.775  0.00  0.00    -0.163 F 
ATOM     27  F   UNL d   1     -41.465-122.599 -48.500  0.00  0.00    -0.163 F 
ENDBRANCH  22  24
BRANCH  22  28
ATOM     28  C   UNL d   1     -43.557-123.366 -49.581  0.00  0.00     0.457 C 
ATOM     29  F   UNL d   1     -44.246-123.619 -49.938  0.00  0.00    -0.163 F 
ATOM     30  F   UNL d   1     -43.997-122.920 -49.045  0.00  0.00    -0.163 F 
ATOM     31  F   UNL d   1     -43.116-123.812 -50.117  0.00  0.00    -0.163 F 
ENDBRANCH  22  28
ENDBRANCH   1  22
TORSDOF 8
ENDMDL
MODEL 2
REMARK VINA RESULT:       6.5      0.409      2.574
REMARK  8 active torsions:
REMARK  status: ('A' for Active; 'I' for Inactive)
REMARK    1  A    between atoms: C_2  and  C_1 
REMARK    2  A    between atoms: C_3  and  C_1 
REMARK    3  A    between atoms: C_5  and  C_1 
REMARK    4  A    between atoms: N_4  and  C_6 
REMARK    5  A    between atoms: C_7  and  N_4 
REMARK    6  A    between atoms: C_8  and  N_4 
REMARK    7  A    between atoms: C_20  and  C_7 
REMARK    8  A    between atoms: C_21  and  C_8 
ROOT
ATOM      1  C   UNL d   1     -42.695-122.669 -49.629  0.00  0.00     0.044 A 
ATOM      2  C   UNL d   1     -42.130-122.163 -51.100  0.00  0.00     0.064 A 
ATOM      3  C   UNL d   1     -43.133-122.122 -50.071  0.00  0.00     0.004 A 
ATOM      4  C   UNL d   1     -41.982-122.959 -49.920  0.00  0.00     0.004 A 
ATOM      5  C   UNL d   1     -42.851-121.867 -50.810  0.00  0.00     0.018 A 
ATOM      6  C   UNL d   1     -41.699-122.704 -50.658  0.00  0.00     0.018 A 
ENDROOT
BRANCH   2   7
ATOM      7  N   UNL d   1     -41.852-121.911 -51.829  0.00  0.00    -0.304 N 
BRANCH   7   8
ATOM      8  C   UNL d   1     -41.155-121.481 -51.877  0.00  0.00     0.080 C 
BRANCH   8   9
ATOM      9  C   UNL d   1     -41.162-120.665 -51.818  0.00  0.00     0.018 A 
ATOM     10  C   UNL d   1     -41.155-120.317 -51.071  0.00  0.00     0.002 A 
ATOM     11  C   UNL d   1     -41.163-119.485 -50.994  0.00  0.00     0.000 A 
ATOM     12  C   UNL d   1     -41.176-119.009 -51.681  0.00  0.00     0.000 A 
ATOM     13  C   UNL d   1     -41.183-119.358 -52.428  0.00  0.00     0.000 A 
ATOM     14  C   UNL d   1     -41.175-120.191 -52.494  0.00  0.00     0.002 A 
ENDBRANCH   8   9
ENDBRANCH   7   8
BRANCH   7  15
ATOM     15  C   UNL d   1     -42.268-122.088 -52.512  0.00  0.00     0.080 C 
BRANCH  15  16
ATOM     16  C   UNL d   1     -41.915-122.523 -53.107  0.00  0.00     0.018 A 
ATOM     17  C   UNL d   1     -41.482-123.205 -52.929  0.00  0.00     0.002 A 
ATOM     18  C   UNL d   1     -41.125-123.645 -53.530  0.00  0.00     0.000 A 
ATOM     19  C   UNL d   1     -41.199-123.405 -54.314  0.00  0.00     0.000 A 
ATOM     20  C   UNL d   1     -41.631-122.721 -54.505  0.00  0.00     0.000 A 
ATOM     21  C   UNL d   1     -41.987-122.286 -53.888  0.00  0.00     0.002 A 
ENDBRANCH  15  16
ENDBRANCH   7  15
ENDBRANCH   2   7
BRANCH   1  22
ATOM     22  C   UNL d   1     -42.975-122.922 -48.895  0.00  0.00     0.297 C 
ATOM     23  O   UNL d   1     -43.256-123.175 -48.162  0.00  0.00    -0.281 OA
BRANCH  22  24
ATOM     24  C   UNL d   1     -42.207-122.987 -48.624  0.00  0.00     0.457 C 
ATOM     25  F   UNL d   1     -42.277-123.809 -48.626  0.00  0.00    -0.163 F 
ATOM     26  F   UNL d   1     -42.138-122.165 -48.622  0.00  0.00    -0.163 F 
ATOM     27  F   UNL d   1     -41.432-123.053 -48.351  0.00  0.00    -0.163 F 
ENDBRANCH  22  24
BRANCH  22  28
ATOM     28  C   UNL d   1     -43.759-122.855 -49.172  0.00  0.00     0.457 C 
ATOM     29  F   UNL d   1     -44.526-122.789 -49.442  0.00  0.00    -0.163 F 
ATOM     30  F   UNL d   1     -43.809-122.098 -48.848  0.00  0.00    -0.163 F 
ATOM     31  F   UNL d   1     -43.710-123.612 -49.495  0.00  0.00    -0.163 F 
ENDBRANCH  22  28
ENDBRANCH   1  22
TORSDOF 8
ENDMDL
