MODEL 1
REMARK VINA RESULT:      43.3      0.000      0.000
REMARK  5 active torsions:
REMARK  status: ('A' for Active; 'I' for Inactive)
REMARK    1  A    between atoms: C_5  and  C_18 
REMARK       I    between atoms: N_9  and  C_5 
REMARK    2  A    between atoms: S_12  and  C_6 
REMARK    3  A    between atoms: C_15  and  C_7 
REMARK    4  A    between atoms: C_10  and  N_9 
REMARK    5  A    between atoms: C_18  and  S_12 
ROOT
ATOM      1  C   UNL d   1     -54.716-101.592 -40.988  0.00  0.00     0.099 C 
ENDROOT
BRANCH   1   2
ATOM      2  C   UNL d   1     -54.745-101.515 -41.819  0.00  0.00     0.286 C 
ATOM      3  N   UNL d   1     -54.738-100.773 -42.159  0.00  0.00    -0.207 NA
ATOM      4  O   UNL d   1     -54.780-102.184 -42.285  0.00  0.00    -0.265 OA
BRANCH   3   5
ATOM      5  C   UNL d   1     -54.767-100.701 -42.967  0.00  0.00     0.087 A 
ATOM      6  C   UNL d   1     -54.776 -99.952 -43.312  0.00  0.00     0.046 A 
ATOM      7  C   UNL d   1     -54.805 -99.874 -44.131  0.00  0.00     0.124 A 
ATOM      8  O   UNL d   1     -54.814 -99.135 -44.486  0.00  0.00    -0.301 OA
ATOM      9  C   UNL d   1     -54.825-100.562 -44.608  0.00  0.00     0.123 A 
ATOM     10  C   UNL d   1     -54.843 -99.071 -45.313  0.00  0.00     0.149 A 
ATOM     11  C   UNL d   1     -54.863 -99.755 -45.781  0.00  0.00     0.149 A 
ATOM     12  O   UNL d   1     -54.853-100.499 -45.425  0.00  0.00    -0.301 OA
ATOM     13  C   UNL d   1     -54.815-101.302 -44.244  0.00  0.00     0.028 A 
ATOM     14  C   UNL d   1     -54.787-101.368 -43.439  0.00  0.00     0.021 A 
ENDBRANCH   3   5
ENDBRANCH   1   2
BRANCH   1  15
ATOM     15  S   UNL d   1     -55.273-102.053 -40.595  0.00  0.00    -0.061 SA
BRANCH  15  16
ATOM     16  C   UNL d   1     -55.258-102.109 -39.781  0.00  0.00     0.133 A 
ATOM     17  N   UNL d   1     -55.728-101.611 -39.325  0.00  0.00    -0.141 NA
ATOM     18  N   UNL d   1     -55.716-101.664 -38.502  0.00  0.00    -0.148 NA
ATOM     19  C   UNL d   1     -55.227-102.221 -38.135  0.00  0.00     0.103 A 
ATOM     20  C   UNL d   1     -54.756-102.720 -38.583  0.00  0.00     0.023 A 
ATOM     21  C   UNL d   1     -54.766-102.670 -39.403  0.00  0.00     0.029 A 
BRANCH  19  22
ATOM     22  C   UNL d   1     -55.214-102.274 -37.312  0.00  0.00     0.019 A 
ATOM     23  C   UNL d   1     -55.699-102.826 -36.923  0.00  0.00     0.002 A 
ATOM     24  C   UNL d   1     -55.685-102.879 -36.096  0.00  0.00     0.000 A 
ATOM     25  C   UNL d   1     -55.189-102.381 -35.654  0.00  0.00     0.000 A 
ATOM     26  C   UNL d   1     -54.713-101.840 -36.037  0.00  0.00     0.000 A 
ATOM     27  C   UNL d   1     -54.718-101.777 -36.863  0.00  0.00     0.002 A 
ENDBRANCH  19  22
ENDBRANCH  15  16
ENDBRANCH   1  15
TORSDOF 5
ENDMDL
