MODEL 1
REMARK VINA RESULT:      -0.9      0.000      0.000
REMARK  3 active torsions:
REMARK  status: ('A' for Active; 'I' for Inactive)
REMARK    1  A    between atoms: C_4  and  C_1 
REMARK    2  A    between atoms: C_13  and  N_2 
REMARK    3  A    between atoms: C_10  and  C_13 
ROOT
ATOM      1  C   UNL d   1      30.803  17.737 -24.295  0.00  0.00     0.171 A 
ATOM      2  N   UNL d   1      30.861  16.855 -24.103  0.00  0.00    -0.286 N 
ATOM      3  N   UNL d   1      29.925  17.927 -24.401  0.00  0.00    -0.225 NA
ATOM      4  C   UNL d   1      30.033  16.506 -24.089  0.00  0.00     0.083 A 
ATOM      5  C   UNL d   1      29.443  17.182 -24.277  0.00  0.00     0.099 A 
ATOM      6  C   UNL d   1      29.736  15.664 -23.931  0.00  0.00     0.019 A 
ATOM      7  C   UNL d   1      28.567  17.003 -24.303  0.00  0.00     0.021 A 
ATOM      8  C   UNL d   1      28.853  15.512 -23.964  0.00  0.00     0.002 A 
ATOM      9  C   UNL d   1      28.263  16.188 -24.151  0.00  0.00     0.002 A 
ENDROOT
BRANCH   2  10
ATOM     10  C   UNL d   1      30.978  16.113 -23.936  0.00  0.00     0.106 C 
BRANCH  10  11
ATOM     11  C   UNL d   1      31.710  15.880 -23.680  0.00  0.00     0.118 A 
ATOM     12  O   UNL d   1      31.963  15.848 -22.935  0.00  0.00    -0.299 OA
ATOM     13  C   UNL d   1      32.726  15.587 -22.902  0.00  0.00     0.134 A 
ATOM     14 BR   UNL d   1      33.241  15.455 -22.298  0.00  0.00    -0.022 Br
ATOM     15  C   UNL d   1      32.954  15.453 -23.662  0.00  0.00     0.034 A 
ATOM     16  C   UNL d   1      32.333  15.629 -24.161  0.00  0.00     0.029 A 
ENDBRANCH  10  11
ENDBRANCH   2  10
BRANCH   1  17
ATOM     17  C   UNL d   1      31.484  18.311 -24.368  0.00  0.00     0.135 A 
ATOM     18  O   UNL d   1      31.805  18.718 -23.741  0.00  0.00    -0.297 OA
ATOM     19  C   UNL d   1      32.404  19.170 -24.060  0.00  0.00     0.134 A 
ATOM     20 BR   UNL d   1      32.994  19.709 -23.921  0.00  0.00    -0.022 Br
ATOM     21  C   UNL d   1      32.435  19.032 -24.862  0.00  0.00     0.034 A 
ATOM     22  C   UNL d   1      31.855  18.494 -25.039  0.00  0.00     0.030 A 
ENDBRANCH   1  17
TORSDOF 3
ENDMDL
MODEL 2
REMARK VINA RESULT:       0.6      4.826      7.129
REMARK  3 active torsions:
REMARK  status: ('A' for Active; 'I' for Inactive)
REMARK    1  A    between atoms: C_4  and  C_1 
REMARK    2  A    between atoms: C_13  and  N_2 
REMARK    3  A    between atoms: C_10  and  C_13 
ROOT
ATOM      1  C   UNL d   1      33.118  21.329 -20.753  0.00  0.00     0.171 A 
ATOM      2  N   UNL d   1      33.035  22.222 -20.870  0.00  0.00    -0.286 N 
ATOM      3  N   UNL d   1      33.202  21.186 -19.864  0.00  0.00    -0.225 NA
ATOM      4  C   UNL d   1      33.067  22.624 -20.067  0.00  0.00     0.083 A 
ATOM      5  C   UNL d   1      33.172  21.971 -19.433  0.00  0.00     0.099 A 
ATOM      6  C   UNL d   1      33.015  23.497 -19.828  0.00  0.00     0.019 A 
ATOM      7  C   UNL d   1      33.223  22.203 -18.571  0.00  0.00     0.021 A 
ATOM      8  C   UNL d   1      33.069  23.702 -18.956  0.00  0.00     0.002 A 
ATOM      9  C   UNL d   1      33.174  23.049 -18.322  0.00  0.00     0.002 A 
ENDROOT
BRANCH   2  10
ATOM     10  C   UNL d   1      32.960  22.970 -21.037  0.00  0.00     0.106 C 
BRANCH  10  11
ATOM     11  C   UNL d   1      32.754  23.185 -21.791  0.00  0.00     0.118 A 
ATOM     12  O   UNL d   1      33.214  23.165 -22.429  0.00  0.00    -0.299 OA
ATOM     13  C   UNL d   1      32.812  23.422 -23.080  0.00  0.00     0.134 A 
ATOM     14 BR   UNL d   1      33.010  23.513 -23.854  0.00  0.00    -0.022 Br
ATOM     15  C   UNL d   1      32.070  23.608 -22.830  0.00  0.00     0.034 A 
ATOM     16  C   UNL d   1      32.016  23.466 -22.028  0.00  0.00     0.029 A 
ENDBRANCH  10  11
ENDBRANCH   2  10
BRANCH   1  17
ATOM     17  C   UNL d   1      33.117  20.706 -21.394  0.00  0.00     0.135 A 
ATOM     18  O   UNL d   1      33.129  20.873 -22.190  0.00  0.00    -0.297 OA
ATOM     19  C   UNL d   1      33.123  20.148 -22.564  0.00  0.00     0.134 A 
ATOM     20 BR   UNL d   1      33.126  19.748 -23.270  0.00  0.00    -0.022 Br
ATOM     21  C   UNL d   1      33.108  19.563 -21.996  0.00  0.00     0.034 A 
ATOM     22  C   UNL d   1      33.104  19.927 -21.272  0.00  0.00     0.030 A 
ENDBRANCH   1  17
TORSDOF 3
ENDMDL
MODEL 3
REMARK VINA RESULT:       1.1      3.676      5.306
REMARK  3 active torsions:
REMARK  status: ('A' for Active; 'I' for Inactive)
REMARK    1  A    between atoms: C_4  and  C_1 
REMARK    2  A    between atoms: C_13  and  N_2 
REMARK    3  A    between atoms: C_10  and  C_13 
ROOT
ATOM      1  C   UNL d   1      32.776  20.359 -22.243  0.00  0.00     0.171 A 
ATOM      2  N   UNL d   1      33.019  20.516 -23.099  0.00  0.00    -0.286 N 
ATOM      3  N   UNL d   1      32.646  19.467 -22.163  0.00  0.00    -0.225 NA
ATOM      4  C   UNL d   1      33.040  19.734 -23.542  0.00  0.00     0.083 A 
ATOM      5  C   UNL d   1      32.805  19.074 -22.953  0.00  0.00     0.099 A 
ATOM      6  C   UNL d   1      33.241  19.536 -24.404  0.00  0.00     0.019 A 
ATOM      7  C   UNL d   1      32.776  18.226 -23.235  0.00  0.00     0.021 A 
ATOM      8  C   UNL d   1      33.204  18.677 -24.661  0.00  0.00     0.002 A 
ATOM      9  C   UNL d   1      32.969  18.017 -24.072  0.00  0.00     0.002 A 
ENDROOT
BRANCH   2  10
ATOM     10  C   UNL d   1      33.230  20.716 -23.812  0.00  0.00     0.106 C 
BRANCH  10  11
ATOM     11  C   UNL d   1      33.128  21.483 -24.050  0.00  0.00     0.118 A 
ATOM     12  O   UNL d   1      33.238  22.131 -23.617  0.00  0.00    -0.299 OA
ATOM     13  C   UNL d   1      33.080  22.795 -24.049  0.00  0.00     0.134 A 
ATOM     14 BR   UNL d   1      33.102  23.582 -23.883  0.00  0.00    -0.022 Br
ATOM     15  C   UNL d   1      32.863  22.543 -24.782  0.00  0.00     0.034 A 
ATOM     16  C   UNL d   1      32.887  21.728 -24.801  0.00  0.00     0.029 A 
ENDBRANCH  10  11
ENDBRANCH   2  10
BRANCH   1  17
ATOM     17  C   UNL d   1      32.681  20.970 -21.596  0.00  0.00     0.135 A 
ATOM     18  O   UNL d   1      31.999  21.393 -21.467  0.00  0.00    -0.297 OA
ATOM     19  C   UNL d   1      32.162  21.878 -20.831  0.00  0.00     0.134 A 
ATOM     20 BR   UNL d   1      31.886  22.448 -20.325  0.00  0.00    -0.022 Br
ATOM     21  C   UNL d   1      32.928  21.741 -20.590  0.00  0.00     0.034 A 
ATOM     22  C   UNL d   1      33.239  21.172 -21.077  0.00  0.00     0.030 A 
ENDBRANCH   1  17
TORSDOF 3
ENDMDL
MODEL 4
REMARK VINA RESULT:       1.6      4.587      6.168
REMARK  3 active torsions:
REMARK  status: ('A' for Active; 'I' for Inactive)
REMARK    1  A    between atoms: C_4  and  C_1 
REMARK    2  A    between atoms: C_13  and  N_2 
REMARK    3  A    between atoms: C_10  and  C_13 
ROOT
ATOM      1  C   UNL d   1      32.646  22.935 -22.053  0.00  0.00     0.171 A 
ATOM      2  N   UNL d   1      32.962  22.219 -22.506  0.00  0.00    -0.286 N 
ATOM      3  N   UNL d   1      32.429  23.562 -22.668  0.00  0.00    -0.225 NA
ATOM      4  C   UNL d   1      32.942  22.400 -23.386  0.00  0.00     0.083 A 
ATOM      5  C   UNL d   1      32.606  23.246 -23.488  0.00  0.00     0.099 A 
ATOM      6  C   UNL d   1      33.185  21.908 -24.108  0.00  0.00     0.019 A 
ATOM      7  C   UNL d   1      32.519  23.585 -24.311  0.00  0.00     0.021 A 
ATOM      8  C   UNL d   1      33.086  22.272 -24.922  0.00  0.00     0.002 A 
ATOM      9  C   UNL d   1      32.751  23.118 -25.024  0.00  0.00     0.002 A 
ENDROOT
BRANCH   2  10
ATOM     10  C   UNL d   1      33.241  21.579 -22.831  0.00  0.00     0.106 C 
BRANCH  10  11
ATOM     11  C   UNL d   1      33.216  20.885 -22.413  0.00  0.00     0.118 A 
ATOM     12  O   UNL d   1      33.241  20.803 -21.631  0.00  0.00    -0.299 OA
ATOM     13  C   UNL d   1      33.202  20.024 -21.423  0.00  0.00     0.134 A 
ATOM     14 BR   UNL d   1      33.207  19.637 -20.718  0.00  0.00    -0.022 Br
ATOM     15  C   UNL d   1      33.151  19.608 -22.110  0.00  0.00     0.034 A 
ATOM     16  C   UNL d   1      33.158  20.128 -22.738  0.00  0.00     0.029 A 
ENDBRANCH  10  11
ENDBRANCH   2  10
BRANCH   1  17
ATOM     17  C   UNL d   1      32.562  23.009 -21.166  0.00  0.00     0.135 A 
ATOM     18  O   UNL d   1      33.154  23.271 -20.674  0.00  0.00    -0.297 OA
ATOM     19  C   UNL d   1      32.838  23.249 -19.923  0.00  0.00     0.134 A 
ATOM     20 BR   UNL d   1      32.957  23.382 -19.132  0.00  0.00    -0.022 Br
ATOM     21  C   UNL d   1      32.071  22.978 -19.972  0.00  0.00     0.034 A 
ATOM     22  C   UNL d   1      31.914  22.833 -20.754  0.00  0.00     0.030 A 
ENDBRANCH   1  17
TORSDOF 3
ENDMDL
