MODEL 1
REMARK VINA RESULT:      60.3      0.000      0.000
REMARK  5 active torsions:
REMARK  status: ('A' for Active; 'I' for Inactive)
REMARK    1  A    between atoms: N_4  and  C_1 
REMARK       I    between atoms: C_3  and  N_4 
REMARK    2  A    between atoms: C_8  and  C_3 
REMARK    3  A    between atoms: S_9  and  C_5 
REMARK    4  A    between atoms: C_12  and  S_9 
REMARK    5  A    between atoms: C_15  and  C_12 
ROOT
ATOM      1  C   UNL d   1     -55.570-100.776 -43.512  0.00  0.00     0.219 A 
ATOM      2  S   UNL d   1     -55.590 -99.917 -43.476  0.00  0.00    -0.019 SA
ATOM      3  C   UNL d   1     -55.608 -99.644 -44.301  0.00  0.00     0.165 A 
ATOM      4  N   UNL d   1     -55.577-100.924 -44.210  0.00  0.00    -0.120 NA
ATOM      5  N   UNL d   1     -55.600-100.211 -44.694  0.00  0.00    -0.133 NA
ENDROOT
BRANCH   1   6
ATOM      6  N   UNL d   1     -55.546-101.348 -42.790  0.00  0.00    -0.181 NA
ATOM      7  C   UNL d   1     -55.077-101.163 -42.100  0.00  0.00     0.282 C 
ATOM      8  O   UNL d   1     -54.717-100.570 -42.102  0.00  0.00    -0.265 OA
BRANCH   7   9
ATOM      9  C   UNL d   1     -54.973-101.582 -41.403  0.00  0.00     0.069 A 
ATOM     10  C   UNL d   1     -55.024-101.189 -40.693  0.00  0.00     0.062 A 
ATOM     11 CL   UNL d   1     -55.191-100.309 -40.665  0.00  0.00    -0.082 Cl
ATOM     12  C   UNL d   1     -54.921-101.598 -39.990  0.00  0.00     0.012 A 
ATOM     13  C   UNL d   1     -54.767-102.409 -39.997  0.00  0.00     0.001 A 
ATOM     14  C   UNL d   1     -54.715-102.811 -40.723  0.00  0.00     0.000 A 
ATOM     15  C   UNL d   1     -54.820-102.390 -41.432  0.00  0.00     0.006 A 
ENDBRANCH   7   9
ENDBRANCH   1   6
BRANCH   3  16
ATOM     16  S   UNL d   1     -55.633 -98.825 -44.689  0.00  0.00    -0.059 SA
BRANCH  16  17
ATOM     17  C   UNL d   1     -56.177 -98.782 -45.196  0.00  0.00     0.037 C 
BRANCH  17  18
ATOM     18  C   UNL d   1     -56.955 -98.877 -44.971  0.00  0.00     0.007 A 
ATOM     19  C   UNL d   1     -57.153 -99.084 -44.203  0.00  0.00     0.001 A 
ATOM     20  C   UNL d   1     -57.943 -99.181 -43.974  0.00  0.00     0.007 A 
ATOM     21  C   UNL d   1     -58.541 -99.065 -44.535  0.00  0.00     0.035 A 
ATOM     22  C   UNL d   1     -58.344 -98.853 -45.326  0.00  0.00     0.007 A 
ATOM     23 BR   UNL d   1     -59.417 -99.164 -44.317  0.00  0.00    -0.049 Br
ATOM     24  C   UNL d   1     -57.538 -98.764 -45.519  0.00  0.00     0.001 A 
ENDBRANCH  17  18
ENDBRANCH  16  17
ENDBRANCH   3  16
TORSDOF 5
ENDMDL
