MODEL 1
REMARK VINA RESULT:      -3.3      0.000      0.000
REMARK  1 active torsions:
REMARK  status: ('A' for Active; 'I' for Inactive)
REMARK    1  A    between atoms: C_3  and  C_1 
REMARK       I    between atoms: N_2  and  C_3 
ROOT
ATOM      1  N   UNL d   1      59.225  -9.108  33.856  0.00  0.00    -0.303 N 
ATOM      2  C   UNL d   1      59.078  -8.876  34.653  0.00  0.00     0.244 C 
ATOM      3  C   UNL d   1      60.026  -9.061  33.603  0.00  0.00     0.088 A 
ATOM      4  C   UNL d   1      58.527  -9.616  32.619  0.00  0.00     0.037 A 
ATOM      5  C   UNL d   1      58.554  -9.358  33.410  0.00  0.00     0.051 A 
ATOM      6  C   UNL d   1      59.493  -9.391  32.840  0.00  0.00     0.028 A 
ATOM      7  C   UNL d   1      59.966  -9.529  32.175  0.00  0.00     0.002 A 
ATOM      8  C   UNL d   1      60.347  -9.251  32.852  0.00  0.00     0.023 A 
ATOM      9  O   UNL d   1      58.343  -8.905  34.926  0.00  0.00    -0.271 OA
ATOM     10  C   UNL d   1      59.154  -9.687  32.085  0.00  0.00     0.006 A 
ATOM     11  C   UNL d   1      57.733  -9.817  32.388  0.00  0.00     0.006 C 
ATOM     12  C   UNL d   1      59.743  -9.809  31.414  0.00  0.00     0.000 C 
ATOM     13  C   UNL d   1      60.767  -9.482  31.923  0.00  0.00     0.000 C 
ENDROOT
BRANCH   2  14
ATOM     14  C   UNL d   1      59.679  -8.635  35.106  0.00  0.00     0.111 A 
ATOM     15  C   UNL d   1      60.469  -7.679  35.894  0.00  0.00     0.025 A 
ATOM     16  C   UNL d   1      60.277  -8.371  35.563  0.00  0.00     0.074 A 
ATOM     17  C   UNL d   1      60.162  -6.942  35.924  0.00  0.00     0.002 C 
ATOM     18  C   UNL d   1      61.132  -7.628  36.328  0.00  0.00     0.002 C 
ATOM     19  C   UNL d   1      60.927  -8.312  35.991  0.00  0.00     0.012 C 
ATOM     20  C   UNL d   1      60.589  -9.097  35.540  0.00  0.00    -0.023 A 
ATOM     21  C   UNL d   1      59.702  -7.870  35.352  0.00  0.00     0.172 A 
ATOM     22  C   UNL d   1      59.994  -9.349  35.088  0.00  0.00    -0.018 A 
ATOM     23  C   UNL d   1      59.101  -8.125  34.896  0.00  0.00     0.024 A 
ATOM     24  O   UNL d   1      59.549  -7.104  35.488  0.00  0.00    -0.291 OA
ENDBRANCH   2  14
TORSDOF 1
ENDMDL
MODEL 2
REMARK VINA RESULT:      -3.3      8.672      9.655
REMARK  1 active torsions:
REMARK  status: ('A' for Active; 'I' for Inactive)
REMARK    1  A    between atoms: C_3  and  C_1 
REMARK       I    between atoms: N_2  and  C_3 
ROOT
ATOM      1  N   UNL d   1      57.540   0.118  31.328  0.00  0.00    -0.303 N 
ATOM      2  C   UNL d   1      56.726  -0.064  31.454  0.00  0.00     0.244 C 
ATOM      3  C   UNL d   1      57.997   0.252  32.022  0.00  0.00     0.088 A 
ATOM      4  C   UNL d   1      58.559   0.307  30.232  0.00  0.00     0.037 A 
ATOM      5  C   UNL d   1      57.797   0.144  30.525  0.00  0.00     0.051 A 
ATOM      6  C   UNL d   1      58.598   0.358  31.246  0.00  0.00     0.028 A 
ATOM      7  C   UNL d   1      59.370   0.545  31.482  0.00  0.00     0.002 A 
ATOM      8  C   UNL d   1      58.811   0.441  32.081  0.00  0.00     0.023 A 
ATOM      9  O   UNL d   1      56.268  -0.194  30.832  0.00  0.00    -0.271 OA
ATOM     10  C   UNL d   1      59.242   0.482  30.662  0.00  0.00     0.006 A 
ATOM     11  C   UNL d   1      58.574   0.276  29.382  0.00  0.00     0.006 C 
ATOM     12  C   UNL d   1      60.050   0.682  31.008  0.00  0.00     0.000 C 
ATOM     13  C   UNL d   1      59.825   0.678  32.176  0.00  0.00     0.000 C 
ENDROOT
BRANCH   2  14
ATOM     14  C   UNL d   1      56.444  -0.098  32.191  0.00  0.00     0.111 A 
ATOM     15  C   UNL d   1      55.947  -0.749  33.412  0.00  0.00     0.025 A 
ATOM     16  C   UNL d   1      56.160  -0.154  32.934  0.00  0.00     0.074 A 
ATOM     17  C   UNL d   1      55.920  -1.546  33.373  0.00  0.00     0.002 C 
ATOM     18  C   UNL d   1      55.679  -0.583  34.140  0.00  0.00     0.002 C 
ATOM     19  C   UNL d   1      55.895  -0.001  33.653  0.00  0.00     0.012 C 
ATOM     20  C   UNL d   1      56.183   0.634  32.983  0.00  0.00    -0.023 A 
ATOM     21  C   UNL d   1      56.283  -0.815  32.517  0.00  0.00     0.172 A 
ATOM     22  C   UNL d   1      56.464   0.681  32.248  0.00  0.00    -0.018 A 
ATOM     23  C   UNL d   1      56.567  -0.767  31.774  0.00  0.00     0.024 A 
ATOM     24  O   UNL d   1      56.190  -1.590  32.654  0.00  0.00    -0.291 OA
ENDBRANCH   2  14
TORSDOF 1
ENDMDL
MODEL 3
REMARK VINA RESULT:      -3.0      8.640      9.675
REMARK  1 active torsions:
REMARK  status: ('A' for Active; 'I' for Inactive)
REMARK    1  A    between atoms: C_3  and  C_1 
REMARK       I    between atoms: N_2  and  C_3 
ROOT
ATOM      1  N   UNL d   1      57.182  -0.654  31.482  0.00  0.00    -0.303 N 
ATOM      2  C   UNL d   1      57.400  -0.821  30.684  0.00  0.00     0.244 C 
ATOM      3  C   UNL d   1      57.583  -0.008  31.844  0.00  0.00     0.088 A 
ATOM      4  C   UNL d   1      56.266  -1.121  32.585  0.00  0.00     0.037 A 
ATOM      5  C   UNL d   1      56.590  -1.151  31.819  0.00  0.00     0.051 A 
ATOM      6  C   UNL d   1      56.954  -0.377  32.509  0.00  0.00     0.028 A 
ATOM      7  C   UNL d   1      56.990   0.037  33.225  0.00  0.00     0.002 A 
ATOM      8  C   UNL d   1      57.491   0.292  32.621  0.00  0.00     0.023 A 
ATOM      9  O   UNL d   1      57.048  -1.414  30.313  0.00  0.00    -0.271 OA
ATOM     10  C   UNL d   1      56.449  -0.595  33.195  0.00  0.00     0.006 A 
ATOM     11  C   UNL d   1      55.680  -1.729  32.695  0.00  0.00     0.006 C 
ATOM     12  C   UNL d   1      56.555  -0.089  33.934  0.00  0.00     0.000 C 
ATOM     13  C   UNL d   1      57.392   0.682  33.586  0.00  0.00     0.000 C 
ENDROOT
BRANCH   2  14
ATOM     14  C   UNL d   1      57.951  -0.378  30.331  0.00  0.00     0.111 A 
ATOM     15  C   UNL d   1      59.245  -0.099  29.694  0.00  0.00     0.025 A 
ATOM     16  C   UNL d   1      58.520   0.051  29.973  0.00  0.00     0.074 A 
ATOM     17  C   UNL d   1      59.731  -0.730  29.642  0.00  0.00     0.002 C 
ATOM     18  C   UNL d   1      59.661   0.491  29.362  0.00  0.00     0.002 C 
ATOM     19  C   UNL d   1      58.936   0.624  29.645  0.00  0.00     0.012 C 
ATOM     20  C   UNL d   1      58.047   0.682  30.019  0.00  0.00    -0.023 A 
ATOM     21  C   UNL d   1      58.646  -0.718  30.113  0.00  0.00     0.172 A 
ATOM     22  C   UNL d   1      57.490   0.251  30.373  0.00  0.00    -0.018 A 
ATOM     23  C   UNL d   1      58.083  -1.153  30.471  0.00  0.00     0.024 A 
ATOM     24  O   UNL d   1      59.244  -1.221  29.980  0.00  0.00    -0.291 OA
ENDBRANCH   2  14
TORSDOF 1
ENDMDL
MODEL 4
REMARK VINA RESULT:      -2.8      8.789     10.114
REMARK  1 active torsions:
REMARK  status: ('A' for Active; 'I' for Inactive)
REMARK    1  A    between atoms: C_3  and  C_1 
REMARK       I    between atoms: N_2  and  C_3 
ROOT
ATOM      1  N   UNL d   1      56.201   0.084  33.744  0.00  0.00    -0.303 N 
ATOM      2  C   UNL d   1      56.950  -0.114  33.410  0.00  0.00     0.244 C 
ATOM      3  C   UNL d   1      55.545   0.049  33.218  0.00  0.00     0.088 A 
ATOM      4  C   UNL d   1      55.552   0.512  35.036  0.00  0.00     0.037 A 
ATOM      5  C   UNL d   1      56.200   0.293  34.561  0.00  0.00     0.051 A 
ATOM      6  C   UNL d   1      55.202   0.326  34.101  0.00  0.00     0.028 A 
ATOM      7  C   UNL d   1      54.383   0.446  34.086  0.00  0.00     0.002 A 
ATOM      8  C   UNL d   1      54.738   0.212  33.379  0.00  0.00     0.023 A 
ATOM      9  O   UNL d   1      57.585  -0.093  33.869  0.00  0.00    -0.271 OA
ATOM     10  C   UNL d   1      54.758   0.576  34.818  0.00  0.00     0.006 A 
ATOM     11  C   UNL d   1      55.799   0.678  35.834  0.00  0.00     0.006 C 
ATOM     12  C   UNL d   1      53.870   0.682  34.709  0.00  0.00     0.000 C 
ATOM     13  C   UNL d   1      53.728   0.410  33.559  0.00  0.00     0.000 C 
ENDROOT
BRANCH   2  14
ATOM     14  C   UNL d   1      56.995  -0.315  32.648  0.00  0.00     0.111 A 
ATOM     15  C   UNL d   1      57.430  -0.195  31.249  0.00  0.00     0.025 A 
ATOM     16  C   UNL d   1      57.054  -0.501  31.874  0.00  0.00     0.074 A 
ATOM     17  C   UNL d   1      57.912   0.426  31.105  0.00  0.00     0.002 C 
ATOM     18  C   UNL d   1      57.354  -0.546  30.541  0.00  0.00     0.002 C 
ATOM     19  C   UNL d   1      56.985  -0.840  31.174  0.00  0.00     0.012 C 
ATOM     20  C   UNL d   1      56.579  -1.118  32.006  0.00  0.00    -0.023 A 
ATOM     21  C   UNL d   1      57.441   0.132  32.150  0.00  0.00     0.172 A 
ATOM     22  C   UNL d   1      56.526  -0.927  32.769  0.00  0.00    -0.018 A 
ATOM     23  C   UNL d   1      57.387   0.325  32.921  0.00  0.00     0.024 A 
ATOM     24  O   UNL d   1      57.914   0.682  31.831  0.00  0.00    -0.291 OA
ENDBRANCH   2  14
TORSDOF 1
ENDMDL
