MODEL 1
REMARK VINA RESULT:      -9.8      0.000      0.000
REMARK  5 active torsions:
REMARK  status: ('A' for Active; 'I' for Inactive)
REMARK    1  A    between atoms: S_2  and  C_1 
REMARK    2  A    between atoms: C_5  and  C_1 
REMARK    3  A    between atoms: C_10  and  S_2 
REMARK       I    between atoms: N_9  and  C_5 
REMARK    4  A    between atoms: C_19  and  N_9 
REMARK    5  A    between atoms: C_18  and  C_19 
ROOT
ATOM      1  C   UNL d   1      53.309  33.369  53.404  0.00  0.00     0.277 C 
ATOM      2  N   UNL d   1      53.153  32.571  53.594  0.00  0.00    -0.209 NA
ATOM      3  O   UNL d   1      54.000  33.553  52.978  0.00  0.00    -0.268 OA
ENDROOT
BRANCH   1   4
ATOM      4  C   UNL d   1      52.793  33.972  53.630  0.00  0.00     0.207 A 
ATOM      5  C   UNL d   1      52.279  34.568  53.851  0.00  0.00    -0.001 A 
ATOM      6  C   UNL d   1      52.977  34.458  54.281  0.00  0.00    -0.001 A 
BRANCH   4   7
ATOM      7  S   UNL d   1      52.093  34.098  53.214  0.00  0.00     0.203 S 
ATOM      8  O   UNL d   1      51.668  33.696  53.826  0.00  0.00    -0.221 OA
ATOM      9  O   UNL d   1      52.515  34.484  52.630  0.00  0.00    -0.221 OA
BRANCH   7  10
ATOM     10  C   UNL d   1      51.387  34.217  52.808  0.00  0.00     0.085 A 
ATOM     11  C   UNL d   1      51.389  34.211  51.982  0.00  0.00     0.011 A 
ATOM     12  C   UNL d   1      50.691  34.329  51.568  0.00  0.00     0.001 A 
ATOM     13  C   UNL d   1      49.978  34.454  51.980  0.00  0.00     0.000 A 
ATOM     14  C   UNL d   1      49.979  34.459  52.803  0.00  0.00     0.001 A 
ATOM     15  C   UNL d   1      50.673  34.342  53.217  0.00  0.00     0.011 A 
ENDBRANCH   7  10
ENDBRANCH   4   7
ENDBRANCH   1   4
BRANCH   2  16
ATOM     16  C   UNL d   1      53.685  31.957  53.360  0.00  0.00     0.102 C 
BRANCH  16  17
ATOM     17  C   UNL d   1      53.467  31.149  53.479  0.00  0.00     0.021 A 
ATOM     18  C   UNL d   1      53.637  30.782  54.194  0.00  0.00     0.028 A 
ATOM     19  C   UNL d   1      53.417  29.988  54.299  0.00  0.00     0.119 A 
ATOM     20  O   UNL d   1      53.498  29.470  54.919  0.00  0.00    -0.300 OA
ATOM     21  C   UNL d   1      53.033  29.581  53.683  0.00  0.00     0.119 A 
ATOM     22  C   UNL d   1      53.174  28.766  54.691  0.00  0.00     0.304 A 
ATOM     23  O   UNL d   1      52.893  28.829  53.950  0.00  0.00    -0.300 OA
ATOM     24  C   UNL d   1      52.874  29.975  52.974  0.00  0.00     0.026 A 
ATOM     25  C   UNL d   1      53.100  30.760  52.892  0.00  0.00     0.004 A 
ENDBRANCH  16  17
ENDBRANCH   2  16
TORSDOF 5
ENDMDL
MODEL 2
REMARK VINA RESULT:      -9.7      1.304      4.536
REMARK  5 active torsions:
REMARK  status: ('A' for Active; 'I' for Inactive)
REMARK    1  A    between atoms: S_2  and  C_1 
REMARK    2  A    between atoms: C_5  and  C_1 
REMARK    3  A    between atoms: C_10  and  S_2 
REMARK       I    between atoms: N_9  and  C_5 
REMARK    4  A    between atoms: C_19  and  N_9 
REMARK    5  A    between atoms: C_18  and  C_19 
ROOT
ATOM      1  C   UNL d   1      53.241  33.257  53.839  0.00  0.00     0.277 C 
ATOM      2  N   UNL d   1      52.713  33.553  53.264  0.00  0.00    -0.209 NA
ATOM      3  O   UNL d   1      53.198  33.552  54.615  0.00  0.00    -0.268 OA
ENDROOT
BRANCH   1   4
ATOM      4  C   UNL d   1      53.800  32.679  53.649  0.00  0.00     0.207 A 
ATOM      5  C   UNL d   1      54.350  32.105  53.462  0.00  0.00    -0.001 A 
ATOM      6  C   UNL d   1      54.588  32.897  53.488  0.00  0.00    -0.001 A 
BRANCH   4   7
ATOM      7  S   UNL d   1      53.583  31.885  53.617  0.00  0.00     0.203 S 
ATOM      8  O   UNL d   1      53.600  31.924  52.771  0.00  0.00    -0.221 OA
ATOM      9  O   UNL d   1      53.570  31.861  54.435  0.00  0.00    -0.221 OA
BRANCH   7  10
ATOM     10  C   UNL d   1      53.366  31.092  53.572  0.00  0.00     0.085 A 
ATOM     11  C   UNL d   1      53.595  30.576  54.174  0.00  0.00     0.011 A 
ATOM     12  C   UNL d   1      53.384  29.783  54.139  0.00  0.00     0.001 A 
ATOM     13  C   UNL d   1      52.939  29.499  53.495  0.00  0.00     0.000 A 
ATOM     14  C   UNL d   1      52.712  30.017  52.896  0.00  0.00     0.001 A 
ATOM     15  C   UNL d   1      52.921  30.805  52.930  0.00  0.00     0.011 A 
ENDBRANCH   7  10
ENDBRANCH   4   7
ENDBRANCH   1   4
BRANCH   2  16
ATOM     16  C   UNL d   1      52.142  34.145  53.463  0.00  0.00     0.102 C 
BRANCH  16  17
ATOM     17  C   UNL d   1      51.470  34.260  52.964  0.00  0.00     0.021 A 
ATOM     18  C   UNL d   1      50.745  34.458  53.296  0.00  0.00     0.028 A 
ATOM     19  C   UNL d   1      50.092  34.568  52.794  0.00  0.00     0.119 A 
ATOM     20  O   UNL d   1      49.316  34.761  52.934  0.00  0.00    -0.300 OA
ATOM     21  C   UNL d   1      50.182  34.479  51.972  0.00  0.00     0.119 A 
ATOM     22  C   UNL d   1      48.940  34.789  52.219  0.00  0.00     0.304 A 
ATOM     23  O   UNL d   1      49.458  34.620  51.640  0.00  0.00    -0.300 OA
ATOM     24  C   UNL d   1      50.924  34.280  51.666  0.00  0.00     0.026 A 
ATOM     25  C   UNL d   1      51.556  34.175  52.179  0.00  0.00     0.004 A 
ENDBRANCH  16  17
ENDBRANCH   2  16
TORSDOF 5
ENDMDL
MODEL 3
REMARK VINA RESULT:      -9.0      2.163      5.322
REMARK  5 active torsions:
REMARK  status: ('A' for Active; 'I' for Inactive)
REMARK    1  A    between atoms: S_2  and  C_1 
REMARK    2  A    between atoms: C_5  and  C_1 
REMARK    3  A    between atoms: C_10  and  S_2 
REMARK       I    between atoms: N_9  and  C_5 
REMARK    4  A    between atoms: C_19  and  N_9 
REMARK    5  A    between atoms: C_18  and  C_19 
ROOT
ATOM      1  C   UNL d   1      51.329  33.887  53.015  0.00  0.00     0.277 C 
ATOM      2  N   UNL d   1      50.713  34.417  52.826  0.00  0.00    -0.209 NA
ATOM      3  O   UNL d   1      51.134  33.118  53.268  0.00  0.00    -0.268 OA
ENDROOT
BRANCH   1   4
ATOM      4  C   UNL d   1      52.121  34.111  52.957  0.00  0.00     0.207 A 
ATOM      5  C   UNL d   1      52.906  34.332  52.903  0.00  0.00    -0.001 A 
ATOM      6  C   UNL d   1      52.373  34.596  52.328  0.00  0.00    -0.001 A 
BRANCH   4   7
ATOM      7  S   UNL d   1      52.667  33.859  53.520  0.00  0.00     0.203 S 
ATOM      8  O   UNL d   1      52.871  33.209  53.017  0.00  0.00    -0.221 OA
ATOM      9  O   UNL d   1      52.461  34.491  53.996  0.00  0.00    -0.221 OA
BRANCH   7  10
ATOM     10  C   UNL d   1      53.216  33.596  54.074  0.00  0.00     0.085 A 
ATOM     11  C   UNL d   1      53.491  34.119  54.651  0.00  0.00     0.011 A 
ATOM     12  C   UNL d   1      54.038  33.868  55.208  0.00  0.00     0.001 A 
ATOM     13  C   UNL d   1      54.318  33.083  55.193  0.00  0.00     0.000 A 
ATOM     14  C   UNL d   1      54.042  32.564  54.617  0.00  0.00     0.001 A 
ATOM     15  C   UNL d   1      53.497  32.813  54.062  0.00  0.00     0.011 A 
ENDBRANCH   7  10
ENDBRANCH   4   7
ENDBRANCH   1   4
BRANCH   2  16
ATOM     16  C   UNL d   1      49.903  34.182  52.887  0.00  0.00     0.102 C 
BRANCH  16  17
ATOM     17  C   UNL d   1      49.293  34.727  52.672  0.00  0.00     0.021 A 
ATOM     18  C   UNL d   1      49.011  35.262  53.227  0.00  0.00     0.028 A 
ATOM     19  C   UNL d   1      48.412  35.792  53.004  0.00  0.00     0.119 A 
ATOM     20  O   UNL d   1      48.016  36.378  53.403  0.00  0.00    -0.300 OA
ATOM     21  C   UNL d   1      48.110  35.772  52.228  0.00  0.00     0.119 A 
ATOM     22  C   UNL d   1      47.488  36.709  52.889  0.00  0.00     0.304 A 
ATOM     23  O   UNL d   1      47.542  36.347  52.182  0.00  0.00    -0.300 OA
ATOM     24  C   UNL d   1      48.414  35.223  51.690  0.00  0.00     0.026 A 
ATOM     25  C   UNL d   1      49.006  34.708  51.932  0.00  0.00     0.004 A 
ENDBRANCH  16  17
ENDBRANCH   2  16
TORSDOF 5
ENDMDL
MODEL 4
REMARK VINA RESULT:      -8.7      1.707      4.658
REMARK  5 active torsions:
REMARK  status: ('A' for Active; 'I' for Inactive)
REMARK    1  A    between atoms: S_2  and  C_1 
REMARK    2  A    between atoms: C_5  and  C_1 
REMARK    3  A    between atoms: C_10  and  S_2 
REMARK       I    between atoms: N_9  and  C_5 
REMARK    4  A    between atoms: C_19  and  N_9 
REMARK    5  A    between atoms: C_18  and  C_19 
ROOT
ATOM      1  C   UNL d   1      52.798  32.449  52.929  0.00  0.00     0.277 C 
ATOM      2  N   UNL d   1      52.171  32.981  53.077  0.00  0.00    -0.209 NA
ATOM      3  O   UNL d   1      53.000  32.275  52.141  0.00  0.00    -0.268 OA
ENDROOT
BRANCH   1   4
ATOM      4  C   UNL d   1      53.215  32.097  53.548  0.00  0.00     0.207 A 
ATOM      5  C   UNL d   1      53.631  31.752  54.162  0.00  0.00    -0.001 A 
ATOM      6  C   UNL d   1      53.081  31.298  53.743  0.00  0.00    -0.001 A 
BRANCH   4   7
ATOM      7  S   UNL d   1      53.768  32.533  53.977  0.00  0.00     0.203 S 
ATOM      8  O   UNL d   1      53.286  32.446  54.668  0.00  0.00    -0.221 OA
ATOM      9  O   UNL d   1      54.224  32.610  53.303  0.00  0.00    -0.221 OA
BRANCH   7  10
ATOM     10  C   UNL d   1      54.312  32.967  54.417  0.00  0.00     0.085 A 
ATOM     11  C   UNL d   1      54.987  33.263  54.046  0.00  0.00     0.011 A 
ATOM     12  C   UNL d   1      55.536  33.696  54.475  0.00  0.00     0.001 A 
ATOM     13  C   UNL d   1      55.413  33.839  55.287  0.00  0.00     0.000 A 
ATOM     14  C   UNL d   1      54.738  33.542  55.654  0.00  0.00     0.001 A 
ATOM     15  C   UNL d   1      54.191  33.110  55.228  0.00  0.00     0.011 A 
ENDBRANCH   7  10
ENDBRANCH   4   7
ENDBRANCH   1   4
BRANCH   2  16
ATOM     16  C   UNL d   1      51.746  33.339  52.439  0.00  0.00     0.102 C 
BRANCH  16  17
ATOM     17  C   UNL d   1      51.090  33.844  52.608  0.00  0.00     0.021 A 
ATOM     18  C   UNL d   1      50.472  33.903  52.069  0.00  0.00     0.028 A 
ATOM     19  C   UNL d   1      49.833  34.403  52.246  0.00  0.00     0.119 A 
ATOM     20  O   UNL d   1      49.149  34.586  51.848  0.00  0.00    -0.300 OA
ATOM     21  C   UNL d   1      49.828  34.832  52.959  0.00  0.00     0.119 A 
ATOM     22  C   UNL d   1      48.737  35.112  52.303  0.00  0.00     0.304 A 
ATOM     23  O   UNL d   1      49.142  35.261  52.971  0.00  0.00    -0.300 OA
ATOM     24  C   UNL d   1      50.464  34.753  53.483  0.00  0.00     0.026 A 
ATOM     25  C   UNL d   1      51.085  34.253  53.288  0.00  0.00     0.004 A 
ENDBRANCH  16  17
ENDBRANCH   2  16
TORSDOF 5
ENDMDL
