MODEL 1
REMARK VINA RESULT:      -2.8      0.000      0.000
REMARK  7 active torsions:
REMARK  status: ('A' for Active; 'I' for Inactive)
REMARK    1  A    between atoms: C_9  and  N_1 
REMARK    2  A    between atoms: O_18  and  C_6 
REMARK    3  A    between atoms: C_7  and  C_8 
REMARK    4  A    between atoms: C_8  and  O_12 
REMARK    5  A    between atoms: O_12  and  C_9 
REMARK    6  A    between atoms: O_20  and  C_10 
REMARK    7  A    between atoms: O_19  and  C_11 
ROOT
ATOM      1  C   UNL d   1     -41.413-122.177 -50.887  0.00  0.00     0.302 C 
ATOM      2  O   UNL d   1     -41.127-121.405 -50.813  0.00  0.00    -0.259 OA
ENDROOT
BRANCH   1   3
ATOM      3  C   UNL d   1     -41.740-122.562 -50.233  0.00  0.00     0.068 A 
ATOM      4  C   UNL d   1     -42.549-122.796 -50.249  0.00  0.00     0.032 A 
ATOM      5  C   UNL d   1     -42.855-123.175 -49.594  0.00  0.00     0.118 A 
ATOM      6  C   UNL d   1     -42.394-123.330 -48.929  0.00  0.00     0.138 A 
ATOM      7  C   UNL d   1     -41.603-123.096 -48.926  0.00  0.00     0.118 A 
ATOM      8  C   UNL d   1     -41.280-122.714 -49.577  0.00  0.00     0.032 A 
BRANCH   5   9
ATOM      9  O   UNL d   1     -43.661-123.412 -49.598  0.00  0.00    -0.326 OA
ATOM     10  C   UNL d   1     -44.157-123.156 -50.208  0.00  0.00     0.181 C 
ENDBRANCH   5   9
BRANCH   6  11
ATOM     11  O   UNL d   1     -42.727-123.718 -48.273  0.00  0.00    -0.324 OA
ATOM     12  C   UNL d   1     -42.930-123.308 -47.591  0.00  0.00     0.182 C 
ENDBRANCH   6  11
BRANCH   7  13
ATOM     13  O   UNL d   1     -41.132-123.252 -48.253  0.00  0.00    -0.326 OA
ATOM     14  C   UNL d   1     -41.127-122.738 -47.619  0.00  0.00     0.181 C 
ENDBRANCH   7  13
ENDBRANCH   1   3
BRANCH   1  15
ATOM     15  O   UNL d   1     -41.373-122.566 -51.614  0.00  0.00    -0.251 OA
BRANCH  15  16
ATOM     16  C   UNL d   1     -41.174-122.143 -52.296  0.00  0.00     0.233 C 
BRANCH  16  17
ATOM     17  N   UNL d   1     -41.382-122.439 -53.042  0.00  0.00    -0.150 N 
ATOM     18  N   UNL d   1     -41.248-123.234 -53.223  0.00  0.00    -0.055 NA
ATOM     19  N   UNL d   1     -41.455-123.525 -53.965  0.00  0.00    -0.130 NA
ATOM     20  C   UNL d   1     -41.794-123.030 -54.523  0.00  0.00     0.109 A 
ATOM     21  C   UNL d   1     -41.929-122.234 -54.341  0.00  0.00     0.077 A 
ATOM     22  C   UNL d   1     -42.002-123.321 -55.264  0.00  0.00     0.021 A 
ATOM     23  C   UNL d   1     -41.726-121.926 -53.600  0.00  0.00     0.285 A 
ATOM     24  C   UNL d   1     -42.270-121.734 -54.902  0.00  0.00     0.006 A 
ATOM     25  O   UNL d   1     -41.859-121.139 -53.420  0.00  0.00    -0.265 OA
ATOM     26  C   UNL d   1     -42.478-122.026 -55.643  0.00  0.00     0.000 A 
ATOM     27  C   UNL d   1     -42.342-122.825 -55.826  0.00  0.00     0.002 A 
ENDBRANCH  16  17
ENDBRANCH  15  16
ENDBRANCH   1  15
TORSDOF 7
ENDMDL
