MODEL 1
REMARK VINA RESULT:      -5.7      0.000      0.000
REMARK  4 active torsions:
REMARK  status: ('A' for Active; 'I' for Inactive)
REMARK    1  A    between atoms: C_7  and  C_3 
REMARK    2  A    between atoms: S_6  and  C_7 
REMARK    3  A    between atoms: C_9  and  S_6 
REMARK    4  A    between atoms: C_8  and  C_9 
ROOT
ATOM      1  N   UNL d   1     -45.364  12.310  22.953  0.00  0.00    -0.225 NA
ATOM      2  N   UNL d   1     -46.268  11.451  23.498  0.00  0.00    -0.225 NA
ATOM      3  C   UNL d   1     -46.167  12.220  23.180  0.00  0.00     0.169 A 
ATOM      4  C   UNL d   1     -44.976  11.592  23.134  0.00  0.00     0.101 A 
ATOM      5  C   UNL d   1     -45.525  11.060  23.470  0.00  0.00     0.101 A 
ATOM      6  C   UNL d   1     -44.181  11.356  23.033  0.00  0.00     0.021 A 
ATOM      7  C   UNL d   1     -45.268  10.303  23.698  0.00  0.00     0.021 A 
ATOM      8  C   UNL d   1     -44.488  10.081  23.595  0.00  0.00     0.002 A 
ATOM      9  C   UNL d   1     -43.944  10.608  23.263  0.00  0.00     0.002 A 
ENDROOT
BRANCH   3  10
ATOM     10  C   UNL d   1     -46.410  12.974  22.950  0.00  0.00     0.074 C 
BRANCH  10  11
ATOM     11  S   UNL d   1     -47.215  13.150  22.903  0.00  0.00    -0.083 SA
BRANCH  11  12
ATOM     12  C   UNL d   1     -47.460  13.867  22.578  0.00  0.00     0.035 C 
BRANCH  12  13
ATOM     13  C   UNL d   1     -48.265  14.042  22.527  0.00  0.00     0.006 A 
ATOM     14  C   UNL d   1     -48.696  13.787  21.869  0.00  0.00     0.001 A 
ATOM     15  C   UNL d   1     -49.501  13.962  21.818  0.00  0.00     0.000 A 
ATOM     16  C   UNL d   1     -49.868  14.387  22.422  0.00  0.00     0.000 A 
ATOM     17  C   UNL d   1     -49.430  14.638  23.078  0.00  0.00     0.000 A 
ATOM     18  C   UNL d   1     -48.626  14.463  23.128  0.00  0.00     0.001 A 
ENDBRANCH  12  13
ENDBRANCH  11  12
ENDBRANCH  10  11
ENDBRANCH   3  10
TORSDOF 4
ENDMDL
MODEL 2
REMARK VINA RESULT:      -5.4      1.458      5.028
REMARK  4 active torsions:
REMARK  status: ('A' for Active; 'I' for Inactive)
REMARK    1  A    between atoms: C_7  and  C_3 
REMARK    2  A    between atoms: S_6  and  C_7 
REMARK    3  A    between atoms: C_9  and  S_6 
REMARK    4  A    between atoms: C_8  and  C_9 
ROOT
ATOM      1  N   UNL d   1     -48.745  14.538  22.916  0.00  0.00    -0.225 NA
ATOM      2  N   UNL d   1     -49.144  13.525  22.100  0.00  0.00    -0.225 NA
ATOM      3  C   UNL d   1     -48.505  13.819  22.554  0.00  0.00     0.169 A 
ATOM      4  C   UNL d   1     -49.534  14.680  22.679  0.00  0.00     0.101 A 
ATOM      5  C   UNL d   1     -49.786  14.062  22.178  0.00  0.00     0.101 A 
ATOM      6  C   UNL d   1     -50.058  15.304  22.862  0.00  0.00     0.021 A 
ATOM      7  C   UNL d   1     -50.558  14.080  21.869  0.00  0.00     0.021 A 
ATOM      8  C   UNL d   1     -51.064  14.695  22.054  0.00  0.00     0.002 A 
ATOM      9  C   UNL d   1     -50.815  15.307  22.550  0.00  0.00     0.002 A 
ENDROOT
BRANCH   3  10
ATOM     10  C   UNL d   1     -47.741  13.812  22.866  0.00  0.00     0.074 C 
BRANCH  10  11
ATOM     11  S   UNL d   1     -47.302  13.114  22.862  0.00  0.00    -0.083 SA
BRANCH  11  12
ATOM     12  C   UNL d   1     -46.625  13.051  23.329  0.00  0.00     0.035 C 
BRANCH  12  13
ATOM     13  C   UNL d   1     -46.189  12.351  23.330  0.00  0.00     0.006 A 
ATOM     14  C   UNL d   1     -45.451  12.331  22.958  0.00  0.00     0.001 A 
ATOM     15  C   UNL d   1     -45.015  11.630  22.959  0.00  0.00     0.000 A 
ATOM     16  C   UNL d   1     -45.318  10.958  23.329  0.00  0.00     0.000 A 
ATOM     17  C   UNL d   1     -46.057  10.986  23.698  0.00  0.00     0.000 A 
ATOM     18  C   UNL d   1     -46.493  11.686  23.697  0.00  0.00     0.001 A 
ENDBRANCH  12  13
ENDBRANCH  11  12
ENDBRANCH  10  11
ENDBRANCH   3  10
TORSDOF 4
ENDMDL
MODEL 3
REMARK VINA RESULT:      -5.1      1.009      4.879
REMARK  4 active torsions:
REMARK  status: ('A' for Active; 'I' for Inactive)
REMARK    1  A    between atoms: C_7  and  C_3 
REMARK    2  A    between atoms: S_6  and  C_7 
REMARK    3  A    between atoms: C_9  and  S_6 
REMARK    4  A    between atoms: C_8  and  C_9 
ROOT
ATOM      1  N   UNL d   1     -47.986  12.767  22.997  0.00  0.00    -0.225 NA
ATOM      2  N   UNL d   1     -47.059  13.755  23.121  0.00  0.00    -0.225 NA
ATOM      3  C   UNL d   1     -47.191  12.933  23.210  0.00  0.00     0.169 A 
ATOM      4  C   UNL d   1     -48.337  13.493  22.778  0.00  0.00     0.101 A 
ATOM      5  C   UNL d   1     -47.774  14.105  22.851  0.00  0.00     0.101 A 
ATOM      6  C   UNL d   1     -49.111  13.672  22.517  0.00  0.00     0.021 A 
ATOM      7  C   UNL d   1     -47.995  14.884  22.663  0.00  0.00     0.021 A 
ATOM      8  C   UNL d   1     -48.755  15.050  22.409  0.00  0.00     0.002 A 
ATOM      9  C   UNL d   1     -49.313  14.444  22.336  0.00  0.00     0.002 A 
ENDROOT
BRANCH   3  10
ATOM     10  C   UNL d   1     -46.983  12.156  23.394  0.00  0.00     0.074 C 
BRANCH  10  11
ATOM     11  S   UNL d   1     -46.193  11.923  23.362  0.00  0.00    -0.083 SA
BRANCH  11  12
ATOM     12  C   UNL d   1     -45.999  11.121  23.371  0.00  0.00     0.035 C 
BRANCH  12  13
ATOM     13  C   UNL d   1     -45.208  10.889  23.354  0.00  0.00     0.006 A 
ATOM     14  C   UNL d   1     -44.648  11.377  22.990  0.00  0.00     0.001 A 
ATOM     15  C   UNL d   1     -43.857  11.144  22.973  0.00  0.00     0.000 A 
ATOM     16  C   UNL d   1     -43.631  10.430  23.318  0.00  0.00     0.000 A 
ATOM     17  C   UNL d   1     -44.196   9.947  23.680  0.00  0.00     0.000 A 
ATOM     18  C   UNL d   1     -44.988  10.180  23.697  0.00  0.00     0.001 A 
ENDBRANCH  12  13
ENDBRANCH  11  12
ENDBRANCH  10  11
ENDBRANCH   3  10
TORSDOF 4
ENDMDL
MODEL 4
REMARK VINA RESULT:      -5.0      1.621      2.152
REMARK  4 active torsions:
REMARK  status: ('A' for Active; 'I' for Inactive)
REMARK    1  A    between atoms: C_7  and  C_3 
REMARK    2  A    between atoms: S_6  and  C_7 
REMARK    3  A    between atoms: C_9  and  S_6 
REMARK    4  A    between atoms: C_8  and  C_9 
ROOT
ATOM      1  N   UNL d   1     -46.133  12.233  23.121  0.00  0.00    -0.225 NA
ATOM      2  N   UNL d   1     -46.321  13.387  22.426  0.00  0.00    -0.225 NA
ATOM      3  C   UNL d   1     -46.685  12.840  22.946  0.00  0.00     0.169 A 
ATOM      4  C   UNL d   1     -45.431  12.413  22.705  0.00  0.00     0.101 A 
ATOM      5  C   UNL d   1     -45.539  13.121  22.276  0.00  0.00     0.101 A 
ATOM      6  C   UNL d   1     -44.698  12.014  22.665  0.00  0.00     0.021 A 
ATOM      7  C   UNL d   1     -44.913  13.415  21.815  0.00  0.00     0.021 A 
ATOM      8  C   UNL d   1     -44.199  13.017  21.782  0.00  0.00     0.002 A 
ATOM      9  C   UNL d   1     -44.092  12.316  22.207  0.00  0.00     0.002 A 
ENDROOT
BRANCH   3  10
ATOM     10  C   UNL d   1     -47.300  12.539  23.406  0.00  0.00     0.074 C 
BRANCH  10  11
ATOM     11  S   UNL d   1     -48.083  12.707  23.209  0.00  0.00    -0.083 SA
BRANCH  11  12
ATOM     12  C   UNL d   1     -48.695  12.447  23.697  0.00  0.00     0.035 C 
BRANCH  12  13
ATOM     13  C   UNL d   1     -49.479  12.561  23.469  0.00  0.00     0.006 A 
ATOM     14  C   UNL d   1     -49.810  13.318  23.511  0.00  0.00     0.001 A 
ATOM     15  C   UNL d   1     -50.594  13.431  23.283  0.00  0.00     0.000 A 
ATOM     16  C   UNL d   1     -51.041  12.792  23.016  0.00  0.00     0.000 A 
ATOM     17  C   UNL d   1     -50.704  12.038  22.976  0.00  0.00     0.000 A 
ATOM     18  C   UNL d   1     -49.920  11.924  23.205  0.00  0.00     0.001 A 
ENDBRANCH  12  13
ENDBRANCH  11  12
ENDBRANCH  10  11
ENDBRANCH   3  10
TORSDOF 4
ENDMDL
MODEL 5
REMARK VINA RESULT:      -4.9      7.800      8.992
REMARK  4 active torsions:
REMARK  status: ('A' for Active; 'I' for Inactive)
REMARK    1  A    between atoms: C_7  and  C_3 
REMARK    2  A    between atoms: S_6  and  C_7 
REMARK    3  A    between atoms: C_9  and  S_6 
REMARK    4  A    between atoms: C_8  and  C_9 
ROOT
ATOM      1  N   UNL d   1     -40.611  15.500  19.072  0.00  0.00    -0.225 NA
ATOM      2  N   UNL d   1     -39.765  14.511  18.673  0.00  0.00    -0.225 NA
ATOM      3  C   UNL d   1     -40.081  14.907  19.341  0.00  0.00     0.169 A 
ATOM      4  C   UNL d   1     -40.616  15.462  18.237  0.00  0.00     0.101 A 
ATOM      5  C   UNL d   1     -40.099  14.858  17.985  0.00  0.00     0.101 A 
ATOM      6  C   UNL d   1     -41.035  15.911  17.670  0.00  0.00     0.021 A 
ATOM      7  C   UNL d   1     -40.010  14.714  17.171  0.00  0.00     0.021 A 
ATOM      8  C   UNL d   1     -40.424  15.158  16.623  0.00  0.00     0.002 A 
ATOM      9  C   UNL d   1     -40.936  15.757  16.873  0.00  0.00     0.002 A 
ENDROOT
BRANCH   3  10
ATOM     10  C   UNL d   1     -40.177  15.059  20.146  0.00  0.00     0.074 C 
BRANCH  10  11
ATOM     11  S   UNL d   1     -39.692  14.682  20.697  0.00  0.00    -0.083 SA
BRANCH  11  12
ATOM     12  C   UNL d   1     -39.832  14.781  21.503  0.00  0.00     0.035 C 
BRANCH  12  13
ATOM     13  C   UNL d   1     -39.299  14.476  22.054  0.00  0.00     0.006 A 
ATOM     14  C   UNL d   1     -38.844  14.994  22.511  0.00  0.00     0.001 A 
ATOM     15  C   UNL d   1     -38.311  14.688  23.061  0.00  0.00     0.000 A 
ATOM     16  C   UNL d   1     -38.235  13.872  23.151  0.00  0.00     0.000 A 
ATOM     17  C   UNL d   1     -38.693  13.360  22.690  0.00  0.00     0.000 A 
ATOM     18  C   UNL d   1     -39.226  13.666  22.140  0.00  0.00     0.001 A 
ENDBRANCH  12  13
ENDBRANCH  11  12
ENDBRANCH  10  11
ENDBRANCH   3  10
TORSDOF 4
ENDMDL
MODEL 6
REMARK VINA RESULT:      -4.9      7.804      8.378
REMARK  4 active torsions:
REMARK  status: ('A' for Active; 'I' for Inactive)
REMARK    1  A    between atoms: C_7  and  C_3 
REMARK    2  A    between atoms: S_6  and  C_7 
REMARK    3  A    between atoms: C_9  and  S_6 
REMARK    4  A    between atoms: C_8  and  C_9 
ROOT
ATOM      1  N   UNL d   1     -39.635  13.990  21.142  0.00  0.00    -0.225 NA
ATOM      2  N   UNL d   1     -39.582  15.349  21.179  0.00  0.00    -0.225 NA
ATOM      3  C   UNL d   1     -39.808  14.691  20.713  0.00  0.00     0.169 A 
ATOM      4  C   UNL d   1     -39.303  14.226  21.872  0.00  0.00     0.101 A 
ATOM      5  C   UNL d   1     -39.267  15.059  21.902  0.00  0.00     0.101 A 
ATOM      6  C   UNL d   1     -39.026  13.777  22.519  0.00  0.00     0.021 A 
ATOM      7  C   UNL d   1     -38.954  15.427  22.579  0.00  0.00     0.021 A 
ATOM      8  C   UNL d   1     -38.686  14.979  23.208  0.00  0.00     0.002 A 
ATOM      9  C   UNL d   1     -38.721  14.153  23.179  0.00  0.00     0.002 A 
ENDROOT
BRANCH   3  10
ATOM     10  C   UNL d   1     -40.115  14.314  20.047  0.00  0.00     0.074 C 
BRANCH  10  11
ATOM     11  S   UNL d   1     -40.145  14.714  19.325  0.00  0.00    -0.083 SA
BRANCH  11  12
ATOM     12  C   UNL d   1     -40.478  14.347  18.666  0.00  0.00     0.035 C 
BRANCH  12  13
ATOM     13  C   UNL d   1     -40.439  14.715  17.928  0.00  0.00     0.006 A 
ATOM     14  C   UNL d   1     -41.009  15.278  17.723  0.00  0.00     0.001 A 
ATOM     15  C   UNL d   1     -40.970  15.645  16.985  0.00  0.00     0.000 A 
ATOM     16  C   UNL d   1     -40.366  15.449  16.460  0.00  0.00     0.000 A 
ATOM     17  C   UNL d   1     -39.799  14.884  16.672  0.00  0.00     0.000 A 
ATOM     18  C   UNL d   1     -39.838  14.517  17.409  0.00  0.00     0.001 A 
ENDBRANCH  12  13
ENDBRANCH  11  12
ENDBRANCH  10  11
ENDBRANCH   3  10
TORSDOF 4
ENDMDL
MODEL 7
REMARK VINA RESULT:      -4.8      1.845      4.607
REMARK  4 active torsions:
REMARK  status: ('A' for Active; 'I' for Inactive)
REMARK    1  A    between atoms: C_7  and  C_3 
REMARK    2  A    between atoms: S_6  and  C_7 
REMARK    3  A    between atoms: C_9  and  S_6 
REMARK    4  A    between atoms: C_8  and  C_9 
ROOT
ATOM      1  N   UNL d   1     -48.759  12.195  23.583  0.00  0.00    -0.225 NA
ATOM      2  N   UNL d   1     -48.873  13.410  22.981  0.00  0.00    -0.225 NA
ATOM      3  C   UNL d   1     -48.330  12.860  23.302  0.00  0.00     0.169 A 
ATOM      4  C   UNL d   1     -49.567  12.344  23.429  0.00  0.00     0.101 A 
ATOM      5  C   UNL d   1     -49.645  13.088  23.060  0.00  0.00     0.101 A 
ATOM      6  C   UNL d   1     -50.248  11.885  23.584  0.00  0.00     0.021 A 
ATOM      7  C   UNL d   1     -50.403  13.360  22.852  0.00  0.00     0.021 A 
ATOM      8  C   UNL d   1     -51.064  12.904  23.007  0.00  0.00     0.002 A 
ATOM      9  C   UNL d   1     -50.987  12.166  23.373  0.00  0.00     0.002 A 
ENDROOT
BRANCH   3  10
ATOM     10  C   UNL d   1     -47.583  12.580  23.513  0.00  0.00     0.074 C 
BRANCH  10  11
ATOM     11  S   UNL d   1     -46.939  12.710  23.015  0.00  0.00    -0.083 SA
BRANCH  11  12
ATOM     12  C   UNL d   1     -46.183  12.479  23.250  0.00  0.00     0.035 C 
BRANCH  12  13
ATOM     13  C   UNL d   1     -45.537  12.622  22.757  0.00  0.00     0.006 A 
ATOM     14  C   UNL d   1     -44.934  12.058  22.704  0.00  0.00     0.001 A 
ATOM     15  C   UNL d   1     -44.288  12.201  22.211  0.00  0.00     0.000 A 
ATOM     16  C   UNL d   1     -44.248  12.901  21.777  0.00  0.00     0.000 A 
ATOM     17  C   UNL d   1     -44.855  13.459  21.835  0.00  0.00     0.000 A 
ATOM     18  C   UNL d   1     -45.501  13.317  22.328  0.00  0.00     0.001 A 
ENDBRANCH  12  13
ENDBRANCH  11  12
ENDBRANCH  10  11
ENDBRANCH   3  10
TORSDOF 4
ENDMDL
MODEL 8
REMARK VINA RESULT:      -4.6      8.023      9.359
REMARK  4 active torsions:
REMARK  status: ('A' for Active; 'I' for Inactive)
REMARK    1  A    between atoms: C_7  and  C_3 
REMARK    2  A    between atoms: S_6  and  C_7 
REMARK    3  A    between atoms: C_9  and  S_6 
REMARK    4  A    between atoms: C_8  and  C_9 
ROOT
ATOM      1  N   UNL d   1     -39.412  14.676  17.487  0.00  0.00    -0.225 NA
ATOM      2  N   UNL d   1     -38.903  13.451  17.790  0.00  0.00    -0.225 NA
ATOM      3  C   UNL d   1     -39.387  14.074  18.072  0.00  0.00     0.169 A 
ATOM      4  C   UNL d   1     -38.941  14.416  16.848  0.00  0.00     0.101 A 
ATOM      5  C   UNL d   1     -38.625  13.664  17.026  0.00  0.00     0.101 A 
ATOM      6  C   UNL d   1     -38.761  14.777  16.116  0.00  0.00     0.021 A 
ATOM      7  C   UNL d   1     -38.134  13.289  16.470  0.00  0.00     0.021 A 
ATOM      8  C   UNL d   1     -37.963  13.650  15.757  0.00  0.00     0.002 A 
ATOM      9  C   UNL d   1     -38.277  14.395  15.580  0.00  0.00     0.002 A 
ENDROOT
BRANCH   3  10
ATOM     10  C   UNL d   1     -39.875  14.457  18.616  0.00  0.00     0.074 C 
BRANCH  10  11
ATOM     11  S   UNL d   1     -39.697  14.426  19.421  0.00  0.00    -0.083 SA
BRANCH  11  12
ATOM     12  C   UNL d   1     -40.245  14.699  19.974  0.00  0.00     0.035 C 
BRANCH  12  13
ATOM     13  C   UNL d   1     -39.993  14.918  20.729  0.00  0.00     0.006 A 
ATOM     14  C   UNL d   1     -40.075  15.703  20.973  0.00  0.00     0.001 A 
ATOM     15  C   UNL d   1     -39.823  15.922  21.728  0.00  0.00     0.000 A 
ATOM     16  C   UNL d   1     -39.494  15.357  22.231  0.00  0.00     0.000 A 
ATOM     17  C   UNL d   1     -39.416  14.573  21.980  0.00  0.00     0.000 A 
ATOM     18  C   UNL d   1     -39.667  14.355  21.225  0.00  0.00     0.001 A 
ENDBRANCH  12  13
ENDBRANCH  11  12
ENDBRANCH  10  11
ENDBRANCH   3  10
TORSDOF 4
ENDMDL
MODEL 9
REMARK VINA RESULT:      -4.3      8.171      9.932
REMARK  4 active torsions:
REMARK  status: ('A' for Active; 'I' for Inactive)
REMARK    1  A    between atoms: C_7  and  C_3 
REMARK    2  A    between atoms: S_6  and  C_7 
REMARK    3  A    between atoms: C_9  and  S_6 
REMARK    4  A    between atoms: C_8  and  C_9 
ROOT
ATOM      1  N   UNL d   1     -39.117  14.422  19.569  0.00  0.00    -0.225 NA
ATOM      2  N   UNL d   1     -40.287  14.317  18.881  0.00  0.00    -0.225 NA
ATOM      3  C   UNL d   1     -39.452  14.303  18.808  0.00  0.00     0.169 A 
ATOM      4  C   UNL d   1     -39.753  14.509  20.105  0.00  0.00     0.101 A 
ATOM      5  C   UNL d   1     -40.474  14.445  19.690  0.00  0.00     0.101 A 
ATOM      6  C   UNL d   1     -39.761  14.639  20.930  0.00  0.00     0.021 A 
ATOM      7  C   UNL d   1     -41.189  14.514  20.108  0.00  0.00     0.021 A 
ATOM      8  C   UNL d   1     -41.188  14.641  20.916  0.00  0.00     0.002 A 
ATOM      9  C   UNL d   1     -40.473  14.704  21.327  0.00  0.00     0.002 A 
ENDROOT
BRANCH   3  10
ATOM     10  C   UNL d   1     -38.736  14.237  18.404  0.00  0.00     0.074 C 
BRANCH  10  11
ATOM     11  S   UNL d   1     -38.727  14.246  17.580  0.00  0.00    -0.083 SA
BRANCH  11  12
ATOM     12  C   UNL d   1     -38.012  14.167  17.175  0.00  0.00     0.035 C 
BRANCH  12  13
ATOM     13  C   UNL d   1     -37.996  14.223  16.353  0.00  0.00     0.006 A 
ATOM     14  C   UNL d   1     -38.022  14.968  15.995  0.00  0.00     0.001 A 
ATOM     15  C   UNL d   1     -38.006  15.024  15.172  0.00  0.00     0.000 A 
ATOM     16  C   UNL d   1     -37.965  14.339  14.714  0.00  0.00     0.000 A 
ATOM     17  C   UNL d   1     -37.940  13.597  15.079  0.00  0.00     0.000 A 
ATOM     18  C   UNL d   1     -37.955  13.542  15.902  0.00  0.00     0.001 A 
ENDBRANCH  12  13
ENDBRANCH  11  12
ENDBRANCH  10  11
ENDBRANCH   3  10
TORSDOF 4
ENDMDL
