MODEL 1
REMARK VINA RESULT:       0.9      0.000      0.000
REMARK  4 active torsions:
REMARK  status: ('A' for Active; 'I' for Inactive)
REMARK    1  A    between atoms: N_10  and  C_3 
REMARK    2  A    between atoms: C_11  and  C_4 
REMARK    3  A    between atoms: C_17  and  N_10 
REMARK       I    between atoms: C_12  and  N_13 
REMARK    4  A    between atoms: N_13  and  C_18 
ROOT
ATOM      1  C   UNL d   1      56.577  -0.181  33.121  0.00  0.00     0.168 A 
ATOM      2  N   UNL d   1      57.088  -0.281  32.461  0.00  0.00    -0.184 N 
ATOM      3  C   UNL d   1      56.855  -0.755  31.865  0.00  0.00     0.218 A 
ATOM      4  C   UNL d   1      56.796   0.293  33.729  0.00  0.00     0.057 A 
ATOM      5  N   UNL d   1      58.016   0.584  33.065  0.00  0.00    -0.160 NA
ATOM      6  N   UNL d   1      55.869  -0.562  33.140  0.00  0.00    -0.227 NA
ATOM      7  C   UNL d   1      56.141  -1.145  31.875  0.00  0.00     0.071 A 
ATOM      8  C   UNL d   1      57.521   0.681  33.705  0.00  0.00     0.124 A 
ATOM      9  C   UNL d   1      55.638  -1.046  32.526  0.00  0.00     0.087 A 
ATOM     10  C   UNL d   1      54.890  -1.449  32.546  0.00  0.00     0.021 C 
ENDROOT
BRANCH   3  11
ATOM     11  N   UNL d   1      57.368  -0.858  31.196  0.00  0.00    -0.383 NA
BRANCH  11  12
ATOM     12  C   UNL d   1      57.948  -0.996  30.607  0.00  0.00     0.134 A 
ATOM     13  C   UNL d   1      58.344  -0.362  30.240  0.00  0.00     0.034 A 
ATOM     14  C   UNL d   1      58.937  -0.514  29.638  0.00  0.00     0.022 A 
ATOM     15  C   UNL d   1      59.120  -1.304  29.417  0.00  0.00     0.085 A 
ATOM     16  C   UNL d   1      58.722  -1.952  29.787  0.00  0.00     0.022 A 
ATOM     17  C   UNL d   1      58.131  -1.805  30.387  0.00  0.00     0.034 A 
BRANCH  15  18
ATOM     18  N   UNL d   1      59.704  -1.453  28.824  0.00  0.00    -0.208 NA
ATOM     19  C   UNL d   1      60.515  -1.549  29.040  0.00  0.00     0.279 C 
ATOM     20  O   UNL d   1      61.095  -1.696  28.455  0.00  0.00    -0.265 OA
ATOM     21  C   UNL d   1      60.743  -1.497  29.853  0.00  0.00     0.068 C 
ENDBRANCH  15  18
ENDBRANCH  11  12
ENDBRANCH   3  11
BRANCH   4  22
ATOM     22  C   UNL d   1      56.301   0.389  34.369  0.00  0.00     0.005 A 
ATOM     23  C   UNL d   1      55.525   0.569  34.252  0.00  0.00     0.001 A 
ATOM     24  C   UNL d   1      55.030   0.665  34.892  0.00  0.00     0.011 A 
ATOM     25  C   UNL d   1      55.319   0.581  35.638  0.00  0.00     0.058 A 
ATOM     26  C   UNL d   1      56.103   0.400  35.745  0.00  0.00     0.011 A 
ATOM     27 CL   UNL d   1      54.801   0.682  36.308  0.00  0.00    -0.082 Cl
ATOM     28  C   UNL d   1      56.590   0.305  35.116  0.00  0.00     0.001 A 
ENDBRANCH   4  22
TORSDOF 4
ENDMDL
