MODEL 1
REMARK VINA RESULT:      -3.7      0.000      0.000
REMARK  7 active torsions:
REMARK  status: ('A' for Active; 'I' for Inactive)
REMARK    1  A    between atoms: S_3  and  N_12 
REMARK    2  A    between atoms: C_16  and  S_3 
REMARK    3  A    between atoms: C_17  and  C_7 
REMARK    4  A    between atoms: O_19  and  C_8 
REMARK    5  A    between atoms: O_20  and  C_11 
REMARK    6  A    between atoms: N_12  and  C_18 
REMARK    7  A    between atoms: C_18  and  C_17 
ROOT
ATOM      1  N   UNL d   1      59.040  -0.044  30.127  0.00  0.00    -0.206 NA
ATOM      2  C   UNL d   1      58.716  -1.362  29.684  0.00  0.00     0.042 A 
ATOM      3  C   UNL d   1      59.236  -0.721  29.703  0.00  0.00     0.109 A 
ATOM      4  C   UNL d   1      57.998  -1.328  30.089  0.00  0.00     0.008 A 
ATOM      5  C   UNL d   1      58.319  -0.002  30.537  0.00  0.00     0.279 A 
ATOM      6  C   UNL d   1      57.799  -0.643  30.518  0.00  0.00     0.060 A 
ATOM      7  C   UNL d   1      58.912  -2.040  29.259  0.00  0.00     0.096 A 
ATOM      8  C   UNL d   1      59.952  -0.759  29.298  0.00  0.00     0.112 A 
ATOM      9  O   UNL d   1      58.122   0.675  30.961  0.00  0.00    -0.265 OA
ATOM     10  C   UNL d   1      59.628  -2.077  28.855  0.00  0.00     0.026 A 
ATOM     11  C   UNL d   1      60.148  -1.436  28.874  0.00  0.00     0.028 A 
ENDROOT
BRANCH   6  12
ATOM     12  C   UNL d   1      57.080  -0.604  30.926  0.00  0.00     0.026 C 
BRANCH  12  13
ATOM     13  C   UNL d   1      57.013  -0.943  31.673  0.00  0.00     0.112 C 
BRANCH  13  14
ATOM     14  N   UNL d   1      56.276  -1.195  31.943  0.00  0.00    -0.157 NA
BRANCH  14  15
ATOM     15  S   UNL d   1      56.105  -1.152  32.751  0.00  0.00     0.286 S 
ATOM     16  O   UNL d   1      55.985  -1.303  33.553  0.00  0.00    -0.198 OA
ATOM     17  O   UNL d   1      56.331  -1.934  32.625  0.00  0.00    -0.198 OA
BRANCH  15  18
ATOM     18  C   UNL d   1      55.880  -0.362  32.858  0.00  0.00     0.117 C 
ATOM     19  C   UNL d   1      55.412  -0.147  33.500  0.00  0.00     0.014 C 
ENDBRANCH  15  18
ENDBRANCH  14  15
ENDBRANCH  13  14
ENDBRANCH  12  13
ENDBRANCH   6  12
BRANCH   7  20
ATOM     20  O   UNL d   1      58.398  -2.675  29.240  0.00  0.00    -0.328 OA
ATOM     21  C   UNL d   1      58.641  -3.393  28.911  0.00  0.00     0.181 C 
ENDBRANCH   7  20
BRANCH   8  22
ATOM     22  O   UNL d   1      60.471  -0.119  29.317  0.00  0.00    -0.327 OA
ATOM     23  C   UNL d   1      61.125  -0.102  28.804  0.00  0.00     0.181 C 
ENDBRANCH   8  22
TORSDOF 7
ENDMDL
MODEL 2
REMARK VINA RESULT:      -2.0      1.940      2.110
REMARK  7 active torsions:
REMARK  status: ('A' for Active; 'I' for Inactive)
REMARK    1  A    between atoms: S_3  and  N_12 
REMARK    2  A    between atoms: C_16  and  S_3 
REMARK    3  A    between atoms: C_17  and  C_7 
REMARK    4  A    between atoms: O_19  and  C_8 
REMARK    5  A    between atoms: O_20  and  C_11 
REMARK    6  A    between atoms: N_12  and  C_18 
REMARK    7  A    between atoms: C_18  and  C_17 
ROOT
ATOM      1  N   UNL d   1      59.082   0.676  31.851  0.00  0.00    -0.206 NA
ATOM      2  C   UNL d   1      58.369   0.675  30.614  0.00  0.00     0.042 A 
ATOM      3  C   UNL d   1      59.083   0.675  31.028  0.00  0.00     0.109 A 
ATOM      4  C   UNL d   1      57.651   0.678  31.021  0.00  0.00     0.008 A 
ATOM      5  C   UNL d   1      58.364   0.678  32.268  0.00  0.00     0.279 A 
ATOM      6  C   UNL d   1      57.651   0.679  31.854  0.00  0.00     0.060 A 
ATOM      7  C   UNL d   1      58.370   0.674  29.790  0.00  0.00     0.096 A 
ATOM      8  C   UNL d   1      59.797   0.672  30.618  0.00  0.00     0.112 A 
ATOM      9  O   UNL d   1      58.363   0.680  33.091  0.00  0.00    -0.265 OA
ATOM     10  C   UNL d   1      59.084   0.672  29.381  0.00  0.00     0.026 A 
ATOM     11  C   UNL d   1      59.798   0.671  29.795  0.00  0.00     0.028 A 
ENDROOT
BRANCH   6  12
ATOM     12  C   UNL d   1      56.934   0.681  32.267  0.00  0.00     0.026 C 
BRANCH  12  13
ATOM     13  C   UNL d   1      56.589  -0.030  32.496  0.00  0.00     0.112 C 
BRANCH  13  14
ATOM     14  N   UNL d   1      55.781  -0.063  32.652  0.00  0.00    -0.157 NA
BRANCH  14  15
ATOM     15  S   UNL d   1      55.493  -0.626  33.185  0.00  0.00     0.286 S 
ATOM     16  O   UNL d   1      55.266  -1.316  33.576  0.00  0.00    -0.198 OA
ATOM     17  O   UNL d   1      55.773  -1.065  32.546  0.00  0.00    -0.198 OA
BRANCH  15  18
ATOM     18  C   UNL d   1      55.217  -0.167  33.817  0.00  0.00     0.117 C 
ATOM     19  C   UNL d   1      54.442  -0.251  34.082  0.00  0.00     0.014 C 
ENDBRANCH  15  18
ENDBRANCH  14  15
ENDBRANCH  13  14
ENDBRANCH  12  13
ENDBRANCH   6  12
BRANCH   7  20
ATOM     20  O   UNL d   1      57.663   0.675  29.380  0.00  0.00    -0.328 OA
ATOM     21  C   UNL d   1      57.657   0.517  28.569  0.00  0.00     0.181 C 
ENDBRANCH   7  20
BRANCH   8  22
ATOM     22  O   UNL d   1      60.511   0.671  31.032  0.00  0.00    -0.327 OA
ATOM     23  C   UNL d   1      61.112   0.140  30.817  0.00  0.00     0.181 C 
ENDBRANCH   8  22
TORSDOF 7
ENDMDL
MODEL 3
REMARK VINA RESULT:      -1.4      1.814      4.860
REMARK  7 active torsions:
REMARK  status: ('A' for Active; 'I' for Inactive)
REMARK    1  A    between atoms: S_3  and  N_12 
REMARK    2  A    between atoms: C_16  and  S_3 
REMARK    3  A    between atoms: C_17  and  C_7 
REMARK    4  A    between atoms: O_19  and  C_8 
REMARK    5  A    between atoms: O_20  and  C_11 
REMARK    6  A    between atoms: N_12  and  C_18 
REMARK    7  A    between atoms: C_18  and  C_17 
ROOT
ATOM      1  N   UNL d   1      56.682  -1.154  31.500  0.00  0.00    -0.206 NA
ATOM      2  C   UNL d   1      57.107  -0.240  32.510  0.00  0.00     0.042 A 
ATOM      3  C   UNL d   1      56.639  -0.876  32.273  0.00  0.00     0.109 A 
ATOM      4  C   UNL d   1      57.620   0.123  31.975  0.00  0.00     0.008 A 
ATOM      5  C   UNL d   1      57.196  -0.795  30.955  0.00  0.00     0.279 A 
ATOM      6  C   UNL d   1      57.664  -0.158  31.193  0.00  0.00     0.060 A 
ATOM      7  C   UNL d   1      57.064   0.038  33.285  0.00  0.00     0.096 A 
ATOM      8  C   UNL d   1      56.128  -1.235  32.810  0.00  0.00     0.112 A 
ATOM      9  O   UNL d   1      57.240  -1.072  30.181  0.00  0.00    -0.265 OA
ATOM     10  C   UNL d   1      56.552  -0.321  33.820  0.00  0.00     0.026 A 
ATOM     11  C   UNL d   1      56.084  -0.958  33.583  0.00  0.00     0.028 A 
ENDROOT
BRANCH   6  12
ATOM     12  C   UNL d   1      58.177   0.201  30.652  0.00  0.00     0.026 C 
BRANCH  12  13
ATOM     13  C   UNL d   1      58.987   0.064  30.701  0.00  0.00     0.112 C 
BRANCH  13  14
ATOM     14  N   UNL d   1      59.509   0.533  30.269  0.00  0.00    -0.157 NA
BRANCH  14  15
ATOM     15  S   UNL d   1      60.296   0.293  30.186  0.00  0.00     0.286 S 
ATOM     16  O   UNL d   1      61.101   0.140  30.283  0.00  0.00    -0.198 OA
ATOM     17  O   UNL d   1      60.268   0.673  30.917  0.00  0.00    -0.198 OA
BRANCH  15  18
ATOM     18  C   UNL d   1      60.304  -0.085  29.449  0.00  0.00     0.117 C 
ATOM     19  C   UNL d   1      61.018  -0.220  29.061  0.00  0.00     0.014 C 
ENDBRANCH  15  18
ENDBRANCH  14  15
ENDBRANCH  13  14
ENDBRANCH  12  13
ENDBRANCH   6  12
BRANCH   7  20
ATOM     20  O   UNL d   1      57.527   0.669  33.520  0.00  0.00    -0.328 OA
ATOM     21  C   UNL d   1      57.849   0.682  34.281  0.00  0.00     0.181 C 
ENDBRANCH   7  20
BRANCH   8  22
ATOM     22  O   UNL d   1      55.660  -1.872  32.573  0.00  0.00    -0.327 OA
ATOM     23  C   UNL d   1      54.937  -2.018  32.955  0.00  0.00     0.181 C 
ENDBRANCH   8  22
TORSDOF 7
ENDMDL
MODEL 4
REMARK VINA RESULT:      -0.8      8.440      8.996
REMARK  7 active torsions:
REMARK  status: ('A' for Active; 'I' for Inactive)
REMARK    1  A    between atoms: S_3  and  N_12 
REMARK    2  A    between atoms: C_16  and  S_3 
REMARK    3  A    between atoms: C_17  and  C_7 
REMARK    4  A    between atoms: O_19  and  C_8 
REMARK    5  A    between atoms: O_20  and  C_11 
REMARK    6  A    between atoms: N_12  and  C_18 
REMARK    7  A    between atoms: C_18  and  C_17 
ROOT
ATOM      1  N   UNL d   1      60.056  -9.776  31.118  0.00  0.00    -0.206 NA
ATOM      2  C   UNL d   1      58.705  -9.791  31.578  0.00  0.00     0.042 A 
ATOM      3  C   UNL d   1      59.249  -9.790  30.958  0.00  0.00     0.109 A 
ATOM      4  C   UNL d   1      58.965  -9.779  32.361  0.00  0.00     0.008 A 
ATOM      5  C   UNL d   1      60.326  -9.763  31.903  0.00  0.00     0.279 A 
ATOM      6  C   UNL d   1      59.782  -9.764  32.524  0.00  0.00     0.060 A 
ATOM      7  C   UNL d   1      57.897  -9.805  31.419  0.00  0.00     0.096 A 
ATOM      8  C   UNL d   1      58.985  -9.802  30.178  0.00  0.00     0.112 A 
ATOM      9  O   UNL d   1      61.133  -9.749  32.064  0.00  0.00    -0.265 OA
ATOM     10  C   UNL d   1      57.634  -9.818  30.639  0.00  0.00     0.026 A 
ATOM     11  C   UNL d   1      58.178  -9.816  30.019  0.00  0.00     0.028 A 
ENDROOT
BRANCH   6  12
ATOM     12  C   UNL d   1      60.048  -9.752  33.307  0.00  0.00     0.026 C 
BRANCH  12  13
ATOM     13  C   UNL d   1      59.921  -9.085  33.773  0.00  0.00     0.112 C 
BRANCH  13  14
ATOM     14  N   UNL d   1      60.132  -9.097  34.570  0.00  0.00    -0.157 NA
BRANCH  14  15
ATOM     15  S   UNL d   1      59.868  -8.491  35.067  0.00  0.00     0.286 S 
ATOM     16  O   UNL d   1      59.747  -7.781  35.471  0.00  0.00    -0.198 OA
ATOM     17  O   UNL d   1      60.476  -8.151  34.627  0.00  0.00    -0.198 OA
BRANCH  15  18
ATOM     18  C   UNL d   1      59.259  -8.850  35.500  0.00  0.00     0.117 C 
ATOM     19  C   UNL d   1      59.118  -8.628  36.280  0.00  0.00     0.014 C 
ENDBRANCH  15  18
ENDBRANCH  14  15
ENDBRANCH  13  14
ENDBRANCH  12  13
ENDBRANCH   6  12
BRANCH   7  20
ATOM     20  O   UNL d   1      57.358  -9.807  32.033  0.00  0.00    -0.328 OA
ATOM     21  C   UNL d   1      56.722  -9.278  32.024  0.00  0.00     0.181 C 
ENDBRANCH   7  20
BRANCH   8  22
ATOM     22  O   UNL d   1      59.529  -9.801  29.558  0.00  0.00    -0.327 OA
ATOM     23  C   UNL d   1      59.538  -9.170  29.018  0.00  0.00     0.181 C 
ENDBRANCH   8  22
TORSDOF 7
ENDMDL
