MODEL 1
REMARK VINA RESULT:      32.1      0.000      0.000
REMARK  6 active torsions:
REMARK  status: ('A' for Active; 'I' for Inactive)
REMARK    1  A    between atoms: C_9  and  C_1 
REMARK    2  A    between atoms: N_4  and  C_2 
REMARK       I    between atoms: C_5  and  N_4 
REMARK    3  A    between atoms: C_7  and  C_5 
REMARK    4  A    between atoms: O_13  and  C_9 
REMARK    5  A    between atoms: O_16  and  C_11 
REMARK    6  A    between atoms: C_19  and  O_13 
ROOT
ATOM      1  C   UNL d   1      46.309 -18.442  42.489  0.00  0.00     0.181 A 
ATOM      2  C   UNL d   1      46.424 -18.152  43.260  0.00  0.00     0.115 A 
ATOM      3  O   UNL d   1      46.303 -19.269  42.540  0.00  0.00    -0.300 OA
ATOM      4  C   UNL d   1      46.486 -18.792  43.766  0.00  0.00     0.043 A 
ATOM      5  C   UNL d   1      46.411 -19.486  43.323  0.00  0.00     0.102 A 
ATOM      6  C   UNL d   1      46.602 -18.837  44.582  0.00  0.00     0.004 A 
ATOM      7  C   UNL d   1      46.452 -20.216  43.693  0.00  0.00     0.025 A 
ATOM      8  C   UNL d   1      46.644 -19.576  44.955  0.00  0.00     0.000 A 
ATOM      9  C   UNL d   1      46.567 -20.265  44.503  0.00  0.00     0.002 A 
ENDROOT
BRANCH   2  10
ATOM     10  N   UNL d   1      46.468 -17.350  43.474  0.00  0.00    -0.206 NA
ATOM     11  C   UNL d   1      45.803 -16.970  43.777  0.00  0.00     0.281 C 
ATOM     12  O   UNL d   1      45.095 -17.381  43.868  0.00  0.00    -0.265 OA
BRANCH  11  13
ATOM     13  C   UNL d   1      45.847 -16.177  43.988  0.00  0.00     0.080 A 
ATOM     14  C   UNL d   1      45.316 -15.863  44.551  0.00  0.00     0.099 A 
ATOM     15  C   UNL d   1      45.369 -15.072  44.753  0.00  0.00     0.024 A 
ATOM     16  C   UNL d   1      45.948 -14.590  44.401  0.00  0.00     0.002 A 
ATOM     17  C   UNL d   1      46.463 -14.906  43.851  0.00  0.00     0.000 A 
ATOM     18  C   UNL d   1      46.416 -15.697  43.642  0.00  0.00     0.007 A 
BRANCH  14  19
ATOM     19  O   UNL d   1      44.752 -16.352  44.889  0.00  0.00    -0.328 OA
ATOM     20  C   UNL d   1      43.978 -16.073  44.953  0.00  0.00     0.181 C 
ENDBRANCH  14  19
ENDBRANCH  11  13
ENDBRANCH   2  10
BRANCH   1  21
ATOM     21  C   UNL d   1      46.218 -17.990  41.805  0.00  0.00     0.325 C 
ATOM     22  O   UNL d   1      46.646 -17.287  41.715  0.00  0.00    -0.257 OA
BRANCH  21  23
ATOM     23  O   UNL d   1      45.706 -18.240  41.218  0.00  0.00    -0.269 OA
BRANCH  23  24
ATOM     24  C   UNL d   1      45.897 -18.115  40.419  0.00  0.00     0.126 C 
ATOM     25  C   UNL d   1      45.331 -17.784  39.909  0.00  0.00     0.029 C 
ENDBRANCH  23  24
ENDBRANCH  21  23
ENDBRANCH   1  21
TORSDOF 6
ENDMDL
