MODEL 1
REMARK VINA RESULT:      85.0      0.000      0.000
REMARK  9 active torsions:
REMARK  status: ('A' for Active; 'I' for Inactive)
REMARK    1  A    between atoms: C_2  and  N_1 
REMARK    2  A    between atoms: C_4  and  C_2 
REMARK    3  A    between atoms: C_6  and  C_2 
REMARK    4  A    between atoms: C_8  and  N_3 
REMARK       I    between atoms: C_5  and  N_7 
REMARK    5  A    between atoms: O_17  and  C_5 
REMARK    6  A    between atoms: N_7  and  C_6 
REMARK    7  A    between atoms: C_22  and  O_17 
REMARK    8  A    between atoms: O_26  and  C_21 
REMARK    9  A    between atoms: C_25  and  C_22 
ROOT
ATOM      1  C   UNL d   1     -49.287  27.232  35.092  0.00  0.00     0.107 C 
ENDROOT
BRANCH   1   2
ATOM      2  N   UNL d   1     -48.959  27.996  35.043  0.00  0.00    -0.298 N 
ATOM      3  C   UNL d   1     -48.566  28.315  35.685  0.00  0.00     0.100 A 
ATOM      4  C   UNL d   1     -48.238  29.080  35.635  0.00  0.00     0.100 A 
ATOM      5  N   UNL d   1     -48.312  29.511  34.936  0.00  0.00    -0.301 N 
ATOM      6  C   UNL d   1     -48.713  29.176  34.290  0.00  0.00     0.100 A 
ATOM      7  C   UNL d   1     -49.032  28.427  34.343  0.00  0.00     0.100 A 
BRANCH   5   8
ATOM      8  C   UNL d   1     -47.997  30.253  34.879  0.00  0.00     0.064 A 
ATOM      9  C   UNL d   1     -47.180  30.362  34.911  0.00  0.00     0.020 A 
ATOM     10  C   UNL d   1     -46.862  31.122  34.852  0.00  0.00     0.026 A 
ATOM     11  C   UNL d   1     -47.363  31.772  34.762  0.00  0.00     0.094 A 
ATOM     12  C   UNL d   1     -48.180  31.663  34.730  0.00  0.00     0.026 A 
ATOM     13  C   UNL d   1     -48.493  30.904  34.789  0.00  0.00     0.020 A 
BRANCH  11  14
ATOM     14  O   UNL d   1     -47.038  32.542  34.702  0.00  0.00    -0.328 OA
ATOM     15  C   UNL d   1     -47.491  33.140  34.365  0.00  0.00     0.181 C 
ENDBRANCH  11  14
ENDBRANCH   5   8
ENDBRANCH   1   2
BRANCH   1  16
ATOM     16  C   UNL d   1     -49.847  27.067  35.694  0.00  0.00     0.118 A 
ATOM     17  O   UNL d   1     -49.786  26.669  36.418  0.00  0.00    -0.304 OA
ATOM     18  C   UNL d   1     -50.537  26.688  36.772  0.00  0.00     0.123 A 
ATOM     19  C   UNL d   1     -51.049  27.087  36.279  0.00  0.00     0.029 A 
ATOM     20  C   UNL d   1     -50.622  27.324  35.608  0.00  0.00     0.028 A 
ENDBRANCH   1  16
BRANCH   1  21
ATOM     21  C   UNL d   1     -49.073  26.638  34.564  0.00  0.00     0.124 C 
BRANCH  21  22
ATOM     22  N   UNL d   1     -49.667  26.240  34.126  0.00  0.00    -0.183 NA
ATOM     23  C   UNL d   1     -49.496  25.547  33.736  0.00  0.00     0.392 C 
ATOM     24  O   UNL d   1     -48.731  25.231  33.770  0.00  0.00    -0.236 OA
BRANCH  23  25
ATOM     25  O   UNL d   1     -50.086  25.162  33.308  0.00  0.00    -0.256 OA
BRANCH  25  26
ATOM     26  C   UNL d   1     -50.856  25.460  33.306  0.00  0.00     0.128 C 
BRANCH  26  27
ATOM     27  C   UNL d   1     -51.499  24.943  33.311  0.00  0.00     0.025 A 
ATOM     28  C   UNL d   1     -52.268  25.242  33.318  0.00  0.00     0.002 A 
ATOM     29  C   UNL d   1     -52.911  24.724  33.323  0.00  0.00     0.000 A 
ATOM     30  C   UNL d   1     -52.784  23.908  33.322  0.00  0.00     0.000 A 
ATOM     31  C   UNL d   1     -52.018  23.614  33.315  0.00  0.00     0.000 A 
ATOM     32  C   UNL d   1     -51.372  24.127  33.310  0.00  0.00     0.002 A 
ENDBRANCH  26  27
ENDBRANCH  25  26
ENDBRANCH  23  25
ENDBRANCH  21  22
ENDBRANCH   1  21
TORSDOF 9
ENDMDL
MODEL 2
REMARK VINA RESULT:      87.1      1.571      3.011
REMARK  9 active torsions:
REMARK  status: ('A' for Active; 'I' for Inactive)
REMARK    1  A    between atoms: C_2  and  N_1 
REMARK    2  A    between atoms: C_4  and  C_2 
REMARK    3  A    between atoms: C_6  and  C_2 
REMARK    4  A    between atoms: C_8  and  N_3 
REMARK       I    between atoms: C_5  and  N_7 
REMARK    5  A    between atoms: O_17  and  C_5 
REMARK    6  A    between atoms: N_7  and  C_6 
REMARK    7  A    between atoms: C_22  and  O_17 
REMARK    8  A    between atoms: O_26  and  C_21 
REMARK    9  A    between atoms: C_25  and  C_22 
ROOT
ATOM      1  C   UNL d   1     -49.301  27.645  35.088  0.00  0.00     0.107 C 
ENDROOT
BRANCH   1   2
ATOM      2  N   UNL d   1     -48.978  28.407  34.996  0.00  0.00    -0.298 N 
ATOM      3  C   UNL d   1     -48.279  28.604  35.371  0.00  0.00     0.100 A 
ATOM      4  C   UNL d   1     -47.955  29.366  35.279  0.00  0.00     0.100 A 
ATOM      5  N   UNL d   1     -48.345  29.920  34.807  0.00  0.00    -0.301 N 
ATOM      6  C   UNL d   1     -49.055  29.708  34.430  0.00  0.00     0.100 A 
ATOM      7  C   UNL d   1     -49.367  28.961  34.524  0.00  0.00     0.100 A 
BRANCH   5   8
ATOM      8  C   UNL d   1     -48.039  30.662  34.711  0.00  0.00     0.064 A 
ATOM      9  C   UNL d   1     -47.386  30.904  35.154  0.00  0.00     0.020 A 
ATOM     10  C   UNL d   1     -47.077  31.662  35.053  0.00  0.00     0.026 A 
ATOM     11  C   UNL d   1     -47.421  32.179  34.509  0.00  0.00     0.094 A 
ATOM     12  C   UNL d   1     -48.074  31.937  34.066  0.00  0.00     0.026 A 
ATOM     13  C   UNL d   1     -48.379  31.180  34.170  0.00  0.00     0.020 A 
BRANCH  11  14
ATOM     14  O   UNL d   1     -47.105  32.949  34.408  0.00  0.00    -0.328 OA
ATOM     15  C   UNL d   1     -47.076  33.271  33.652  0.00  0.00     0.181 C 
ENDBRANCH  11  14
ENDBRANCH   5   8
ENDBRANCH   1   2
BRANCH   1  16
ATOM     16  C   UNL d   1     -49.517  27.209  34.405  0.00  0.00     0.118 A 
ATOM     17  O   UNL d   1     -49.077  26.752  33.873  0.00  0.00    -0.304 OA
ATOM     18  C   UNL d   1     -49.607  26.458  33.306  0.00  0.00     0.123 A 
ATOM     19  C   UNL d   1     -50.356  26.726  33.483  0.00  0.00     0.029 A 
ATOM     20  C   UNL d   1     -50.303  27.193  34.167  0.00  0.00     0.028 A 
ENDBRANCH   1  16
BRANCH   1  21
ATOM     21  C   UNL d   1     -49.411  27.313  35.833  0.00  0.00     0.124 C 
BRANCH  21  22
ATOM     22  N   UNL d   1     -50.189  27.159  36.106  0.00  0.00    -0.183 NA
ATOM     23  C   UNL d   1     -50.339  27.088  36.903  0.00  0.00     0.392 C 
ATOM     24  O   UNL d   1     -49.721  27.168  37.448  0.00  0.00    -0.236 OA
BRANCH  23  25
ATOM     25  O   UNL d   1     -51.106  26.936  37.162  0.00  0.00    -0.256 OA
BRANCH  25  26
ATOM     26  C   UNL d   1     -51.250  26.793  37.963  0.00  0.00     0.128 C 
BRANCH  26  27
ATOM     27  C   UNL d   1     -51.775  26.197  38.188  0.00  0.00     0.025 A 
ATOM     28  C   UNL d   1     -51.543  25.634  38.745  0.00  0.00     0.002 A 
ATOM     29  C   UNL d   1     -52.068  25.038  38.970  0.00  0.00     0.000 A 
ATOM     30  C   UNL d   1     -52.823  25.005  38.638  0.00  0.00     0.000 A 
ATOM     31  C   UNL d   1     -53.050  25.567  38.084  0.00  0.00     0.000 A 
ATOM     32  C   UNL d   1     -52.529  26.165  37.856  0.00  0.00     0.002 A 
ENDBRANCH  26  27
ENDBRANCH  25  26
ENDBRANCH  23  25
ENDBRANCH  21  22
ENDBRANCH   1  21
TORSDOF 9
ENDMDL
