MODEL 1
REMARK VINA RESULT:      -3.0      0.000      0.000
REMARK  0 active torsions:
REMARK  status: ('A' for Active; 'I' for Inactive)
ROOT
ATOM      1  C   UNL d   1      32.774  22.099 -20.322  0.00  0.00     0.063 A 
ATOM      2  N   UNL d   1      32.222  21.965 -21.526  0.00  0.00    -0.204 NA
ATOM      3  C   UNL d   1      32.376  22.499 -20.914  0.00  0.00     0.099 A 
ATOM      4  C   UNL d   1      32.520  21.260 -21.307  0.00  0.00     0.318 A 
ATOM      5  C   UNL d   1      32.869  21.314 -20.562  0.00  0.00     0.254 A 
ATOM      6  C   UNL d   1      32.203  23.286 -20.833  0.00  0.00     0.076 A 
ATOM      7  C   UNL d   1      32.429  23.692 -20.145  0.00  0.00     0.024 A 
ATOM      8  C   UNL d   1      32.999  22.486 -19.647  0.00  0.00     0.016 A 
ATOM      9  O   UNL d   1      32.473  20.577 -21.782  0.00  0.00    -0.262 OA
ATOM     10  C   UNL d   1      32.827  23.292 -19.552  0.00  0.00     0.059 A 
ATOM     11  O   UNL d   1      33.241  20.717 -20.134  0.00  0.00    -0.281 OA
ATOM     12 CL   UNL d   1      31.799  23.691 -21.433  0.00  0.00    -0.081 Cl
ATOM     13 CL   UNL d   1      33.062  23.702 -18.844  0.00  0.00    -0.082 Cl
ENDROOT
TORSDOF 0
ENDMDL
MODEL 2
REMARK VINA RESULT:      -2.8      7.088      7.506
REMARK  0 active torsions:
REMARK  status: ('A' for Active; 'I' for Inactive)
ROOT
ATOM      1  C   UNL d   1      30.442  16.647 -24.060  0.00  0.00     0.063 A 
ATOM      2  N   UNL d   1      30.548  15.585 -23.263  0.00  0.00    -0.204 NA
ATOM      3  C   UNL d   1      30.013  16.092 -23.639  0.00  0.00     0.099 A 
ATOM      4  C   UNL d   1      31.281  15.829 -23.454  0.00  0.00     0.318 A 
ATOM      5  C   UNL d   1      31.246  16.488 -23.948  0.00  0.00     0.254 A 
ATOM      6  C   UNL d   1      29.204  16.110 -23.644  0.00  0.00     0.076 A 
ATOM      7  C   UNL d   1      28.804  16.693 -24.078  0.00  0.00     0.024 A 
ATOM      8  C   UNL d   1      30.063  17.220 -24.486  0.00  0.00     0.016 A 
ATOM      9  O   UNL d   1      31.973  15.455 -23.180  0.00  0.00    -0.262 OA
ATOM     10  C   UNL d   1      29.233  17.248 -24.499  0.00  0.00     0.059 A 
ATOM     11  O   UNL d   1      31.874  16.911 -24.272  0.00  0.00    -0.281 OA
ATOM     12 CL   UNL d   1      28.769  15.547 -23.218  0.00  0.00    -0.081 Cl
ATOM     13 CL   UNL d   1      28.830  17.850 -24.947  0.00  0.00    -0.082 Cl
ENDROOT
TORSDOF 0
ENDMDL
MODEL 3
REMARK VINA RESULT:      -2.8      6.872      7.435
REMARK  0 active torsions:
REMARK  status: ('A' for Active; 'I' for Inactive)
ROOT
ATOM      1  C   UNL d   1      29.949  16.983 -24.233  0.00  0.00     0.063 A 
ATOM      2  N   UNL d   1      29.467  15.934 -23.569  0.00  0.00    -0.204 NA
ATOM      3  C   UNL d   1      30.160  16.318 -23.807  0.00  0.00     0.099 A 
ATOM      4  C   UNL d   1      28.853  16.359 -23.845  0.00  0.00     0.318 A 
ATOM      5  C   UNL d   1      29.123  17.017 -24.262  0.00  0.00     0.254 A 
ATOM      6  C   UNL d   1      30.940  16.139 -23.685  0.00  0.00     0.076 A 
ATOM      7  C   UNL d   1      31.532  16.632 -23.995  0.00  0.00     0.024 A 
ATOM      8  C   UNL d   1      30.518  17.470 -24.539  0.00  0.00     0.016 A 
ATOM      9  O   UNL d   1      28.057  16.148 -23.718  0.00  0.00    -0.262 OA
ATOM     10  C   UNL d   1      31.321  17.298 -24.421  0.00  0.00     0.059 A 
ATOM     11  O   UNL d   1      28.674  17.597 -24.637  0.00  0.00    -0.281 OA
ATOM     12 CL   UNL d   1      31.154  15.464 -23.253  0.00  0.00    -0.081 Cl
ATOM     13 CL   UNL d   1      31.922  17.808 -24.742  0.00  0.00    -0.082 Cl
ENDROOT
TORSDOF 0
ENDMDL
MODEL 4
REMARK VINA RESULT:      -2.6      7.101      7.775
REMARK  0 active torsions:
REMARK  status: ('A' for Active; 'I' for Inactive)
ROOT
ATOM      1  C   UNL d   1      29.088  16.992 -24.194  0.00  0.00     0.063 A 
ATOM      2  N   UNL d   1      30.416  16.991 -24.293  0.00  0.00    -0.204 NA
ATOM      3  C   UNL d   1      29.766  16.591 -23.975  0.00  0.00     0.099 A 
ATOM      4  C   UNL d   1      30.135  17.618 -24.695  0.00  0.00     0.318 A 
ATOM      5  C   UNL d   1      29.312  17.644 -24.650  0.00  0.00     0.254 A 
ATOM      6  C   UNL d   1      29.718  15.922 -23.521  0.00  0.00     0.076 A 
ATOM      7  C   UNL d   1      28.977  15.640 -23.275  0.00  0.00     0.024 A 
ATOM      8  C   UNL d   1      28.361  16.725 -23.960  0.00  0.00     0.016 A 
ATOM      9  O   UNL d   1      30.625  18.160 -25.097  0.00  0.00    -0.262 OA
ATOM     10  C   UNL d   1      28.299  16.042 -23.494  0.00  0.00     0.059 A 
ATOM     11  O   UNL d   1      28.805  18.199 -24.987  0.00  0.00    -0.281 OA
ATOM     12 CL   UNL d   1      30.405  15.516 -23.298  0.00  0.00    -0.081 Cl
ATOM     13 CL   UNL d   1      27.535  15.758 -23.245  0.00  0.00    -0.082 Cl
ENDROOT
TORSDOF 0
ENDMDL
MODEL 5
REMARK VINA RESULT:      -2.6      5.739      6.487
REMARK  0 active torsions:
REMARK  status: ('A' for Active; 'I' for Inactive)
ROOT
ATOM      1  C   UNL d   1      31.918  17.193 -23.662  0.00  0.00     0.063 A 
ATOM      2  N   UNL d   1      31.946  18.309 -24.388  0.00  0.00    -0.204 NA
ATOM      3  C   UNL d   1      31.511  17.625 -24.225  0.00  0.00     0.099 A 
ATOM      4  C   UNL d   1      32.599  18.290 -23.934  0.00  0.00     0.318 A 
ATOM      5  C   UNL d   1      32.608  17.607 -23.472  0.00  0.00     0.254 A 
ATOM      6  C   UNL d   1      30.807  17.355 -24.520  0.00  0.00     0.076 A 
ATOM      7  C   UNL d   1      30.494  16.634 -24.250  0.00  0.00     0.024 A 
ATOM      8  C   UNL d   1      31.622  16.490 -23.393  0.00  0.00     0.016 A 
ATOM      9  O   UNL d   1      33.180  18.888 -23.941  0.00  0.00    -0.262 OA
ATOM     10  C   UNL d   1      30.901  16.202 -23.687  0.00  0.00     0.059 A 
ATOM     11  O   UNL d   1      33.181  17.372 -22.928  0.00  0.00    -0.281 OA
ATOM     12 CL   UNL d   1      30.395  17.792 -25.091  0.00  0.00    -0.081 Cl
ATOM     13 CL   UNL d   1      30.586  15.463 -23.406  0.00  0.00    -0.082 Cl
ENDROOT
TORSDOF 0
ENDMDL
MODEL 6
REMARK VINA RESULT:      -2.5      5.702      6.621
REMARK  0 active torsions:
REMARK  status: ('A' for Active; 'I' for Inactive)
ROOT
ATOM      1  C   UNL d   1      31.514  17.299 -24.028  0.00  0.00     0.063 A 
ATOM      2  N   UNL d   1      31.358  15.977 -24.062  0.00  0.00    -0.204 NA
ATOM      3  C   UNL d   1      31.858  16.587 -23.816  0.00  0.00     0.099 A 
ATOM      4  C   UNL d   1      30.728  16.312 -24.413  0.00  0.00     0.318 A 
ATOM      5  C   UNL d   1      30.798  17.134 -24.407  0.00  0.00     0.254 A 
ATOM      6  C   UNL d   1      32.571  16.575 -23.433  0.00  0.00     0.076 A 
ATOM      7  C   UNL d   1      32.958  17.287 -23.252  0.00  0.00     0.024 A 
ATOM      8  C   UNL d   1      31.883  17.998 -23.857  0.00  0.00     0.016 A 
ATOM      9  O   UNL d   1      30.096  15.874 -24.736  0.00  0.00    -0.262 OA
ATOM     10  C   UNL d   1      32.614  17.999 -23.464  0.00  0.00     0.059 A 
ATOM     11  O   UNL d   1      30.271  17.688 -24.711  0.00  0.00    -0.281 OA
ATOM     12 CL   UNL d   1      32.920  15.854 -23.218  0.00  0.00    -0.081 Cl
ATOM     13 CL   UNL d   1      33.004  18.733 -23.282  0.00  0.00    -0.082 Cl
ENDROOT
TORSDOF 0
ENDMDL
MODEL 7
REMARK VINA RESULT:      -2.4      0.906      1.827
REMARK  0 active torsions:
REMARK  status: ('A' for Active; 'I' for Inactive)
ROOT
ATOM      1  C   UNL d   1      32.815  21.779 -21.421  0.00  0.00     0.063 A 
ATOM      2  N   UNL d   1      32.944  21.328 -20.175  0.00  0.00    -0.204 NA
ATOM      3  C   UNL d   1      32.786  21.998 -20.633  0.00  0.00     0.099 A 
ATOM      4  C   UNL d   1      33.065  20.721 -20.675  0.00  0.00     0.318 A 
ATOM      5  C   UNL d   1      32.991  20.972 -21.456  0.00  0.00     0.254 A 
ATOM      6  C   UNL d   1      32.624  22.763 -20.425  0.00  0.00     0.076 A 
ATOM      7  C   UNL d   1      32.484  23.332 -21.014  0.00  0.00     0.024 A 
ATOM      8  C   UNL d   1      32.680  22.326 -22.002  0.00  0.00     0.016 A 
ATOM      9  O   UNL d   1      33.241  19.947 -20.420  0.00  0.00    -0.262 OA
ATOM     10  C   UNL d   1      32.513  23.113 -21.802  0.00  0.00     0.059 A 
ATOM     11  O   UNL d   1      33.072  20.523 -22.142  0.00  0.00    -0.281 OA
ATOM     12 CL   UNL d   1      32.595  22.985 -19.627  0.00  0.00    -0.081 Cl
ATOM     13 CL   UNL d   1      32.371  23.692 -22.411  0.00  0.00    -0.082 Cl
ENDROOT
TORSDOF 0
ENDMDL
MODEL 8
REMARK VINA RESULT:      -2.3      1.988      2.774
REMARK  0 active torsions:
REMARK  status: ('A' for Active; 'I' for Inactive)
ROOT
ATOM      1  C   UNL d   1      32.754  21.479 -21.284  0.00  0.00     0.063 A 
ATOM      2  N   UNL d   1      32.717  22.637 -21.940  0.00  0.00    -0.204 NA
ATOM      3  C   UNL d   1      32.877  21.829 -22.013  0.00  0.00     0.099 A 
ATOM      4  C   UNL d   1      32.503  22.770 -21.185  0.00  0.00     0.318 A 
ATOM      5  C   UNL d   1      32.518  22.068 -20.754  0.00  0.00     0.254 A 
ATOM      6  C   UNL d   1      33.114  21.384 -22.646  0.00  0.00     0.076 A 
ATOM      7  C   UNL d   1      33.235  20.568 -22.558  0.00  0.00     0.024 A 
ATOM      8  C   UNL d   1      32.869  20.684 -21.187  0.00  0.00     0.016 A 
ATOM      9  O   UNL d   1      32.298  23.524 -20.894  0.00  0.00    -0.262 OA
ATOM     10  C   UNL d   1      33.113  20.218 -21.828  0.00  0.00     0.059 A 
ATOM     11  O   UNL d   1      32.336  21.961 -19.958  0.00  0.00    -0.281 OA
ATOM     12 CL   UNL d   1      33.239  21.739 -23.385  0.00  0.00    -0.081 Cl
ATOM     13 CL   UNL d   1      33.235  19.381 -21.731  0.00  0.00    -0.082 Cl
ENDROOT
TORSDOF 0
ENDMDL
MODEL 9
REMARK VINA RESULT:      -2.1      1.332      1.607
REMARK  0 active torsions:
REMARK  status: ('A' for Active; 'I' for Inactive)
ROOT
ATOM      1  C   UNL d   1      33.222  20.996 -21.120  0.00  0.00     0.063 A 
ATOM      2  N   UNL d   1      33.214  20.757 -22.430  0.00  0.00    -0.204 NA
ATOM      3  C   UNL d   1      33.213  21.352 -21.856  0.00  0.00     0.099 A 
ATOM      4  C   UNL d   1      33.225  20.059 -22.048  0.00  0.00     0.318 A 
ATOM      5  C   UNL d   1      33.230  20.177 -21.232  0.00  0.00     0.254 A 
ATOM      6  C   UNL d   1      33.204  22.159 -21.922  0.00  0.00     0.076 A 
ATOM      7  C   UNL d   1      33.204  22.631 -21.238  0.00  0.00     0.024 A 
ATOM      8  C   UNL d   1      33.223  21.447 -20.448  0.00  0.00     0.016 A 
ATOM      9  O   UNL d   1      33.229  19.323 -22.439  0.00  0.00    -0.262 OA
ATOM     10  C   UNL d   1      33.214  22.275 -20.502  0.00  0.00     0.059 A 
ATOM     11  O   UNL d   1      33.241  19.606 -20.638  0.00  0.00    -0.281 OA
ATOM     12 CL   UNL d   1      33.194  22.520 -22.668  0.00  0.00    -0.081 Cl
ATOM     13 CL   UNL d   1      33.215  22.752 -19.797  0.00  0.00    -0.082 Cl
ENDROOT
TORSDOF 0
ENDMDL
