MODEL 1
REMARK VINA RESULT:      -7.4      0.000      0.000
REMARK  2 active torsions:
REMARK  status: ('A' for Active; 'I' for Inactive)
REMARK    1  A    between atoms: C_6  and  C_1 
REMARK    2  A    between atoms: C_7  and  C_5 
ROOT
ATOM      1  C   UNL d   1     -49.467  12.228  23.015  0.00  0.00     0.085 A 
ATOM      2  C   UNL d   1     -49.516  12.390  22.207  0.00  0.00     0.137 A 
ATOM      3  C   UNL d   1     -48.771  12.526  23.310  0.00  0.00     0.013 A 
ATOM      4  S   UNL d   1     -48.830  12.796  22.005  0.00  0.00    -0.066 SA
ATOM      5  C   UNL d   1     -48.377  12.880  22.670  0.00  0.00     0.031 A 
ATOM      6  N   UNL d   1     -50.149  12.169  21.724  0.00  0.00    -0.141 N 
ENDROOT
BRANCH   5   7
ATOM      7  C   UNL d   1     -47.650  13.243  22.754  0.00  0.00     0.006 A 
ATOM      8  C   UNL d   1     -47.609  14.050  22.820  0.00  0.00     0.001 A 
ATOM      9  C   UNL d   1     -46.876  14.424  22.905  0.00  0.00     0.000 A 
ATOM     10  C   UNL d   1     -46.190  13.980  22.922  0.00  0.00     0.000 A 
ATOM     11  C   UNL d   1     -46.230  13.159  22.855  0.00  0.00     0.000 A 
ATOM     12  C   UNL d   1     -46.957  12.796  22.771  0.00  0.00     0.001 A 
ENDBRANCH   5   7
BRANCH   1  13
ATOM     13  C   UNL d   1     -50.041  11.820  23.477  0.00  0.00     0.299 C 
ATOM     14  O   UNL d   1     -49.911  11.048  23.697  0.00  0.00    -0.264 OA
ATOM     15  N   UNL d   1     -50.726  12.214  23.698  0.00  0.00    -0.102 N 
ENDBRANCH   1  13
TORSDOF 2
ENDMDL
MODEL 2
REMARK VINA RESULT:      -7.2      1.888      2.128
REMARK  2 active torsions:
REMARK  status: ('A' for Active; 'I' for Inactive)
REMARK    1  A    between atoms: C_6  and  C_1 
REMARK    2  A    between atoms: C_7  and  C_5 
ROOT
ATOM      1  C   UNL d   1     -49.573  14.580  22.756  0.00  0.00     0.085 A 
ATOM      2  C   UNL d   1     -49.646  14.080  22.102  0.00  0.00     0.137 A 
ATOM      3  C   UNL d   1     -48.837  14.487  23.087  0.00  0.00     0.013 A 
ATOM      4  S   UNL d   1     -48.934  13.673  22.035  0.00  0.00    -0.066 SA
ATOM      5  C   UNL d   1     -48.443  13.917  22.629  0.00  0.00     0.031 A 
ATOM      6  N   UNL d   1     -50.321  14.026  21.629  0.00  0.00    -0.141 N 
ENDROOT
BRANCH   5   7
ATOM      7  C   UNL d   1     -47.680  13.677  22.796  0.00  0.00     0.006 A 
ATOM      8  C   UNL d   1     -47.547  12.923  23.064  0.00  0.00     0.001 A 
ATOM      9  C   UNL d   1     -46.776  12.673  23.235  0.00  0.00     0.000 A 
ATOM     10  C   UNL d   1     -46.148  13.185  23.134  0.00  0.00     0.000 A 
ATOM     11  C   UNL d   1     -46.283  13.952  22.862  0.00  0.00     0.000 A 
ATOM     12  C   UNL d   1     -47.045  14.193  22.695  0.00  0.00     0.001 A 
ENDBRANCH   5   7
BRANCH   1  13
ATOM     13  C   UNL d   1     -50.160  15.108  23.047  0.00  0.00     0.299 C 
ATOM     14  O   UNL d   1     -50.267  15.833  22.692  0.00  0.00    -0.264 OA
ATOM     15  N   UNL d   1     -50.618  14.880  23.689  0.00  0.00    -0.102 N 
ENDBRANCH   1  13
TORSDOF 2
ENDMDL
