MODEL 1
REMARK VINA RESULT:      43.4      0.000      0.000
REMARK  5 active torsions:
REMARK  status: ('A' for Active; 'I' for Inactive)
REMARK    1  A    between atoms: N_4  and  C_2 
REMARK    2  A    between atoms: C_11  and  C_3 
REMARK       I    between atoms: C_8  and  N_4 
REMARK    3  A    between atoms: C_14  and  C_5 
REMARK    4  A    between atoms: C_7  and  C_8 
REMARK    5  A    between atoms: C_17  and  C_14 
ROOT
ATOM      1  C   UNL d   1      13.736  12.254  -2.178  0.00  0.00     0.101 A 
ATOM      2  O   UNL d   1      13.864  12.914  -2.665  0.00  0.00    -0.302 OA
ATOM      3  C   UNL d   1      13.375  12.842  -3.321  0.00  0.00     0.158 A 
ATOM      4  C   UNL d   1      13.170  11.781  -2.538  0.00  0.00     0.027 A 
ATOM      5  C   UNL d   1      12.942  12.138  -3.245  0.00  0.00     0.032 A 
ENDROOT
BRANCH   3   6
ATOM      6  C   UNL d   1      13.322  13.376  -3.949  0.00  0.00     0.304 C 
ATOM      7  N   UNL d   1      13.493  14.174  -3.825  0.00  0.00    -0.180 NA
ATOM      8  O   UNL d   1      13.101  13.110  -4.693  0.00  0.00    -0.263 OA
BRANCH   7   9
ATOM      9  C   UNL d   1      13.441  14.708  -4.449  0.00  0.00     0.216 A 
ATOM     10  N   UNL d   1      14.044  15.195  -4.720  0.00  0.00    -0.200 NA
ATOM     11  C   UNL d   1      13.750  15.636  -5.350  0.00  0.00     0.175 A 
ATOM     12  N   UNL d   1      12.962  15.420  -5.469  0.00  0.00    -0.187 NA
ATOM     13  S   UNL d   1      12.772  14.842  -4.908  0.00  0.00     0.054 SA
BRANCH  11  14
ATOM     14  C   UNL d   1      14.166  16.198  -5.790  0.00  0.00     0.082 C 
BRANCH  14  15
ATOM     15  C   UNL d   1      14.747  16.656  -5.425  0.00  0.00     0.199 C 
ATOM     16  O   UNL d   1      15.479  16.327  -5.247  0.00  0.00    -0.286 OA
ATOM     17  C   UNL d   1      14.595  17.445  -5.237  0.00  0.00     0.045 C 
ENDBRANCH  14  15
ENDBRANCH  11  14
ENDBRANCH   7   9
ENDBRANCH   3   6
BRANCH   1  18
ATOM     18  C   UNL d   1      14.113  12.102  -1.458  0.00  0.00     0.033 A 
ATOM     19  C   UNL d   1      13.666  11.932  -0.786  0.00  0.00     0.060 A 
ATOM     20 CL   UNL d   1      12.841  11.912  -0.830  0.00  0.00    -0.082 Cl
ATOM     21  C   UNL d   1      14.037  11.780  -0.069  0.00  0.00     0.011 A 
ATOM     22  C   UNL d   1      14.866  11.798  -0.019  0.00  0.00     0.001 A 
ATOM     23  C   UNL d   1      15.314  11.968  -0.687  0.00  0.00     0.000 A 
ATOM     24  C   UNL d   1      14.943  12.121  -1.408  0.00  0.00     0.003 A 
ENDBRANCH   1  18
TORSDOF 5
ENDMDL
