MODEL 1
REMARK VINA RESULT:      43.8      0.000      0.000
REMARK  4 active torsions:
REMARK  status: ('A' for Active; 'I' for Inactive)
REMARK    1  A    between atoms: C_4  and  C_1 
REMARK       I    between atoms: N_7  and  C_4 
REMARK    2  A    between atoms: C_8  and  N_7 
REMARK    3  A    between atoms: O_21  and  C_13 
REMARK    4  A    between atoms: O_22  and  C_16 
ROOT
ATOM      1  C   UNL d   1      15.556  13.319  -0.550  0.00  0.00     0.263 C 
ATOM      2  N   UNL d   1      15.706  14.145  -0.792  0.00  0.00    -0.209 NA
ATOM      3  O   UNL d   1      16.088  12.873  -0.016  0.00  0.00    -0.270 OA
ENDROOT
BRANCH   1   4
ATOM      4  C   UNL d   1      14.907  12.880  -0.797  0.00  0.00     0.113 A 
ATOM      5  C   UNL d   1      13.504  12.255  -0.709  0.00  0.00     0.025 A 
ATOM      6  C   UNL d   1      14.239  12.437  -1.033  0.00  0.00     0.074 A 
ATOM      7  C   UNL d   1      12.984  11.791  -1.120  0.00  0.00     0.002 C 
ATOM      8  C   UNL d   1      13.120  12.432  -0.019  0.00  0.00     0.002 C 
ATOM      9  C   UNL d   1      13.707  11.965  -1.452  0.00  0.00     0.012 C 
ATOM     10  C   UNL d   1      14.242  12.819  -0.305  0.00  0.00    -0.023 A 
ATOM     11  C   UNL d   1      14.640  12.264  -1.733  0.00  0.00     0.172 A 
ATOM     12  C   UNL d   1      14.885  13.246  -0.077  0.00  0.00    -0.018 A 
ATOM     13  C   UNL d   1      15.286  12.700  -1.490  0.00  0.00     0.024 A 
ATOM     14  O   UNL d   1      14.445  11.816  -2.412  0.00  0.00    -0.291 OA
ENDBRANCH   1   4
BRANCH   2  15
ATOM     15  C   UNL d   1      15.145  14.547  -1.326  0.00  0.00     0.108 A 
ATOM     16  C   UNL d   1      14.752  14.081  -1.957  0.00  0.00     0.045 A 
ATOM     17  C   UNL d   1      14.188  14.485  -2.495  0.00  0.00     0.096 A 
ATOM     18  C   UNL d   1      14.023  15.352  -2.397  0.00  0.00     0.026 A 
ATOM     19  C   UNL d   1      14.427  15.796  -1.760  0.00  0.00     0.028 A 
ATOM     20  C   UNL d   1      14.991  15.392  -1.222  0.00  0.00     0.112 A 
BRANCH  17  21
ATOM     21  O   UNL d   1      13.790  14.036  -3.126  0.00  0.00    -0.328 OA
ATOM     22  C   UNL d   1      13.600  14.421  -3.888  0.00  0.00     0.181 C 
ENDBRANCH  17  21
BRANCH  20  23
ATOM     23  O   UNL d   1      15.396  15.837  -0.584  0.00  0.00    -0.327 OA
ATOM     24  C   UNL d   1      15.267  16.701  -0.525  0.00  0.00     0.181 C 
ENDBRANCH  20  23
ENDBRANCH   2  15
TORSDOF 4
ENDMDL
