MODEL 1
REMARK VINA RESULT:      -9.0      0.000      0.000
REMARK  3 active torsions:
REMARK  status: ('A' for Active; 'I' for Inactive)
REMARK    1  A    between atoms: N_5  and  C_1 
REMARK    2  A    between atoms: C_9  and  C_2 
REMARK       I    between atoms: C_8  and  N_5 
REMARK    3  A    between atoms: C_10  and  C_8 
ROOT
ATOM      1  C   UNL d   1      52.521  32.667  53.674  0.00  0.00     0.155 A 
ATOM      2  C   UNL d   1      52.970  33.347  53.800  0.00  0.00     0.080 A 
ATOM      3  N   UNL d   1      51.764  32.729  53.337  0.00  0.00    -0.289 N 
ATOM      4  C   UNL d   1      52.662  34.090  53.589  0.00  0.00     0.200 A 
ATOM      5  C   UNL d   1      51.911  34.146  53.256  0.00  0.00     0.055 A 
ATOM      6  C   UNL d   1      51.462  33.466  53.130  0.00  0.00     0.069 A 
ATOM      7  O   UNL d   1      53.114  34.774  53.716  0.00  0.00    -0.286 OA
ATOM      8  C   UNL d   1      51.315  32.048  53.211  0.00  0.00     0.101 C 
ATOM      9  C   UNL d   1      51.610  34.884  53.049  0.00  0.00     0.005 A 
ATOM     10  C   UNL d   1      50.718  33.518  52.800  0.00  0.00     0.018 A 
ATOM     11  C   UNL d   1      50.859  34.941  52.715  0.00  0.00     0.000 A 
ATOM     12  C   UNL d   1      50.410  34.260  52.589  0.00  0.00     0.002 A 
ENDROOT
BRANCH   1  13
ATOM     13  N   UNL d   1      52.827  31.917  53.885  0.00  0.00    -0.190 NA
ATOM     14  C   UNL d   1      52.815  31.281  53.351  0.00  0.00     0.286 C 
ATOM     15  O   UNL d   1      52.496  31.399  52.605  0.00  0.00    -0.265 OA
BRANCH  14  16
ATOM     16  C   UNL d   1      53.117  30.543  53.559  0.00  0.00     0.087 A 
ATOM     17  S   UNL d   1      53.541  30.100  53.008  0.00  0.00    -0.082 SA
ATOM     18  C   UNL d   1      53.768  29.396  53.375  0.00  0.00     0.036 A 
ATOM     19  C   UNL d   1      53.487  29.401  54.151  0.00  0.00     0.008 A 
ATOM     20  C   UNL d   1      53.081  30.115  54.269  0.00  0.00     0.012 A 
ENDBRANCH  14  16
ENDBRANCH   1  13
BRANCH   2  21
ATOM     21  C   UNL d   1      53.721  33.291  54.133  0.00  0.00     0.035 A 
ATOM     22  S   UNL d   1      53.889  33.274  54.942  0.00  0.00    -0.086 SA
ATOM     23  C   UNL d   1      54.710  33.214  55.024  0.00  0.00     0.035 A 
ATOM     24  C   UNL d   1      55.050  33.194  54.267  0.00  0.00     0.007 A 
ATOM     25  C   UNL d   1      54.431  33.243  53.725  0.00  0.00     0.007 A 
ENDBRANCH   2  21
TORSDOF 3
ENDMDL
MODEL 2
REMARK VINA RESULT:      -8.4      1.462      3.621
REMARK  3 active torsions:
REMARK  status: ('A' for Active; 'I' for Inactive)
REMARK    1  A    between atoms: N_5  and  C_1 
REMARK    2  A    between atoms: C_9  and  C_2 
REMARK       I    between atoms: C_8  and  N_5 
REMARK    3  A    between atoms: C_10  and  C_8 
ROOT
ATOM      1  C   UNL d   1      52.384  33.117  53.210  0.00  0.00     0.155 A 
ATOM      2  C   UNL d   1      53.028  33.360  53.666  0.00  0.00     0.080 A 
ATOM      3  N   UNL d   1      52.306  32.317  53.002  0.00  0.00    -0.289 N 
ATOM      4  C   UNL d   1      53.593  32.803  53.913  0.00  0.00     0.200 A 
ATOM      5  C   UNL d   1      53.511  32.010  53.704  0.00  0.00     0.055 A 
ATOM      6  C   UNL d   1      52.867  31.767  53.248  0.00  0.00     0.069 A 
ATOM      7  O   UNL d   1      54.239  33.047  54.371  0.00  0.00    -0.286 OA
ATOM      8  C   UNL d   1      51.662  32.074  52.546  0.00  0.00     0.101 C 
ATOM      9  C   UNL d   1      54.072  31.462  53.951  0.00  0.00     0.005 A 
ATOM     10  C   UNL d   1      52.783  30.983  53.039  0.00  0.00     0.018 A 
ATOM     11  C   UNL d   1      53.990  30.669  53.742  0.00  0.00     0.000 A 
ATOM     12  C   UNL d   1      53.347  30.426  53.286  0.00  0.00     0.002 A 
ENDROOT
BRANCH   1  13
ATOM     13  N   UNL d   1      51.813  33.675  52.959  0.00  0.00    -0.190 NA
ATOM     14  C   UNL d   1      51.002  33.545  53.079  0.00  0.00     0.286 C 
ATOM     15  O   UNL d   1      50.765  32.853  53.451  0.00  0.00    -0.265 OA
BRANCH  14  16
ATOM     16  C   UNL d   1      50.441  34.095  52.831  0.00  0.00     0.087 A 
ATOM     17  S   UNL d   1      49.912  34.419  53.375  0.00  0.00    -0.082 SA
ATOM     18  C   UNL d   1      49.424  34.945  52.967  0.00  0.00     0.036 A 
ATOM     19  C   UNL d   1      49.648  34.949  52.172  0.00  0.00     0.008 A 
ATOM     20  C   UNL d   1      50.281  34.420  52.085  0.00  0.00     0.012 A 
ENDBRANCH  14  16
ENDBRANCH   1  13
BRANCH   2  21
ATOM     21  C   UNL d   1      53.110  34.152  53.875  0.00  0.00     0.035 A 
ATOM     22  S   UNL d   1      52.983  34.468  54.628  0.00  0.00    -0.086 SA
ATOM     23  C   UNL d   1      53.129  35.280  54.586  0.00  0.00     0.035 A 
ATOM     24  C   UNL d   1      53.347  35.469  53.807  0.00  0.00     0.007 A 
ATOM     25  C   UNL d   1      53.332  34.765  53.377  0.00  0.00     0.007 A 
ENDBRANCH   2  21
TORSDOF 3
ENDMDL
MODEL 3
REMARK VINA RESULT:      -8.3      1.385      3.819
REMARK  3 active torsions:
REMARK  status: ('A' for Active; 'I' for Inactive)
REMARK    1  A    between atoms: N_5  and  C_1 
REMARK    2  A    between atoms: C_9  and  C_2 
REMARK       I    between atoms: C_8  and  N_5 
REMARK    3  A    between atoms: C_10  and  C_8 
ROOT
ATOM      1  C   UNL d   1      52.956  33.388  53.572  0.00  0.00     0.155 A 
ATOM      2  C   UNL d   1      53.215  32.629  53.765  0.00  0.00     0.080 A 
ATOM      3  N   UNL d   1      53.308  34.048  53.932  0.00  0.00    -0.289 N 
ATOM      4  C   UNL d   1      53.826  32.531  54.320  0.00  0.00     0.200 A 
ATOM      5  C   UNL d   1      54.172  33.188  54.675  0.00  0.00     0.055 A 
ATOM      6  C   UNL d   1      53.913  33.947  54.482  0.00  0.00     0.069 A 
ATOM      7  O   UNL d   1      54.087  31.768  54.515  0.00  0.00    -0.286 OA
ATOM      8  C   UNL d   1      53.049  34.807  53.739  0.00  0.00     0.101 C 
ATOM      9  C   UNL d   1      54.777  33.086  55.224  0.00  0.00     0.005 A 
ATOM     10  C   UNL d   1      54.253  34.601  54.832  0.00  0.00     0.018 A 
ATOM     11  C   UNL d   1      55.123  33.744  55.580  0.00  0.00     0.000 A 
ATOM     12  C   UNL d   1      54.864  34.503  55.386  0.00  0.00     0.002 A 
ENDROOT
BRANCH   1  13
ATOM     13  N   UNL d   1      52.341  33.492  53.013  0.00  0.00    -0.190 NA
ATOM     14  C   UNL d   1      51.707  34.007  53.162  0.00  0.00     0.286 C 
ATOM     15  O   UNL d   1      51.691  34.417  53.872  0.00  0.00    -0.265 OA
BRANCH  14  16
ATOM     16  C   UNL d   1      51.103  34.108  52.612  0.00  0.00     0.087 A 
ATOM     17  S   UNL d   1      50.323  34.195  52.867  0.00  0.00    -0.082 SA
ATOM     18  C   UNL d   1      49.849  34.285  52.196  0.00  0.00     0.036 A 
ATOM     19  C   UNL d   1      50.332  34.256  51.527  0.00  0.00     0.008 A 
ATOM     20  C   UNL d   1      51.113  34.145  51.783  0.00  0.00     0.012 A 
ENDBRANCH  14  16
ENDBRANCH   1  13
BRANCH   2  21
ATOM     21  C   UNL d   1      52.870  31.972  53.410  0.00  0.00     0.035 A 
ATOM     22  S   UNL d   1      53.107  31.628  52.697  0.00  0.00    -0.086 SA
ATOM     23  C   UNL d   1      52.609  30.985  52.553  0.00  0.00     0.035 A 
ATOM     24  C   UNL d   1      52.062  30.929  53.176  0.00  0.00     0.007 A 
ATOM     25  C   UNL d   1      52.233  31.543  53.699  0.00  0.00     0.007 A 
ENDBRANCH   2  21
TORSDOF 3
ENDMDL
MODEL 4
REMARK VINA RESULT:      -7.8      1.400      4.093
REMARK  3 active torsions:
REMARK  status: ('A' for Active; 'I' for Inactive)
REMARK    1  A    between atoms: N_5  and  C_1 
REMARK    2  A    between atoms: C_9  and  C_2 
REMARK       I    between atoms: C_8  and  N_5 
REMARK    3  A    between atoms: C_10  and  C_8 
ROOT
ATOM      1  C   UNL d   1      52.898  33.000  53.419  0.00  0.00     0.155 A 
ATOM      2  C   UNL d   1      52.203  32.709  53.084  0.00  0.00     0.080 A 
ATOM      3  N   UNL d   1      53.508  32.474  53.623  0.00  0.00    -0.289 N 
ATOM      4  C   UNL d   1      52.116  31.893  52.953  0.00  0.00     0.200 A 
ATOM      5  C   UNL d   1      52.724  31.376  53.158  0.00  0.00     0.055 A 
ATOM      6  C   UNL d   1      53.420  31.666  53.492  0.00  0.00     0.069 A 
ATOM      7  O   UNL d   1      51.417  31.601  52.617  0.00  0.00    -0.286 OA
ATOM      8  C   UNL d   1      54.204  32.765  53.958  0.00  0.00     0.101 C 
ATOM      9  C   UNL d   1      52.634  30.568  53.027  0.00  0.00     0.005 A 
ATOM     10  C   UNL d   1      54.023  31.156  53.696  0.00  0.00     0.018 A 
ATOM     11  C   UNL d   1      53.242  30.050  53.231  0.00  0.00     0.000 A 
ATOM     12  C   UNL d   1      53.938  30.341  53.566  0.00  0.00     0.002 A 
ENDROOT
BRANCH   1  13
ATOM     13  N   UNL d   1      52.989  33.821  53.552  0.00  0.00    -0.190 NA
ATOM     14  C   UNL d   1      53.186  34.117  54.302  0.00  0.00     0.286 C 
ATOM     15  O   UNL d   1      53.291  33.587  54.919  0.00  0.00    -0.265 OA
BRANCH  14  16
ATOM     16  C   UNL d   1      53.275  34.926  54.432  0.00  0.00     0.087 A 
ATOM     17  S   UNL d   1      53.022  35.260  55.142  0.00  0.00    -0.082 SA
ATOM     18  C   UNL d   1      53.183  36.069  55.109  0.00  0.00     0.036 A 
ATOM     19  C   UNL d   1      53.535  36.238  54.381  0.00  0.00     0.008 A 
ATOM     20  C   UNL d   1      53.593  35.527  53.957  0.00  0.00     0.012 A 
ENDBRANCH  14  16
ENDBRANCH   1  13
BRANCH   2  21
ATOM     21  C   UNL d   1      51.595  33.226  52.880  0.00  0.00     0.035 A 
ATOM     22  S   UNL d   1      50.898  33.345  53.307  0.00  0.00    -0.086 SA
ATOM     23  C   UNL d   1      50.450  33.909  52.902  0.00  0.00     0.035 A 
ATOM     24  C   UNL d   1      50.868  34.141  52.223  0.00  0.00     0.007 A 
ATOM     25  C   UNL d   1      51.574  33.713  52.219  0.00  0.00     0.007 A 
ENDBRANCH   2  21
TORSDOF 3
ENDMDL
MODEL 5
REMARK VINA RESULT:      -7.6      1.208      2.799
REMARK  3 active torsions:
REMARK  status: ('A' for Active; 'I' for Inactive)
REMARK    1  A    between atoms: N_5  and  C_1 
REMARK    2  A    between atoms: C_9  and  C_2 
REMARK       I    between atoms: C_8  and  N_5 
REMARK    3  A    between atoms: C_10  and  C_8 
ROOT
ATOM      1  C   UNL d   1      53.329  32.792  53.757  0.00  0.00     0.155 A 
ATOM      2  C   UNL d   1      52.830  33.448  53.771  0.00  0.00     0.080 A 
ATOM      3  N   UNL d   1      54.054  32.816  54.161  0.00  0.00    -0.289 N 
ATOM      4  C   UNL d   1      53.056  34.130  54.190  0.00  0.00     0.200 A 
ATOM      5  C   UNL d   1      53.776  34.150  54.589  0.00  0.00     0.055 A 
ATOM      6  C   UNL d   1      54.276  33.493  54.575  0.00  0.00     0.069 A 
ATOM      7  O   UNL d   1      52.554  34.790  54.204  0.00  0.00    -0.286 OA
ATOM      8  C   UNL d   1      54.554  32.160  54.146  0.00  0.00     0.101 C 
ATOM      9  C   UNL d   1      53.996  34.827  55.002  0.00  0.00     0.005 A 
ATOM     10  C   UNL d   1      54.990  33.509  54.969  0.00  0.00     0.018 A 
ATOM     11  C   UNL d   1      54.717  34.847  55.402  0.00  0.00     0.000 A 
ATOM     12  C   UNL d   1      55.216  34.190  55.387  0.00  0.00     0.002 A 
ENDROOT
BRANCH   1  13
ATOM     13  N   UNL d   1      53.106  32.103  53.336  0.00  0.00    -0.190 NA
ATOM     14  C   UNL d   1      53.206  31.347  53.663  0.00  0.00     0.286 C 
ATOM     15  O   UNL d   1      53.532  31.283  54.414  0.00  0.00    -0.265 OA
BRANCH  14  16
ATOM     16  C   UNL d   1      52.986  30.670  53.249  0.00  0.00     0.087 A 
ATOM     17  S   UNL d   1      52.615  30.047  53.643  0.00  0.00    -0.082 SA
ATOM     18  C   UNL d   1      52.464  29.455  53.087  0.00  0.00     0.036 A 
ATOM     19  C   UNL d   1      52.739  29.708  52.351  0.00  0.00     0.008 A 
ATOM     20  C   UNL d   1      53.065  30.465  52.449  0.00  0.00     0.012 A 
ENDBRANCH  14  16
ENDBRANCH   1  13
BRANCH   2  21
ATOM     21  C   UNL d   1      52.110  33.429  53.372  0.00  0.00     0.035 A 
ATOM     22  S   UNL d   1      51.992  33.628  52.579  0.00  0.00    -0.086 SA
ATOM     23  C   UNL d   1      51.189  33.529  52.414  0.00  0.00     0.035 A 
ATOM     24  C   UNL d   1      50.807  33.267  53.104  0.00  0.00     0.007 A 
ATOM     25  C   UNL d   1      51.386  33.209  53.689  0.00  0.00     0.007 A 
ENDBRANCH   2  21
TORSDOF 3
ENDMDL
MODEL 6
REMARK VINA RESULT:      -7.5      1.306      3.607
REMARK  3 active torsions:
REMARK  status: ('A' for Active; 'I' for Inactive)
REMARK    1  A    between atoms: N_5  and  C_1 
REMARK    2  A    between atoms: C_9  and  C_2 
REMARK       I    between atoms: C_8  and  N_5 
REMARK    3  A    between atoms: C_10  and  C_8 
ROOT
ATOM      1  C   UNL d   1      52.719  32.154  53.295  0.00  0.00     0.155 A 
ATOM      2  C   UNL d   1      53.359  32.222  53.811  0.00  0.00     0.080 A 
ATOM      3  N   UNL d   1      52.459  31.402  53.058  0.00  0.00    -0.289 N 
ATOM      4  C   UNL d   1      53.740  31.538  54.089  0.00  0.00     0.200 A 
ATOM      5  C   UNL d   1      53.478  30.793  53.851  0.00  0.00     0.055 A 
ATOM      6  C   UNL d   1      52.838  30.726  53.335  0.00  0.00     0.069 A 
ATOM      7  O   UNL d   1      54.383  31.606  54.607  0.00  0.00    -0.286 OA
ATOM      8  C   UNL d   1      51.818  31.334  52.542  0.00  0.00     0.101 C 
ATOM      9  C   UNL d   1      53.858  30.118  54.129  0.00  0.00     0.005 A 
ATOM     10  C   UNL d   1      52.576  29.991  53.098  0.00  0.00     0.018 A 
ATOM     11  C   UNL d   1      53.596  29.374  53.891  0.00  0.00     0.000 A 
ATOM     12  C   UNL d   1      52.956  29.306  53.375  0.00  0.00     0.002 A 
ENDROOT
BRANCH   1  13
ATOM     13  N   UNL d   1      52.333  32.841  53.012  0.00  0.00    -0.190 NA
ATOM     14  C   UNL d   1      51.511  32.934  53.084  0.00  0.00     0.286 C 
ATOM     15  O   UNL d   1      51.077  32.335  53.440  0.00  0.00    -0.265 OA
BRANCH  14  16
ATOM     16  C   UNL d   1      51.132  33.610  52.805  0.00  0.00     0.087 A 
ATOM     17  S   UNL d   1      50.477  33.911  53.206  0.00  0.00    -0.082 SA
ATOM     18  C   UNL d   1      50.221  34.582  52.799  0.00  0.00     0.036 A 
ATOM     19  C   UNL d   1      50.716  34.700  52.148  0.00  0.00     0.008 A 
ATOM     20  C   UNL d   1      51.284  34.095  52.150  0.00  0.00     0.012 A 
ENDBRANCH  14  16
ENDBRANCH   1  13
BRANCH   2  21
ATOM     21  C   UNL d   1      53.621  32.965  54.049  0.00  0.00     0.035 A 
ATOM     22  S   UNL d   1      54.157  33.442  53.639  0.00  0.00    -0.086 SA
ATOM     23  C   UNL d   1      54.259  34.135  54.077  0.00  0.00     0.035 A 
ATOM     24  C   UNL d   1      53.788  34.089  54.759  0.00  0.00     0.007 A 
ATOM     25  C   UNL d   1      53.398  33.363  54.731  0.00  0.00     0.007 A 
ENDBRANCH   2  21
TORSDOF 3
ENDMDL
MODEL 7
REMARK VINA RESULT:      -6.9      0.948      2.859
REMARK  3 active torsions:
REMARK  status: ('A' for Active; 'I' for Inactive)
REMARK    1  A    between atoms: N_5  and  C_1 
REMARK    2  A    between atoms: C_9  and  C_2 
REMARK       I    between atoms: C_8  and  N_5 
REMARK    3  A    between atoms: C_10  and  C_8 
ROOT
ATOM      1  C   UNL d   1      52.739  33.350  53.480  0.00  0.00     0.155 A 
ATOM      2  C   UNL d   1      52.382  32.632  53.286  0.00  0.00     0.080 A 
ATOM      3  N   UNL d   1      52.311  34.057  53.403  0.00  0.00    -0.289 N 
ATOM      4  C   UNL d   1      51.596  32.621  53.016  0.00  0.00     0.200 A 
ATOM      5  C   UNL d   1      51.175  33.326  52.941  0.00  0.00     0.055 A 
ATOM      6  C   UNL d   1      51.532  34.043  53.135  0.00  0.00     0.069 A 
ATOM      7  O   UNL d   1      51.237  31.900  52.821  0.00  0.00    -0.286 OA
ATOM      8  C   UNL d   1      52.668  34.775  53.597  0.00  0.00     0.101 C 
ATOM      9  C   UNL d   1      50.397  33.311  52.673  0.00  0.00     0.005 A 
ATOM     10  C   UNL d   1      51.118  34.743  53.063  0.00  0.00     0.018 A 
ATOM     11  C   UNL d   1      49.976  34.015  52.599  0.00  0.00     0.000 A 
ATOM     12  C   UNL d   1      50.333  34.733  52.793  0.00  0.00     0.002 A 
ENDROOT
BRANCH   1  13
ATOM     13  N   UNL d   1      53.530  33.365  53.752  0.00  0.00    -0.190 NA
ATOM     14  C   UNL d   1      53.736  33.749  54.459  0.00  0.00     0.286 C 
ATOM     15  O   UNL d   1      53.144  34.118  54.892  0.00  0.00    -0.265 OA
BRANCH  14  16
ATOM     16  C   UNL d   1      54.514  33.763  54.726  0.00  0.00     0.087 A 
ATOM     17  S   UNL d   1      54.675  33.716  55.534  0.00  0.00    -0.082 SA
ATOM     18  C   UNL d   1      55.495  33.743  55.628  0.00  0.00     0.036 A 
ATOM     19  C   UNL d   1      55.844  33.807  54.882  0.00  0.00     0.008 A 
ATOM     20  C   UNL d   1      55.235  33.820  54.319  0.00  0.00     0.012 A 
ENDBRANCH  14  16
ENDBRANCH   1  13
BRANCH   2  21
ATOM     21  C   UNL d   1      52.802  31.928  53.360  0.00  0.00     0.035 A 
ATOM     22  S   UNL d   1      53.305  31.604  52.789  0.00  0.00    -0.086 SA
ATOM     23  C   UNL d   1      53.607  30.898  53.096  0.00  0.00     0.035 A 
ATOM     24  C   UNL d   1      53.293  30.784  53.856  0.00  0.00     0.007 A 
ATOM     25  C   UNL d   1      52.797  31.426  54.009  0.00  0.00     0.007 A 
ENDBRANCH   2  21
TORSDOF 3
ENDMDL
MODEL 8
REMARK VINA RESULT:      -6.7      1.381      3.633
REMARK  3 active torsions:
REMARK  status: ('A' for Active; 'I' for Inactive)
REMARK    1  A    between atoms: N_5  and  C_1 
REMARK    2  A    between atoms: C_9  and  C_2 
REMARK       I    between atoms: C_8  and  N_5 
REMARK    3  A    between atoms: C_10  and  C_8 
ROOT
ATOM      1  C   UNL d   1      53.415  32.144  53.594  0.00  0.00     0.155 A 
ATOM      2  C   UNL d   1      52.675  32.312  53.270  0.00  0.00     0.080 A 
ATOM      3  N   UNL d   1      53.650  31.354  53.696  0.00  0.00    -0.289 N 
ATOM      4  C   UNL d   1      52.170  31.690  53.048  0.00  0.00     0.200 A 
ATOM      5  C   UNL d   1      52.408  30.908  53.151  0.00  0.00     0.055 A 
ATOM      6  C   UNL d   1      53.147  30.740  53.475  0.00  0.00     0.069 A 
ATOM      7  O   UNL d   1      51.427  31.859  52.722  0.00  0.00    -0.286 OA
ATOM      8  C   UNL d   1      54.389  31.186  54.021  0.00  0.00     0.101 C 
ATOM      9  C   UNL d   1      51.905  30.295  52.930  0.00  0.00     0.005 A 
ATOM     10  C   UNL d   1      53.386  29.967  53.579  0.00  0.00     0.018 A 
ATOM     11  C   UNL d   1      52.142  29.513  53.034  0.00  0.00     0.000 A 
ATOM     12  C   UNL d   1      52.882  29.345  53.358  0.00  0.00     0.002 A 
ENDROOT
BRANCH   1  13
ATOM     13  N   UNL d   1      53.926  32.767  53.819  0.00  0.00    -0.190 NA
ATOM     14  C   UNL d   1      54.267  32.794  54.576  0.00  0.00     0.286 C 
ATOM     15  O   UNL d   1      54.092  32.193  55.107  0.00  0.00    -0.265 OA
BRANCH  14  16
ATOM     16  C   UNL d   1      54.770  33.408  54.796  0.00  0.00     0.087 A 
ATOM     17  S   UNL d   1      54.710  33.741  55.548  0.00  0.00    -0.082 SA
ATOM     18  C   UNL d   1      55.280  34.336  55.604  0.00  0.00     0.036 A 
ATOM     19  C   UNL d   1      55.693  34.372  54.890  0.00  0.00     0.008 A 
ATOM     20  C   UNL d   1      55.377  33.795  54.385  0.00  0.00     0.012 A 
ENDBRANCH  14  16
ENDBRANCH   1  13
BRANCH   2  21
ATOM     21  C   UNL d   1      52.437  33.093  53.166  0.00  0.00     0.035 A 
ATOM     22  S   UNL d   1      51.910  33.506  53.651  0.00  0.00    -0.086 SA
ATOM     23  C   UNL d   1      51.832  34.269  53.343  0.00  0.00     0.035 A 
ATOM     24  C   UNL d   1      52.311  34.330  52.667  0.00  0.00     0.007 A 
ATOM     25  C   UNL d   1      52.680  33.599  52.567  0.00  0.00     0.007 A 
ENDBRANCH   2  21
TORSDOF 3
ENDMDL
