MODEL 1
REMARK VINA RESULT:      -7.3      0.000      0.000
REMARK  4 active torsions:
REMARK  status: ('A' for Active; 'I' for Inactive)
REMARK    1  A    between atoms: C_11  and  N_3 
REMARK    2  A    between atoms: C_10  and  C_5 
REMARK    3  A    between atoms: C_21  and  C_11 
REMARK    4  A    between atoms: N_12  and  C_21 
ROOT
ATOM      1  C   UNL d   1     -46.403  11.912  23.246  0.00  0.00     0.085 A 
ATOM      2  C   UNL d   1     -46.847  11.240  23.469  0.00  0.00     0.161 A 
ATOM      3  N   UNL d   1     -47.693  12.263  23.286  0.00  0.00    -0.268 N 
ATOM      4  C   UNL d   1     -47.640  11.461  23.492  0.00  0.00     0.288 A 
ATOM      5  C   UNL d   1     -46.930  12.538  23.135  0.00  0.00     0.095 A 
ATOM      6  C   UNL d   1     -45.577  11.855  23.176  0.00  0.00     0.201 A 
ATOM      7  O   UNL d   1     -46.463  10.525  23.618  0.00  0.00    -0.302 OA
ATOM      8  C   UNL d   1     -45.203  11.132  23.329  0.00  0.00     0.063 A 
ATOM      9  C   UNL d   1     -45.643  10.464  23.551  0.00  0.00     0.103 A 
ATOM     10  O   UNL d   1     -48.277  10.969  23.688  0.00  0.00    -0.264 OA
ATOM     11  O   UNL d   1     -45.135  12.516  22.957  0.00  0.00    -0.286 OA
ATOM     12  C   UNL d   1     -44.382  11.080  23.258  0.00  0.00     0.017 A 
ATOM     13  C   UNL d   1     -45.255   9.756  23.698  0.00  0.00     0.026 A 
ATOM     14  C   UNL d   1     -44.002  10.367  23.408  0.00  0.00     0.058 A 
ATOM     15  C   UNL d   1     -44.438   9.705  23.627  0.00  0.00     0.013 A 
ATOM     16 CL   UNL d   1     -43.185  10.317  23.337  0.00  0.00    -0.082 Cl
ENDROOT
BRANCH   3  17
ATOM     17  C   UNL d   1     -48.386  12.705  23.240  0.00  0.00     0.102 C 
BRANCH  17  18
ATOM     18  C   UNL d   1     -49.046  12.410  22.842  0.00  0.00     0.100 C 
BRANCH  18  19
ATOM     19  N   UNL d   1     -49.720  12.874  22.748  0.00  0.00    -0.298 N 
ATOM     20  C   UNL d   1     -50.061  13.226  23.401  0.00  0.00     0.107 A 
ATOM     21  C   UNL d   1     -50.735  13.689  23.307  0.00  0.00     0.142 A 
ATOM     22  O   UNL d   1     -51.060  13.796  22.561  0.00  0.00    -0.300 OA
ATOM     23  C   UNL d   1     -50.712  13.439  21.908  0.00  0.00     0.142 A 
ATOM     24  C   UNL d   1     -50.038  12.975  22.002  0.00  0.00     0.107 A 
ENDBRANCH  18  19
ENDBRANCH  17  18
ENDBRANCH   3  17
BRANCH   5  25
ATOM     25  C   UNL d   1     -46.686  13.294  22.910  0.00  0.00     0.116 A 
ATOM     26  O   UNL d   1     -46.519  13.933  23.416  0.00  0.00    -0.304 OA
ATOM     27  C   UNL d   1     -46.296  14.577  22.953  0.00  0.00     0.123 A 
ATOM     28  C   UNL d   1     -46.321  14.349  22.160  0.00  0.00     0.029 A 
ATOM     29  C   UNL d   1     -46.562  13.555  22.131  0.00  0.00     0.028 A 
ENDBRANCH   5  25
TORSDOF 4
ENDMDL
MODEL 2
REMARK VINA RESULT:      -7.0      2.420      5.284
REMARK  4 active torsions:
REMARK  status: ('A' for Active; 'I' for Inactive)
REMARK    1  A    between atoms: C_11  and  N_3 
REMARK    2  A    between atoms: C_10  and  C_5 
REMARK    3  A    between atoms: C_21  and  C_11 
REMARK    4  A    between atoms: N_12  and  C_21 
ROOT
ATOM      1  C   UNL d   1     -47.871  13.687  22.922  0.00  0.00     0.085 A 
ATOM      2  C   UNL d   1     -47.447  14.388  22.755  0.00  0.00     0.161 A 
ATOM      3  N   UNL d   1     -46.599  13.352  22.681  0.00  0.00    -0.268 N 
ATOM      4  C   UNL d   1     -46.665  14.177  22.607  0.00  0.00     0.288 A 
ATOM      5  C   UNL d   1     -47.343  13.054  22.875  0.00  0.00     0.095 A 
ATOM      6  C   UNL d   1     -48.683  13.728  23.095  0.00  0.00     0.201 A 
ATOM      7  O   UNL d   1     -47.837  15.115  22.761  0.00  0.00    -0.302 OA
ATOM      8  C   UNL d   1     -49.063  14.464  23.099  0.00  0.00     0.063 A 
ATOM      9  C   UNL d   1     -48.642  15.161  22.932  0.00  0.00     0.103 A 
ATOM     10  O   UNL d   1     -46.048  14.696  22.416  0.00  0.00    -0.264 OA
ATOM     11  O   UNL d   1     -49.104  13.040  23.261  0.00  0.00    -0.286 OA
ATOM     12  C   UNL d   1     -49.869  14.500  23.270  0.00  0.00     0.017 A 
ATOM     13  C   UNL d   1     -49.036  15.881  22.940  0.00  0.00     0.026 A 
ATOM     14  C   UNL d   1     -50.255  15.226  23.276  0.00  0.00     0.058 A 
ATOM     15  C   UNL d   1     -49.838  15.916  23.111  0.00  0.00     0.013 A 
ATOM     16 CL   UNL d   1     -51.058  15.260  23.448  0.00  0.00    -0.082 Cl
ENDROOT
BRANCH   3  17
ATOM     17  C   UNL d   1     -45.911  12.913  22.578  0.00  0.00     0.102 C 
BRANCH  17  18
ATOM     18  C   UNL d   1     -45.285  13.211  22.130  0.00  0.00     0.100 C 
BRANCH  18  19
ATOM     19  N   UNL d   1     -44.585  12.785  22.053  0.00  0.00    -0.298 N 
ATOM     20  C   UNL d   1     -44.425  12.175  22.572  0.00  0.00     0.107 A 
ATOM     21  C   UNL d   1     -43.725  11.749  22.495  0.00  0.00     0.142 A 
ATOM     22  O   UNL d   1     -43.192  11.936  21.900  0.00  0.00    -0.300 OA
ATOM     23  C   UNL d   1     -43.359  12.552  21.381  0.00  0.00     0.142 A 
ATOM     24  C   UNL d   1     -44.059  12.978  21.458  0.00  0.00     0.107 A 
ENDBRANCH  18  19
ENDBRANCH  17  18
ENDBRANCH   3  17
BRANCH   5  25
ATOM     25  C   UNL d   1     -47.569  12.271  23.009  0.00  0.00     0.116 A 
ATOM     26  O   UNL d   1     -47.996  11.783  22.489  0.00  0.00    -0.304 OA
ATOM     27  C   UNL d   1     -48.096  11.048  22.850  0.00  0.00     0.123 A 
ATOM     28  C   UNL d   1     -47.735  11.071  23.592  0.00  0.00     0.029 A 
ATOM     29  C   UNL d   1     -47.408  11.827  23.692  0.00  0.00     0.028 A 
ENDBRANCH   5  25
TORSDOF 4
ENDMDL
MODEL 3
REMARK VINA RESULT:      -5.3      2.224      5.154
REMARK  4 active torsions:
REMARK  status: ('A' for Active; 'I' for Inactive)
REMARK    1  A    between atoms: C_11  and  N_3 
REMARK    2  A    between atoms: C_10  and  C_5 
REMARK    3  A    between atoms: C_21  and  C_11 
REMARK    4  A    between atoms: N_12  and  C_21 
ROOT
ATOM      1  C   UNL d   1     -47.724  13.199  22.786  0.00  0.00     0.085 A 
ATOM      2  C   UNL d   1     -47.081  13.724  22.685  0.00  0.00     0.161 A 
ATOM      3  N   UNL d   1     -46.596  12.480  22.810  0.00  0.00    -0.268 N 
ATOM      4  C   UNL d   1     -46.390  13.278  22.700  0.00  0.00     0.288 A 
ATOM      5  C   UNL d   1     -47.418  12.436  22.862  0.00  0.00     0.095 A 
ATOM      6  C   UNL d   1     -48.500  13.496  22.795  0.00  0.00     0.201 A 
ATOM      7  O   UNL d   1     -47.222  14.532  22.595  0.00  0.00    -0.302 OA
ATOM      8  C   UNL d   1     -48.628  14.308  22.703  0.00  0.00     0.063 A 
ATOM      9  C   UNL d   1     -47.990  14.831  22.602  0.00  0.00     0.103 A 
ATOM     10  O   UNL d   1     -45.619  13.570  22.620  0.00  0.00    -0.264 OA
ATOM     11  O   UNL d   1     -49.137  12.982  22.894  0.00  0.00    -0.286 OA
ATOM     12  C   UNL d   1     -49.400  14.599  22.711  0.00  0.00     0.017 A 
ATOM     13  C   UNL d   1     -48.136  15.633  22.512  0.00  0.00     0.026 A 
ATOM     14  C   UNL d   1     -49.537  15.404  22.621  0.00  0.00     0.058 A 
ATOM     15  C   UNL d   1     -48.905  15.921  22.521  0.00  0.00     0.013 A 
ATOM     16 CL   UNL d   1     -50.307  15.691  22.630  0.00  0.00    -0.082 Cl
ENDROOT
BRANCH   3  17
ATOM     17  C   UNL d   1     -46.072  11.848  22.857  0.00  0.00     0.102 C 
BRANCH  17  18
ATOM     18  C   UNL d   1     -45.416  11.883  23.359  0.00  0.00     0.100 C 
BRANCH  18  19
ATOM     19  N   UNL d   1     -44.850  11.286  23.349  0.00  0.00    -0.298 N 
ATOM     20  C   UNL d   1     -44.129  11.421  22.990  0.00  0.00     0.107 A 
ATOM     21  C   UNL d   1     -43.562  10.824  22.980  0.00  0.00     0.142 A 
ATOM     22  O   UNL d   1     -43.722  10.098  23.329  0.00  0.00    -0.300 OA
ATOM     23  C   UNL d   1     -44.450   9.969  23.688  0.00  0.00     0.142 A 
ATOM     24  C   UNL d   1     -45.016  10.566  23.698  0.00  0.00     0.107 A 
ENDBRANCH  18  19
ENDBRANCH  17  18
ENDBRANCH   3  17
BRANCH   5  25
ATOM     25  C   UNL d   1     -47.896  11.771  22.971  0.00  0.00     0.116 A 
ATOM     26  O   UNL d   1     -48.172  11.256  22.379  0.00  0.00    -0.304 OA
ATOM     27  C   UNL d   1     -48.628  10.671  22.738  0.00  0.00     0.123 A 
ATOM     28  C   UNL d   1     -48.640  10.814  23.552  0.00  0.00     0.029 A 
ATOM     29  C   UNL d   1     -48.187  11.494  23.697  0.00  0.00     0.028 A 
ENDBRANCH   5  25
TORSDOF 4
ENDMDL
MODEL 4
REMARK VINA RESULT:      -4.8      1.340      1.767
REMARK  4 active torsions:
REMARK  status: ('A' for Active; 'I' for Inactive)
REMARK    1  A    between atoms: C_11  and  N_3 
REMARK    2  A    between atoms: C_10  and  C_5 
REMARK    3  A    between atoms: C_21  and  C_11 
REMARK    4  A    between atoms: N_12  and  C_21 
ROOT
ATOM      1  C   UNL d   1     -46.052  12.832  22.664  0.00  0.00     0.085 A 
ATOM      2  C   UNL d   1     -46.002  12.063  22.988  0.00  0.00     0.161 A 
ATOM      3  N   UNL d   1     -47.240  12.532  23.199  0.00  0.00    -0.268 N 
ATOM      4  C   UNL d   1     -46.735  11.883  23.316  0.00  0.00     0.288 A 
ATOM      5  C   UNL d   1     -46.816  13.115  22.797  0.00  0.00     0.095 A 
ATOM      6  C   UNL d   1     -45.387  13.166  22.291  0.00  0.00     0.201 A 
ATOM      7  O   UNL d   1     -45.295  11.641  22.936  0.00  0.00    -0.302 OA
ATOM      8  C   UNL d   1     -44.684  12.732  22.246  0.00  0.00     0.063 A 
ATOM      9  C   UNL d   1     -44.634  11.967  22.568  0.00  0.00     0.103 A 
ATOM     10  O   UNL d   1     -46.937  11.176  23.698  0.00  0.00    -0.264 OA
ATOM     11  O   UNL d   1     -45.432  13.923  21.970  0.00  0.00    -0.286 OA
ATOM     12  C   UNL d   1     -44.027  13.066  21.875  0.00  0.00     0.017 A 
ATOM     13  C   UNL d   1     -43.928  11.552  22.513  0.00  0.00     0.026 A 
ATOM     14  C   UNL d   1     -43.324  12.643  21.825  0.00  0.00     0.058 A 
ATOM     15  C   UNL d   1     -43.275  11.886  22.144  0.00  0.00     0.013 A 
ATOM     16 CL   UNL d   1     -42.671  12.978  21.455  0.00  0.00    -0.082 Cl
ENDROOT
BRANCH   3  17
ATOM     17  C   UNL d   1     -48.024  12.583  23.442  0.00  0.00     0.102 C 
BRANCH  17  18
ATOM     18  C   UNL d   1     -48.555  11.972  23.279  0.00  0.00     0.100 C 
BRANCH  18  19
ATOM     19  N   UNL d   1     -49.351  12.133  23.143  0.00  0.00    -0.298 N 
ATOM     20  C   UNL d   1     -49.704  11.869  22.457  0.00  0.00     0.107 A 
ATOM     21  C   UNL d   1     -50.500  12.030  22.321  0.00  0.00     0.142 A 
ATOM     22  O   UNL d   1     -50.934  12.454  22.873  0.00  0.00    -0.300 OA
ATOM     23  C   UNL d   1     -50.572  12.718  23.562  0.00  0.00     0.142 A 
ATOM     24  C   UNL d   1     -49.776  12.556  23.698  0.00  0.00     0.107 A 
ENDBRANCH  18  19
ENDBRANCH  17  18
ENDBRANCH   3  17
BRANCH   5  25
ATOM     25  C   UNL d   1     -47.067  13.862  22.550  0.00  0.00     0.116 A 
ATOM     26  O   UNL d   1     -47.404  14.054  21.815  0.00  0.00    -0.304 OA
ATOM     27  C   UNL d   1     -47.569  14.862  21.811  0.00  0.00     0.123 A 
ATOM     28  C   UNL d   1     -47.338  15.178  22.538  0.00  0.00     0.029 A 
ATOM     29  C   UNL d   1     -47.027  14.561  22.997  0.00  0.00     0.028 A 
ENDBRANCH   5  25
TORSDOF 4
ENDMDL
