MODEL 1
REMARK VINA RESULT:       1.5      0.000      0.000
REMARK  4 active torsions:
REMARK  status: ('A' for Active; 'I' for Inactive)
REMARK    1  A    between atoms: S_4  and  C_3 
REMARK    2  A    between atoms: C_12  and  S_4 
REMARK    3  A    between atoms: C_23  and  N_6 
REMARK    4  A    between atoms: C_27  and  C_23 
ROOT
ATOM      1  C   UNL d   1      59.111  -0.942  30.297  0.00  0.00     0.155 A 
ATOM      2  C   UNL d   1      58.432  -1.401  30.338  0.00  0.00     0.092 A 
ATOM      3  C   UNL d   1      57.871  -0.473  31.261  0.00  0.00     0.124 A 
ATOM      4  N   UNL d   1      59.737  -1.174  29.814  0.00  0.00    -0.210 NA
ATOM      5  N   UNL d   1      59.170  -0.252  30.734  0.00  0.00    -0.273 N 
ATOM      6  C   UNL d   1      58.546  -0.016  31.219  0.00  0.00     0.181 A 
ATOM      7  C   UNL d   1      58.372  -2.097  29.897  0.00  0.00     0.269 A 
ATOM      8  N   UNL d   1      58.997  -2.328  29.415  0.00  0.00    -0.258 N 
ATOM      9  C   UNL d   1      57.807  -1.170  30.821  0.00  0.00     0.022 A 
ATOM     10  C   UNL d   1      59.679  -1.867  29.373  0.00  0.00     0.152 A 
ATOM     11  N   UNL d   1      58.610   0.682  31.660  0.00  0.00    -0.128 N 
ATOM     12  C   UNL d   1      58.934  -3.026  28.974  0.00  0.00     0.084 A 
ATOM     13  O   UNL d   1      57.686  -2.553  29.944  0.00  0.00    -0.266 OA
ATOM     14  C   UNL d   1      60.298  -2.104  28.891  0.00  0.00     0.038 A 
ATOM     15  C   UNL d   1      59.562  -3.248  28.497  0.00  0.00     0.019 A 
ATOM     16  C   UNL d   1      60.244  -2.786  28.455  0.00  0.00     0.005 A 
ENDROOT
BRANCH   3  17
ATOM     17  S   UNL d   1      57.242  -0.236  31.749  0.00  0.00     0.213 S 
ATOM     18  O   UNL d   1      57.148   0.440  31.294  0.00  0.00    -0.217 OA
ATOM     19  O   UNL d   1      57.345  -0.925  32.205  0.00  0.00    -0.217 OA
BRANCH  17  20
ATOM     20  C   UNL d   1      56.616  -0.008  32.240  0.00  0.00     0.088 A 
ATOM     21  C   UNL d   1      56.670  -0.135  33.054  0.00  0.00     0.011 A 
ATOM     22  C   UNL d   1      56.053   0.089  33.542  0.00  0.00     0.001 A 
ATOM     23  C   UNL d   1      56.106  -0.037  34.355  0.00  0.00     0.000 C 
ATOM     24  C   UNL d   1      55.374   0.443  33.221  0.00  0.00     0.000 A 
ATOM     25  C   UNL d   1      55.320   0.570  32.407  0.00  0.00     0.001 A 
ATOM     26  C   UNL d   1      54.749   0.670  33.717  0.00  0.00     0.000 C 
ATOM     27  C   UNL d   1      55.946   0.343  31.911  0.00  0.00     0.011 A 
ENDBRANCH  17  20
ENDBRANCH   3  17
BRANCH   5  28
ATOM     28  C   UNL d   1      59.857   0.204  30.687  0.00  0.00     0.083 C 
BRANCH  28  29
ATOM     29  C   UNL d   1      60.255   0.415  31.378  0.00  0.00     0.019 C 
ATOM     30  C   UNL d   1      61.073   0.524  31.370  0.00  0.00     0.002 C 
ENDBRANCH  28  29
ENDBRANCH   5  28
TORSDOF 4
ENDMDL
