MODEL 1
REMARK VINA RESULT:      -1.4      0.000      0.000
REMARK  5 active torsions:
REMARK  status: ('A' for Active; 'I' for Inactive)
REMARK    1  A    between atoms: C_7  and  N_1 
REMARK    2  A    between atoms: C_23  and  C_5 
REMARK    3  A    between atoms: C_22  and  C_6 
REMARK    4  A    between atoms: C_8  and  C_7 
REMARK       I    between atoms: N_11  and  C_8 
REMARK    5  A    between atoms: C_17  and  N_11 
ROOT
ATOM      1  C   UNL d   1     -42.477-121.822 -50.753  0.00  0.00     0.148 C 
ENDROOT
BRANCH   1   2
ATOM      2  N   UNL d   1     -42.475-122.354 -50.121  0.00  0.00    -0.235 N 
ATOM      3  C   UNL d   1     -41.802-122.422 -49.641  0.00  0.00     0.273 A 
ATOM      4  C   UNL d   1     -41.800-122.948 -49.015  0.00  0.00     0.086 A 
ATOM      5  O   UNL d   1     -41.135-121.955 -49.796  0.00  0.00    -0.266 OA
ATOM      6  S   UNL d   1     -42.455-123.415 -48.853  0.00  0.00    -0.077 SA
ATOM      7  C   UNL d   1     -43.124-123.352 -49.327  0.00  0.00     0.086 A 
ATOM      8  C   UNL d   1     -43.141-122.824 -49.962  0.00  0.00     0.273 A 
ATOM      9  O   UNL d   1     -43.811-122.758 -50.439  0.00  0.00    -0.266 OA
BRANCH   4  10
ATOM     10  C   UNL d   1     -41.123-123.014 -48.533  0.00  0.00     0.011 C 
ATOM     11  C   UNL d   1     -41.193-123.294 -47.759  0.00  0.00     0.001 C 
ENDBRANCH   4  10
BRANCH   7  12
ATOM     12  C   UNL d   1     -43.787-123.817 -49.170  0.00  0.00     0.011 C 
ATOM     13  C   UNL d   1     -44.182-123.743 -48.448  0.00  0.00     0.001 C 
ENDBRANCH   7  12
ENDBRANCH   1   2
BRANCH   1  14
ATOM     14  C   UNL d   1     -42.099-122.022 -51.458  0.00  0.00     0.297 C 
ATOM     15  N   UNL d   1     -42.542-122.136 -52.134  0.00  0.00    -0.207 NA
ATOM     16  O   UNL d   1     -41.277-122.103 -51.470  0.00  0.00    -0.264 OA
BRANCH  15  17
ATOM     17  C   UNL d   1     -42.164-122.336 -52.840  0.00  0.00     0.087 A 
ATOM     18  C   UNL d   1     -42.289-121.881 -53.515  0.00  0.00     0.045 A 
ATOM     19  C   UNL d   1     -41.919-122.070 -54.220  0.00  0.00     0.121 A 
ATOM     20  O   UNL d   1     -41.937-121.724 -54.974  0.00  0.00    -0.299 OA
ATOM     21  C   UNL d   1     -41.415-122.723 -54.257  0.00  0.00     0.119 A 
ATOM     22  C   UNL d   1     -41.441-122.169 -55.471  0.00  0.00     0.304 A 
ATOM     23  O   UNL d   1     -41.127-122.779 -55.021  0.00  0.00    -0.300 OA
ATOM     24  C   UNL d   1     -41.294-123.177 -53.573  0.00  0.00     0.028 A 
ATOM     25  C   UNL d   1     -41.666-122.984 -52.869  0.00  0.00     0.021 A 
ENDBRANCH  15  17
ENDBRANCH   1  14
TORSDOF 5
ENDMDL
