MODEL 1
REMARK VINA RESULT:      76.2      0.000      0.000
REMARK  4 active torsions:
REMARK  status: ('A' for Active; 'I' for Inactive)
REMARK    1  A    between atoms: N_5  and  C_1 
REMARK    2  A    between atoms: N_8  and  C_3 
REMARK    3  A    between atoms: C_14  and  N_8 
REMARK    4  A    between atoms: C_16  and  C_14 
ROOT
ATOM      1  C   UNL d   1     -51.625  25.547  34.215  0.00  0.00     0.737 A 
ATOM      2  N   UNL d   1     -51.606  25.839  34.992  0.00  0.00    -0.041 NA
ATOM      3  C   UNL d   1     -51.046  26.413  35.209  0.00  0.00     0.182 A 
ATOM      4  N   UNL d   1     -51.083  25.828  33.651  0.00  0.00    -0.060 NA
ATOM      5  C   UNL d   1     -50.504  26.695  34.649  0.00  0.00     0.055 A 
ATOM      6  C   UNL d   1     -50.519  26.408  33.875  0.00  0.00     0.103 A 
ATOM      7  C   UNL d   1     -49.944  27.268  34.866  0.00  0.00     0.005 A 
ATOM      8  C   UNL d   1     -49.974  26.689  33.306  0.00  0.00     0.020 A 
ATOM      9  C   UNL d   1     -49.405  27.549  34.311  0.00  0.00     0.000 A 
ATOM     10  C   UNL d   1     -49.420  27.259  33.529  0.00  0.00     0.002 A 
ENDROOT
BRANCH   3  11
ATOM     11  N   UNL d   1     -51.027  26.716  36.017  0.00  0.00    -0.225 NA
BRANCH  11  12
ATOM     12  C   UNL d   1     -51.617  26.679  36.496  0.00  0.00     0.101 C 
BRANCH  12  13
ATOM     13  C   UNL d   1     -51.488  26.598  37.239  0.00  0.00     0.019 A 
ATOM     14  C   UNL d   1     -52.027  26.294  37.676  0.00  0.00     0.002 A 
ATOM     15  C   UNL d   1     -51.909  26.210  38.410  0.00  0.00     0.000 A 
ATOM     16  C   UNL d   1     -51.246  26.431  38.720  0.00  0.00     0.000 A 
ATOM     17  C   UNL d   1     -50.715  26.733  38.281  0.00  0.00     0.000 A 
ATOM     18  C   UNL d   1     -50.830  26.819  37.539  0.00  0.00     0.002 A 
ENDBRANCH  12  13
ENDBRANCH  11  12
ENDBRANCH   3  11
BRANCH   1  19
ATOM     19  N   UNL d   1     -52.196  24.961  33.989  0.00  0.00    -0.134 N 
ATOM     20  C   UNL d   1     -52.992  25.194  33.785  0.00  0.00     0.117 A 
ATOM     21  C   UNL d   1     -53.561  24.598  33.558  0.00  0.00     0.100 A 
ATOM     22  N   UNL d   1     -53.343  23.779  33.535  0.00  0.00    -0.299 N 
ATOM     23  C   UNL d   1     -52.547  23.546  33.739  0.00  0.00     0.100 A 
ATOM     24  C   UNL d   1     -53.916  23.189  33.308  0.00  0.00     0.100 C 
ATOM     25  C   UNL d   1     -51.971  24.131  33.967  0.00  0.00     0.117 A 
ENDBRANCH   1  19
TORSDOF 4
ENDMDL
MODEL 2
REMARK VINA RESULT:      77.9      2.320      3.108
REMARK  4 active torsions:
REMARK  status: ('A' for Active; 'I' for Inactive)
REMARK    1  A    between atoms: N_5  and  C_1 
REMARK    2  A    between atoms: N_8  and  C_3 
REMARK    3  A    between atoms: C_14  and  N_8 
REMARK    4  A    between atoms: C_16  and  C_14 
ROOT
ATOM      1  C   UNL d   1     -52.115  25.503  33.385  0.00  0.00     0.737 A 
ATOM      2  N   UNL d   1     -51.575  26.130  33.452  0.00  0.00    -0.041 NA
ATOM      3  C   UNL d   1     -50.759  25.977  33.470  0.00  0.00     0.182 A 
ATOM      4  N   UNL d   1     -51.841  24.719  33.336  0.00  0.00    -0.060 NA
ATOM      5  C   UNL d   1     -50.482  25.197  33.422  0.00  0.00     0.055 A 
ATOM      6  C   UNL d   1     -51.015  24.571  33.355  0.00  0.00     0.103 A 
ATOM      7  C   UNL d   1     -49.666  25.046  33.440  0.00  0.00     0.005 A 
ATOM      8  C   UNL d   1     -50.740  23.782  33.306  0.00  0.00     0.020 A 
ATOM      9  C   UNL d   1     -49.390  24.272  33.392  0.00  0.00     0.000 A 
ATOM     10  C   UNL d   1     -49.928  23.638  33.325  0.00  0.00     0.002 A 
ENDROOT
BRANCH   3  11
ATOM     11  N   UNL d   1     -50.198  26.630  33.540  0.00  0.00    -0.225 NA
BRANCH  11  12
ATOM     12  C   UNL d   1     -49.899  26.861  34.201  0.00  0.00     0.101 C 
BRANCH  12  13
ATOM     13  C   UNL d   1     -49.545  27.532  34.233  0.00  0.00     0.019 A 
ATOM     14  C   UNL d   1     -49.169  27.719  34.863  0.00  0.00     0.002 A 
ATOM     15  C   UNL d   1     -48.816  28.378  34.904  0.00  0.00     0.000 A 
ATOM     16  C   UNL d   1     -48.835  28.862  34.312  0.00  0.00     0.000 A 
ATOM     17  C   UNL d   1     -49.210  28.669  33.689  0.00  0.00     0.000 A 
ATOM     18  C   UNL d   1     -49.568  28.004  33.644  0.00  0.00     0.002 A 
ENDBRANCH  12  13
ENDBRANCH  11  12
ENDBRANCH   3  11
BRANCH   1  19
ATOM     19  N   UNL d   1     -52.950  25.654  33.366  0.00  0.00    -0.134 N 
ATOM     20  C   UNL d   1     -53.240  26.457  33.331  0.00  0.00     0.117 A 
ATOM     21  C   UNL d   1     -54.082  26.602  33.312  0.00  0.00     0.100 A 
ATOM     22  N   UNL d   1     -54.631  25.956  33.327  0.00  0.00    -0.299 N 
ATOM     23  C   UNL d   1     -54.342  25.153  33.362  0.00  0.00     0.100 A 
ATOM     24  C   UNL d   1     -55.471  26.107  33.308  0.00  0.00     0.100 C 
ATOM     25  C   UNL d   1     -53.505  24.997  33.381  0.00  0.00     0.117 A 
ENDBRANCH   1  19
TORSDOF 4
ENDMDL
