MODEL 1
REMARK VINA RESULT:      44.6      0.000      0.000
REMARK  5 active torsions:
REMARK  status: ('A' for Active; 'I' for Inactive)
REMARK    1  A    between atoms: S_2  and  C_1 
REMARK    2  A    between atoms: N_11  and  S_2 
REMARK    3  A    between atoms: C_14  and  N_11 
REMARK    4  A    between atoms: C_16  and  C_14 
REMARK    5  A    between atoms: C_15  and  C_16 
ROOT
ATOM      1  S   UNL d   1      59.204  49.681  50.691  0.00  0.00     0.287 S 
ATOM      2  O   UNL d   1      59.147  49.706  49.837  0.00  0.00    -0.198 OA
ATOM      3  O   UNL d   1      59.275  49.657  51.516  0.00  0.00    -0.198 OA
ENDROOT
BRANCH   1   4
ATOM      4  C   UNL d   1      58.374  49.689  50.747  0.00  0.00     0.125 A 
ATOM      5  C   UNL d   1      57.904  49.693  50.053  0.00  0.00     0.121 A 
ATOM      6  N   UNL d   1      58.104  49.690  49.241  0.00  0.00    -0.190 NA
ATOM      7  C   UNL d   1      57.082  49.701  50.126  0.00  0.00     0.110 A 
ATOM      8  S   UNL d   1      57.388  49.697  48.832  0.00  0.00     0.117 SA
ATOM      9  N   UNL d   1      56.760  49.704  49.373  0.00  0.00    -0.190 NA
ATOM     10  C   UNL d   1      56.728  49.705  50.892  0.00  0.00     0.021 A 
ATOM     11  C   UNL d   1      57.205  49.701  51.564  0.00  0.00     0.002 A 
ATOM     12  C   UNL d   1      58.025  49.693  51.504  0.00  0.00     0.015 A 
ENDBRANCH   1   4
BRANCH   1  13
ATOM     13  N   UNL d   1      60.042  49.673  50.624  0.00  0.00    -0.157 NA
BRANCH  13  14
ATOM     14  C   UNL d   1      60.517  49.279  51.189  0.00  0.00     0.112 C 
BRANCH  14  15
ATOM     15  C   UNL d   1      61.219  48.906  50.964  0.00  0.00     0.021 C 
BRANCH  15  16
ATOM     16  C   UNL d   1      61.224  48.064  50.896  0.00  0.00     0.002 A 
ATOM     17  C   UNL d   1      61.222  47.599  51.582  0.00  0.00     0.000 A 
ATOM     18  C   UNL d   1      61.227  46.786  51.511  0.00  0.00     0.000 A 
ATOM     19  C   UNL d   1      61.233  46.441  50.770  0.00  0.00     0.000 A 
ATOM     20  C   UNL d   1      61.236  46.892  50.101  0.00  0.00     0.000 A 
ATOM     21  C   UNL d   1      61.231  47.710  50.165  0.00  0.00     0.000 A 
ENDBRANCH  15  16
ENDBRANCH  14  15
ENDBRANCH  13  14
ENDBRANCH   1  13
TORSDOF 5
ENDMDL
