MODEL 1
REMARK VINA RESULT:      -3.0      0.000      0.000
REMARK  2 active torsions:
REMARK  status: ('A' for Active; 'I' for Inactive)
REMARK    1  A    between atoms: C_9  and  C_3 
REMARK    2  A    between atoms: C_8  and  C_4 
ROOT
ATOM      1  N   UNL d   1      30.290  15.875 -23.824  0.00  0.00    -0.242 NA
ATOM      2  N   UNL d   1      30.039  17.483 -24.083  0.00  0.00    -0.242 NA
ATOM      3  C   UNL d   1      30.931  16.379 -23.943  0.00  0.00     0.099 A 
ATOM      4  C   UNL d   1      30.806  17.178 -24.072  0.00  0.00     0.099 A 
ATOM      5  C   UNL d   1      29.526  16.177 -23.835  0.00  0.00     0.101 A 
ATOM      6  C   UNL d   1      29.402  16.976 -23.964  0.00  0.00     0.099 A 
ATOM      7  C   UNL d   1      28.888  15.674 -23.716  0.00  0.00     0.042 A 
ATOM      8  C   UNL d   1      28.638  17.282 -23.975  0.00  0.00     0.022 A 
ATOM      9  C   UNL d   1      28.123  15.976 -23.727  0.00  0.00     0.104 A 
ATOM     10  N   UNL d   1      27.489  15.473 -23.608  0.00  0.00    -0.148 N 
ATOM     11  C   UNL d   1      27.998  16.775 -23.856  0.00  0.00     0.023 A 
ENDROOT
BRANCH   3  12
ATOM     12  C   UNL d   1      31.689  16.075 -23.932  0.00  0.00     0.019 A 
ATOM     13  C   UNL d   1      32.031  15.785 -24.634  0.00  0.00     0.002 A 
ATOM     14  C   UNL d   1      32.800  15.476 -24.629  0.00  0.00     0.000 A 
ATOM     15  C   UNL d   1      33.235  15.455 -23.919  0.00  0.00     0.000 A 
ATOM     16  C   UNL d   1      32.885  15.749 -23.217  0.00  0.00     0.000 A 
ATOM     17  C   UNL d   1      32.120  16.055 -23.228  0.00  0.00     0.002 A 
ENDBRANCH   3  12
BRANCH   4  18
ATOM     18  C   UNL d   1      31.439  17.684 -24.191  0.00  0.00     0.019 A 
ATOM     19  C   UNL d   1      31.681  17.863 -24.968  0.00  0.00     0.002 A 
ATOM     20  C   UNL d   1      32.322  18.376 -25.096  0.00  0.00     0.000 A 
ATOM     21  C   UNL d   1      32.725  18.712 -24.446  0.00  0.00     0.000 A 
ATOM     22  C   UNL d   1      32.486  18.534 -23.671  0.00  0.00     0.000 A 
ATOM     23  C   UNL d   1      31.842  18.019 -23.541  0.00  0.00     0.002 A 
ENDBRANCH   4  18
TORSDOF 2
ENDMDL
