MODEL 1
REMARK VINA RESULT:      62.1      0.000      0.000
REMARK  5 active torsions:
REMARK  status: ('A' for Active; 'I' for Inactive)
REMARK    1  A    between atoms: C_10  and  N_1 
REMARK    2  A    between atoms: S_7  and  C_2 
REMARK    3  A    between atoms: C_12  and  S_7 
REMARK    4  A    between atoms: C_9  and  C_12 
REMARK    5  A    between atoms: O_16  and  C_9 
ROOT
ATOM      1  N   UNL d   1     -54.831-100.882 -43.253  0.00  0.00    -0.254 N 
ATOM      2  C   UNL d   1     -54.855-101.633 -43.606  0.00  0.00     0.182 A 
ATOM      3  C   UNL d   1     -54.783-100.815 -42.428  0.00  0.00     0.274 A 
ATOM      4  C   UNL d   1     -54.761-101.493 -41.959  0.00  0.00     0.104 A 
ATOM      5  N   UNL d   1     -54.832-102.316 -43.134  0.00  0.00    -0.222 NA
ATOM      6  C   UNL d   1     -54.785-102.244 -42.312  0.00  0.00     0.095 A 
ATOM      7  S   UNL d   1     -54.715-101.599 -41.147  0.00  0.00    -0.080 SA
ATOM      8  O   UNL d   1     -54.760-100.069 -42.077  0.00  0.00    -0.266 OA
ATOM      9  C   UNL d   1     -54.754-102.808 -41.716  0.00  0.00     0.027 A 
ATOM     10  C   UNL d   1     -54.711-102.421 -41.001  0.00  0.00     0.037 A 
ENDROOT
BRANCH   2  11
ATOM     11  S   UNL d   1     -54.902-101.702 -44.436  0.00  0.00    -0.044 SA
BRANCH  11  12
ATOM     12  C   UNL d   1     -55.501-102.177 -44.758  0.00  0.00     0.095 C 
ATOM     13  C   UNL d   1     -56.193-102.305 -44.336  0.00  0.00     0.013 C 
BRANCH  12  14
ATOM     14  C   UNL d   1     -55.423-102.433 -45.316  0.00  0.00     0.302 C 
ATOM     15  O   UNL d   1     -54.713-102.335 -45.719  0.00  0.00    -0.259 OA
BRANCH  14  16
ATOM     16  O   UNL d   1     -56.039-102.876 -45.654  0.00  0.00    -0.295 OA
ATOM     17  C   UNL d   1     -56.357-102.657 -46.386  0.00  0.00     0.185 C 
ENDBRANCH  14  16
ENDBRANCH  12  14
ENDBRANCH  11  12
ENDBRANCH   2  11
BRANCH   1  18
ATOM     18  C   UNL d   1     -54.853-100.206 -43.718  0.00  0.00     0.069 A 
ATOM     19  C   UNL d   1     -55.019 -99.470 -43.372  0.00  0.00     0.018 A 
ATOM     20  C   UNL d   1     -55.042 -98.790 -43.838  0.00  0.00     0.002 A 
ATOM     21  C   UNL d   1     -54.900 -98.840 -44.649  0.00  0.00     0.000 A 
ATOM     22  C   UNL d   1     -54.735 -99.575 -44.995  0.00  0.00     0.002 A 
ATOM     23  C   UNL d   1     -54.712-100.255 -44.530  0.00  0.00     0.018 A 
ENDBRANCH   1  18
TORSDOF 5
ENDMDL
