MODEL 1
REMARK VINA RESULT:      11.7      0.000      0.000
REMARK  3 active torsions:
REMARK  status: ('A' for Active; 'I' for Inactive)
REMARK    1  A    between atoms: N_2  and  S_1 
REMARK    2  A    between atoms: C_5  and  S_1 
REMARK    3  A    between atoms: C_4  and  C_3 
REMARK       I    between atoms: N_8  and  C_4 
ROOT
ATOM      1  N   UNL d   1     -41.727-122.412 -52.832  0.00  0.00    -0.226 N 
ATOM      2  C   UNL d   1     -41.491-121.723 -52.459  0.00  0.00     0.131 A 
ATOM      3  C   UNL d   1     -41.767-123.114 -52.395  0.00  0.00     0.092 A 
ATOM      4  C   UNL d   1     -41.296-121.728 -51.661  0.00  0.00     0.023 A 
ATOM      5  C   UNL d   1     -41.574-123.118 -51.606  0.00  0.00     0.018 A 
ATOM      6  C   UNL d   1     -41.336-122.419 -51.234  0.00  0.00     0.003 A 
ATOM      7  C   UNL d   1     -41.611-123.813 -51.165  0.00  0.00     0.002 A 
ATOM      8  C   UNL d   1     -41.138-122.408 -50.437  0.00  0.00     0.000 A 
ATOM      9  C   UNL d   1     -41.176-123.107 -49.998  0.00  0.00     0.000 A 
ATOM     10  C   UNL d   1     -41.414-123.813 -50.365  0.00  0.00     0.000 A 
ENDROOT
BRANCH   2  11
ATOM     11  C   UNL d   1     -41.452-121.021 -52.896  0.00  0.00     0.282 C 
ATOM     12  N   UNL d   1     -41.350-120.299 -52.507  0.00  0.00    -0.271 N 
ATOM     13  C   UNL d   1     -41.295-120.341 -51.691  0.00  0.00     0.083 A 
ATOM     14  C   UNL d   1     -41.318-119.631 -52.997  0.00  0.00     0.083 A 
ATOM     15  C   UNL d   1     -41.194-119.728 -51.145  0.00  0.00     0.019 A 
ATOM     16  C   UNL d   1     -41.123-118.926 -51.287  0.00  0.00     0.002 A 
ATOM     17  C   UNL d   1     -41.134-118.524 -52.010  0.00  0.00     0.002 A 
ATOM     18  C   UNL d   1     -41.222-118.842 -52.774  0.00  0.00     0.019 A 
ATOM     19  O   UNL d   1     -41.512-121.033 -53.714  0.00  0.00    -0.265 OA
ENDBRANCH   2  11
BRANCH   1  20
ATOM     20  S   UNL d   1     -41.924-122.412 -53.633  0.00  0.00     0.277 S 
ATOM     21  O   UNL d   1     -41.124-122.520 -53.794  0.00  0.00    -0.199 OA
ATOM     22  O   UNL d   1     -42.726-122.303 -53.464  0.00  0.00    -0.199 OA
BRANCH  20  23
ATOM     23  C   UNL d   1     -42.106-122.414 -54.439  0.00  0.00     0.133 A 
ATOM     24  S   UNL d   1     -41.837-122.959 -54.991  0.00  0.00    -0.074 SA
ATOM     25  C   UNL d   1     -42.149-122.760 -55.726  0.00  0.00     0.036 A 
ATOM     26  C   UNL d   1     -42.617-122.081 -55.629  0.00  0.00     0.008 A 
ATOM     27  C   UNL d   1     -42.588-121.870 -54.830  0.00  0.00     0.020 A 
ENDBRANCH  20  23
ENDBRANCH   1  20
TORSDOF 3
ENDMDL
