MODEL 1
REMARK VINA RESULT:     102.3      0.000      0.000
REMARK  2 active torsions:
REMARK  status: ('A' for Active; 'I' for Inactive)
REMARK    1  A    between atoms: C_13  and  C_2 
REMARK    2  A    between atoms: N_12  and  C_8 
ROOT
ATOM      1  N   UNL d   1      59.686  49.353  51.819  0.00  0.00    -0.301 N 
ATOM      2  C   UNL d   1      59.510  49.384  50.400  0.00  0.00     0.121 A 
ATOM      3  C   UNL d   1      58.876  49.380  51.918  0.00  0.00     0.092 A 
ATOM      4  C   UNL d   1      58.546  49.378  52.686  0.00  0.00     0.134 A 
ATOM      5  C   UNL d   1      58.377  49.409  51.261  0.00  0.00     0.060 A 
ATOM      6  C   UNL d   1      60.008  49.355  51.057  0.00  0.00     0.090 A 
ATOM      7  C   UNL d   1      58.694  49.411  50.513  0.00  0.00     0.204 A 
ATOM      8  C   UNL d   1      57.726  49.405  52.792  0.00  0.00     0.116 A 
ATOM      9  O   UNL d   1      59.050  49.349  53.350  0.00  0.00    -0.301 OA
ATOM     10  C   UNL d   1      57.228  49.434  52.135  0.00  0.00     0.158 A 
ATOM     11  C   UNL d   1      57.570  49.435  51.368  0.00  0.00     0.036 A 
ATOM     12  C   UNL d   1      60.183  49.324  52.474  0.00  0.00     0.089 A 
ATOM     13  O   UNL d   1      58.191  49.440  49.850  0.00  0.00    -0.286 OA
ATOM     14  C   UNL d   1      59.873  49.322  53.231  0.00  0.00     0.140 A 
ATOM     15  F   UNL d   1      56.397  49.462  52.226  0.00  0.00    -0.203 F 
ATOM     16  C   UNL d   1      61.006  49.297  52.370  0.00  0.00     0.021 C 
ENDROOT
BRANCH   8  17
ATOM     17  N   UNL d   1      57.403  49.404  53.551  0.00  0.00    -0.298 N 
ATOM     18  C   UNL d   1      56.605  49.179  53.659  0.00  0.00     0.100 A 
ATOM     19  C   UNL d   1      56.292  49.182  54.432  0.00  0.00     0.100 A 
ATOM     20  N   UNL d   1      56.759  49.402  55.076  0.00  0.00    -0.299 N 
ATOM     21  C   UNL d   1      57.553  49.621  54.935  0.00  0.00     0.100 A 
ATOM     22  C   UNL d   1      56.439  49.402  55.841  0.00  0.00     0.100 C 
ATOM     23  C   UNL d   1      57.870  49.623  54.195  0.00  0.00     0.100 A 
ENDBRANCH   8  17
BRANCH   2  24
ATOM     24  C   UNL d   1      59.821  49.386  49.624  0.00  0.00     0.215 C 
ATOM     25  O   UNL d   1      60.611  49.163  49.478  0.00  0.00    -0.644 OA
ATOM     26  O   UNL d   1      59.345  49.611  48.994  0.00  0.00    -0.644 OA
ENDBRANCH   2  24
TORSDOF 2
ENDMDL
