MODEL 1
REMARK VINA RESULT:      -2.3      0.000      0.000
REMARK  8 active torsions:
REMARK  status: ('A' for Active; 'I' for Inactive)
REMARK    1  A    between atoms: C_14  and  N_1 
REMARK    2  A    between atoms: N_9  and  C_2 
REMARK    3  A    between atoms: C_6  and  C_5 
REMARK    4  A    between atoms: C_7  and  C_6 
REMARK       I    between atoms: N_8  and  C_7 
REMARK    5  A    between atoms: C_10  and  N_8 
REMARK    6  A    between atoms: C_16  and  N_9 
REMARK    7  A    between atoms: O_15  and  C_13 
REMARK    8  A    between atoms: C_19  and  O_15 
ROOT
ATOM      1  C   UNL d   1      56.884  -0.841  31.779  0.00  0.00     0.074 C 
ENDROOT
BRANCH   1   2
ATOM      2  C   UNL d   1      56.646  -0.386  32.427  0.00  0.00     0.093 A 
ATOM      3  C   UNL d   1      57.132  -0.115  33.036  0.00  0.00     0.272 A 
ATOM      4  N   UNL d   1      56.670   0.317  33.567  0.00  0.00    -0.252 N 
ATOM      5  O   UNL d   1      57.945  -0.254  33.104  0.00  0.00    -0.266 OA
ATOM      6  C   UNL d   1      55.892   0.315  33.285  0.00  0.00     0.182 A 
ATOM      7  S   UNL d   1      55.874  -0.116  32.584  0.00  0.00    -0.045 SA
BRANCH   4   8
ATOM      8  C   UNL d   1      56.943   0.682  34.252  0.00  0.00     0.085 C 
ATOM      9  C   UNL d   1      57.742   0.658  34.444  0.00  0.00     0.021 C 
ENDBRANCH   4   8
BRANCH   6  10
ATOM     10  N   UNL d   1      55.253   0.682  33.646  0.00  0.00    -0.221 NA
BRANCH  10  11
ATOM     11  C   UNL d   1      54.485   0.432  33.496  0.00  0.00     0.101 C 
ATOM     12  C   UNL d   1      53.903   0.477  34.080  0.00  0.00     0.022 C 
ENDBRANCH  10  11
ENDBRANCH   6  10
ENDBRANCH   1   2
BRANCH   1  13
ATOM     13  C   UNL d   1      57.202  -0.472  31.113  0.00  0.00     0.280 C 
ATOM     14  N   UNL d   1      57.676  -0.891  30.593  0.00  0.00    -0.206 NA
ATOM     15  O   UNL d   1      57.039   0.323  30.978  0.00  0.00    -0.265 OA
BRANCH  14  16
ATOM     16  C   UNL d   1      57.993  -0.520  29.929  0.00  0.00     0.107 A 
ATOM     17  C   UNL d   1      58.463  -0.943  29.400  0.00  0.00     0.118 A 
ATOM     18  C   UNL d   1      58.780  -0.571  28.736  0.00  0.00     0.026 A 
ATOM     19  C   UNL d   1      58.621   0.236  28.603  0.00  0.00     0.002 A 
ATOM     20  C   UNL d   1      58.155   0.658  29.128  0.00  0.00     0.002 A 
ATOM     21  C   UNL d   1      57.836   0.289  29.793  0.00  0.00     0.021 A 
BRANCH  17  22
ATOM     22  O   UNL d   1      58.613  -1.743  29.542  0.00  0.00    -0.304 OA
BRANCH  22  23
ATOM     23  C   UNL d   1      59.175  -2.137  29.090  0.00  0.00     0.123 C 
ATOM     24  C   UNL d   1      59.333  -2.936  29.225  0.00  0.00     0.029 C 
ENDBRANCH  22  23
ENDBRANCH  17  22
ENDBRANCH  14  16
ENDBRANCH   1  13
TORSDOF 8
ENDMDL
MODEL 2
REMARK VINA RESULT:      -2.3      1.127      1.644
REMARK  8 active torsions:
REMARK  status: ('A' for Active; 'I' for Inactive)
REMARK    1  A    between atoms: C_14  and  N_1 
REMARK    2  A    between atoms: N_9  and  C_2 
REMARK    3  A    between atoms: C_6  and  C_5 
REMARK    4  A    between atoms: C_7  and  C_6 
REMARK       I    between atoms: N_8  and  C_7 
REMARK    5  A    between atoms: C_10  and  N_8 
REMARK    6  A    between atoms: C_16  and  N_9 
REMARK    7  A    between atoms: O_15  and  C_13 
REMARK    8  A    between atoms: C_19  and  O_15 
ROOT
ATOM      1  C   UNL d   1      58.006   0.555  31.145  0.00  0.00     0.074 C 
ENDROOT
BRANCH   1   2
ATOM      2  C   UNL d   1      57.602   0.466  31.861  0.00  0.00     0.093 A 
ATOM      3  C   UNL d   1      57.931   0.522  32.616  0.00  0.00     0.272 A 
ATOM      4  N   UNL d   1      57.333   0.396  33.172  0.00  0.00    -0.252 N 
ATOM      5  O   UNL d   1      58.725   0.677  32.786  0.00  0.00    -0.266 OA
ATOM      6  C   UNL d   1      56.629   0.261  32.759  0.00  0.00     0.182 A 
ATOM      7  S   UNL d   1      56.790   0.303  31.953  0.00  0.00    -0.045 SA
BRANCH   4   8
ATOM      8  C   UNL d   1      57.429   0.404  33.988  0.00  0.00     0.085 C 
ATOM      9  C   UNL d   1      58.183   0.414  34.317  0.00  0.00     0.021 C 
ENDBRANCH   4   8
BRANCH   6  10
ATOM     10  N   UNL d   1      55.898   0.111  33.101  0.00  0.00    -0.221 NA
BRANCH  10  11
ATOM     11  C   UNL d   1      55.239   0.558  32.896  0.00  0.00     0.101 C 
ATOM     12  C   UNL d   1      54.543   0.513  33.338  0.00  0.00     0.022 C 
ENDBRANCH  10  11
ENDBRANCH   6  10
ENDBRANCH   1   2
BRANCH   1  13
ATOM     13  C   UNL d   1      58.078  -0.087  30.632  0.00  0.00     0.280 C 
ATOM     14  N   UNL d   1      58.795  -0.254  30.275  0.00  0.00    -0.206 NA
ATOM     15  O   UNL d   1      57.420  -0.559  30.484  0.00  0.00    -0.265 OA
BRANCH  14  16
ATOM     16  C   UNL d   1      58.865  -0.897  29.763  0.00  0.00     0.107 A 
ATOM     17  C   UNL d   1      59.385  -0.867  29.125  0.00  0.00     0.118 A 
ATOM     18  C   UNL d   1      59.454  -1.510  28.613  0.00  0.00     0.026 A 
ATOM     19  C   UNL d   1      58.993  -2.190  28.747  0.00  0.00     0.002 A 
ATOM     20  C   UNL d   1      58.475  -2.222  29.380  0.00  0.00     0.002 A 
ATOM     21  C   UNL d   1      58.404  -1.581  29.894  0.00  0.00     0.021 A 
BRANCH  17  22
ATOM     22  O   UNL d   1      59.838  -0.186  29.003  0.00  0.00    -0.304 OA
BRANCH  22  23
ATOM     23  C   UNL d   1      60.450  -0.197  28.455  0.00  0.00     0.123 C 
ATOM     24  C   UNL d   1      61.041   0.379  28.477  0.00  0.00     0.029 C 
ENDBRANCH  22  23
ENDBRANCH  17  22
ENDBRANCH  14  16
ENDBRANCH   1  13
TORSDOF 8
ENDMDL
MODEL 3
REMARK VINA RESULT:      -2.3      1.508      4.938
REMARK  8 active torsions:
REMARK  status: ('A' for Active; 'I' for Inactive)
REMARK    1  A    between atoms: C_14  and  N_1 
REMARK    2  A    between atoms: N_9  and  C_2 
REMARK    3  A    between atoms: C_6  and  C_5 
REMARK    4  A    between atoms: C_7  and  C_6 
REMARK       I    between atoms: N_8  and  C_7 
REMARK    5  A    between atoms: C_10  and  N_8 
REMARK    6  A    between atoms: C_16  and  N_9 
REMARK    7  A    between atoms: O_15  and  C_13 
REMARK    8  A    between atoms: C_19  and  O_15 
ROOT
ATOM      1  C   UNL d   1      57.411  -0.262  30.490  0.00  0.00     0.074 C 
ENDROOT
BRANCH   1   2
ATOM      2  C   UNL d   1      58.096  -0.528  30.110  0.00  0.00     0.093 A 
ATOM      3  C   UNL d   1      58.234  -1.292  29.834  0.00  0.00     0.272 A 
ATOM      4  N   UNL d   1      58.986  -1.316  29.491  0.00  0.00    -0.252 N 
ATOM      5  O   UNL d   1      57.708  -1.929  29.891  0.00  0.00    -0.266 OA
ATOM      6  C   UNL d   1      59.315  -0.560  29.555  0.00  0.00     0.182 A 
ATOM      7  S   UNL d   1      58.771  -0.072  29.935  0.00  0.00    -0.045 SA
BRANCH   4   8
ATOM      8  C   UNL d   1      59.335  -1.977  29.150  0.00  0.00     0.085 C 
ATOM      9  C   UNL d   1      58.877  -2.527  28.746  0.00  0.00     0.021 C 
ENDBRANCH   4   8
BRANCH   6  10
ATOM     10  N   UNL d   1      60.058  -0.340  29.285  0.00  0.00    -0.221 NA
BRANCH  10  11
ATOM     11  C   UNL d   1      60.289   0.449  29.286  0.00  0.00     0.101 C 
ATOM     12  C   UNL d   1      61.073   0.660  29.439  0.00  0.00     0.022 C 
ENDBRANCH  10  11
ENDBRANCH   6  10
ENDBRANCH   1   2
BRANCH   1  13
ATOM     13  C   UNL d   1      57.456   0.024  31.263  0.00  0.00     0.280 C 
ATOM     14  N   UNL d   1      56.937  -0.246  31.835  0.00  0.00    -0.206 NA
ATOM     15  O   UNL d   1      58.029   0.584  31.451  0.00  0.00    -0.265 OA
BRANCH  14  16
ATOM     16  C   UNL d   1      56.985   0.041  32.607  0.00  0.00     0.107 A 
ATOM     17  C   UNL d   1      56.338  -0.019  33.114  0.00  0.00     0.118 A 
ATOM     18  C   UNL d   1      56.386   0.269  33.886  0.00  0.00     0.026 A 
ATOM     19  C   UNL d   1      57.094   0.620  34.149  0.00  0.00     0.002 A 
ATOM     20  C   UNL d   1      57.737   0.681  33.646  0.00  0.00     0.002 A 
ATOM     21  C   UNL d   1      57.693   0.394  32.874  0.00  0.00     0.021 A 
BRANCH  17  22
ATOM     22  O   UNL d   1      55.641  -0.370  32.842  0.00  0.00    -0.304 OA
BRANCH  22  23
ATOM     23  C   UNL d   1      54.970  -0.364  33.317  0.00  0.00     0.123 C 
ATOM     24  C   UNL d   1      54.511  -1.045  33.399  0.00  0.00     0.029 C 
ENDBRANCH  22  23
ENDBRANCH  17  22
ENDBRANCH  14  16
ENDBRANCH   1  13
TORSDOF 8
ENDMDL
MODEL 4
REMARK VINA RESULT:      -0.9      8.389      9.408
REMARK  8 active torsions:
REMARK  status: ('A' for Active; 'I' for Inactive)
REMARK    1  A    between atoms: C_14  and  N_1 
REMARK    2  A    between atoms: N_9  and  C_2 
REMARK    3  A    between atoms: C_6  and  C_5 
REMARK    4  A    between atoms: C_7  and  C_6 
REMARK       I    between atoms: N_8  and  C_7 
REMARK    5  A    between atoms: C_10  and  N_8 
REMARK    6  A    between atoms: C_16  and  N_9 
REMARK    7  A    between atoms: O_15  and  C_13 
REMARK    8  A    between atoms: C_19  and  O_15 
ROOT
ATOM      1  C   UNL d   1      59.973  -9.492  33.384  0.00  0.00     0.074 C 
ENDROOT
BRANCH   1   2
ATOM      2  C   UNL d   1      59.982  -9.109  34.117  0.00  0.00     0.093 A 
ATOM      3  C   UNL d   1      60.505  -9.258  34.737  0.00  0.00     0.272 A 
ATOM      4  N   UNL d   1      60.318  -8.753  35.365  0.00  0.00    -0.252 N 
ATOM      5  O   UNL d   1      61.114  -9.818  34.731  0.00  0.00    -0.266 OA
ATOM      6  C   UNL d   1      59.675  -8.289  35.131  0.00  0.00     0.182 A 
ATOM      7  S   UNL d   1      59.465  -8.505  34.365  0.00  0.00    -0.045 SA
BRANCH   4   8
ATOM      8  C   UNL d   1      60.708  -8.725  36.087  0.00  0.00     0.085 C 
ATOM      9  C   UNL d   1      61.133  -8.055  36.304  0.00  0.00     0.021 C 
ENDBRANCH   4   8
BRANCH   6  10
ATOM     10  N   UNL d   1      59.312  -7.713  35.590  0.00  0.00    -0.221 NA
BRANCH  10  11
ATOM     11  C   UNL d   1      58.838  -7.138  35.245  0.00  0.00     0.101 C 
ATOM     12  C   UNL d   1      58.579  -6.485  35.679  0.00  0.00     0.022 C 
ENDBRANCH  10  11
ENDBRANCH   6  10
ENDBRANCH   1   2
BRANCH   1  13
ATOM     13  C   UNL d   1      59.259  -9.591  32.983  0.00  0.00     0.280 C 
ATOM     14  N   UNL d   1      59.227  -9.516  32.168  0.00  0.00    -0.206 NA
ATOM     15  O   UNL d   1      58.579  -9.767  33.411  0.00  0.00    -0.265 OA
BRANCH  14  16
ATOM     16  C   UNL d   1      58.511  -9.616  31.769  0.00  0.00     0.107 A 
ATOM     17  C   UNL d   1      58.502  -9.718  30.952  0.00  0.00     0.118 A 
ATOM     18  C   UNL d   1      57.786  -9.818  30.553  0.00  0.00     0.026 A 
ATOM     19  C   UNL d   1      57.074  -9.815  30.985  0.00  0.00     0.002 A 
ATOM     20  C   UNL d   1      57.082  -9.713  31.797  0.00  0.00     0.002 A 
ATOM     21  C   UNL d   1      57.795  -9.613  32.199  0.00  0.00     0.021 A 
BRANCH  17  22
ATOM     22  O   UNL d   1      59.215  -9.719  30.535  0.00  0.00    -0.304 OA
BRANCH  22  23
ATOM     23  C   UNL d   1      59.263  -9.335  29.809  0.00  0.00     0.123 C 
ATOM     24  C   UNL d   1      59.496  -9.748  29.134  0.00  0.00     0.029 C 
ENDBRANCH  22  23
ENDBRANCH  17  22
ENDBRANCH  14  16
ENDBRANCH   1  13
TORSDOF 8
ENDMDL
