MODEL 1
REMARK VINA RESULT:      -6.3      0.000      0.000
REMARK  8 active torsions:
REMARK  status: ('A' for Active; 'I' for Inactive)
REMARK    1  A    between atoms: C_2  and  P_1 
REMARK    2  A    between atoms: O_5  and  P_1 
REMARK    3  A    between atoms: O_6  and  P_1 
REMARK    4  A    between atoms: N_3  and  C_2 
REMARK       I    between atoms: C_4  and  N_3 
REMARK    5  A    between atoms: C_9  and  C_4 
REMARK    6  A    between atoms: C_12  and  O_5 
REMARK    7  A    between atoms: C_11  and  O_6 
REMARK    8  A    between atoms: C_10  and  C_9 
ROOT
ATOM      1  C   UNL d   1     -48.800  14.535  22.576  0.00  0.00     0.165 C 
ATOM      2  C   UNL d   1     -48.684  15.273  22.226  0.00  0.00     0.029 C 
ENDROOT
BRANCH   1   3
ATOM      3  P   UNL d   1     -49.507  14.122  22.460  0.00  0.00     0.392 P 
ATOM      4  O   UNL d   1     -49.277  13.976  21.654  0.00  0.00    -0.251 OA
BRANCH   3   5
ATOM      5  O   UNL d   1     -50.229  13.695  22.328  0.00  0.00    -0.265 OA
BRANCH   5   6
ATOM      6  C   UNL d   1     -50.245  13.062  21.799  0.00  0.00     0.103 C 
ATOM      7  C   UNL d   1     -49.946  12.333  22.022  0.00  0.00     0.027 C 
ATOM      8  C   UNL d   1     -50.558  13.145  21.042  0.00  0.00     0.027 C 
ENDBRANCH   5   6
ENDBRANCH   3   5
BRANCH   3   9
ATOM      9  O   UNL d   1     -49.722  14.268  23.244  0.00  0.00    -0.265 OA
BRANCH   9  10
ATOM     10  C   UNL d   1     -50.406  14.694  23.411  0.00  0.00     0.103 C 
ATOM     11  C   UNL d   1     -50.427  15.496  23.285  0.00  0.00     0.027 C 
ATOM     12  C   UNL d   1     -51.055  14.316  23.698  0.00  0.00     0.027 C 
ENDBRANCH   9  10
ENDBRANCH   3   9
ENDBRANCH   1   3
BRANCH   1  13
ATOM     13  N   UNL d   1     -48.206  14.211  23.045  0.00  0.00    -0.200 NA
ATOM     14  C   UNL d   1     -47.409  14.402  22.892  0.00  0.00     0.280 C 
ATOM     15  O   UNL d   1     -47.214  14.915  22.273  0.00  0.00    -0.265 OA
BRANCH  14  16
ATOM     16  C   UNL d   1     -46.809  14.062  23.380  0.00  0.00     0.062 C 
BRANCH  16  17
ATOM     17  C   UNL d   1     -46.267  13.511  23.018  0.00  0.00     0.005 A 
ATOM     18  C   UNL d   1     -46.322  12.705  23.227  0.00  0.00     0.000 A 
ATOM     19  C   UNL d   1     -45.806  12.145  22.889  0.00  0.00     0.000 A 
ATOM     20  C   UNL d   1     -45.241  12.400  22.346  0.00  0.00     0.000 A 
ATOM     21  C   UNL d   1     -45.194  13.215  22.142  0.00  0.00     0.000 A 
ATOM     22  C   UNL d   1     -45.703  13.766  22.475  0.00  0.00     0.000 A 
ENDBRANCH  16  17
ENDBRANCH  14  16
ENDBRANCH   1  13
TORSDOF 8
ENDMDL
MODEL 2
REMARK VINA RESULT:      -6.0      0.910      1.794
REMARK  8 active torsions:
REMARK  status: ('A' for Active; 'I' for Inactive)
REMARK    1  A    between atoms: C_2  and  P_1 
REMARK    2  A    between atoms: O_5  and  P_1 
REMARK    3  A    between atoms: O_6  and  P_1 
REMARK    4  A    between atoms: N_3  and  C_2 
REMARK       I    between atoms: C_4  and  N_3 
REMARK    5  A    between atoms: C_9  and  C_4 
REMARK    6  A    between atoms: C_12  and  O_5 
REMARK    7  A    between atoms: C_11  and  O_6 
REMARK    8  A    between atoms: C_10  and  C_9 
ROOT
ATOM      1  C   UNL d   1     -48.909  13.415  22.271  0.00  0.00     0.165 C 
ATOM      2  C   UNL d   1     -48.812  13.175  21.488  0.00  0.00     0.029 C 
ENDROOT
BRANCH   1   3
ATOM      3  P   UNL d   1     -49.664  13.559  22.576  0.00  0.00     0.392 P 
ATOM      4  O   UNL d   1     -49.742  14.218  22.045  0.00  0.00    -0.251 OA
BRANCH   3   5
ATOM      5  O   UNL d   1     -50.441  13.717  22.881  0.00  0.00    -0.265 OA
BRANCH   5   6
ATOM      6  C   UNL d   1     -50.715  14.493  22.934  0.00  0.00     0.103 C 
ATOM      7  C   UNL d   1     -51.060  14.851  22.284  0.00  0.00     0.027 C 
ATOM      8  C   UNL d   1     -50.650  14.923  23.633  0.00  0.00     0.027 C 
ENDBRANCH   5   6
ENDBRANCH   3   5
BRANCH   3   9
ATOM      9  O   UNL d   1     -49.580  12.917  23.089  0.00  0.00    -0.265 OA
BRANCH   9  10
ATOM     10  C   UNL d   1     -50.093  12.275  23.033  0.00  0.00     0.103 C 
ATOM     11  C   UNL d   1     -50.281  11.847  23.698  0.00  0.00     0.027 C 
ATOM     12  C   UNL d   1     -50.407  12.073  22.323  0.00  0.00     0.027 C 
ENDBRANCH   9  10
ENDBRANCH   3   9
ENDBRANCH   1   3
BRANCH   1  13
ATOM     13  N   UNL d   1     -48.247  13.512  22.751  0.00  0.00    -0.200 NA
ATOM     14  C   UNL d   1     -47.494  13.594  22.402  0.00  0.00     0.280 C 
ATOM     15  O   UNL d   1     -47.410  13.579  21.580  0.00  0.00    -0.265 OA
BRANCH  14  16
ATOM     16  C   UNL d   1     -46.822  13.693  22.906  0.00  0.00     0.062 C 
BRANCH  16  17
ATOM     17  C   UNL d   1     -46.142  13.198  22.762  0.00  0.00     0.005 A 
ATOM     18  C   UNL d   1     -45.533  13.493  22.273  0.00  0.00     0.000 A 
ATOM     19  C   UNL d   1     -44.857  13.032  22.116  0.00  0.00     0.000 A 
ATOM     20  C   UNL d   1     -44.800  12.280  22.450  0.00  0.00     0.000 A 
ATOM     21  C   UNL d   1     -45.420  11.992  22.941  0.00  0.00     0.000 A 
ATOM     22  C   UNL d   1     -46.086  12.448  23.096  0.00  0.00     0.000 A 
ENDBRANCH  16  17
ENDBRANCH  14  16
ENDBRANCH   1  13
TORSDOF 8
ENDMDL
MODEL 3
REMARK VINA RESULT:      -5.8      1.071      1.547
REMARK  8 active torsions:
REMARK  status: ('A' for Active; 'I' for Inactive)
REMARK    1  A    between atoms: C_2  and  P_1 
REMARK    2  A    between atoms: O_5  and  P_1 
REMARK    3  A    between atoms: O_6  and  P_1 
REMARK    4  A    between atoms: N_3  and  C_2 
REMARK       I    between atoms: C_4  and  N_3 
REMARK    5  A    between atoms: C_9  and  C_4 
REMARK    6  A    between atoms: C_12  and  O_5 
REMARK    7  A    between atoms: C_11  and  O_6 
REMARK    8  A    between atoms: C_10  and  C_9 
ROOT
ATOM      1  C   UNL d   1     -48.479  13.740  22.623  0.00  0.00     0.165 C 
ATOM      2  C   UNL d   1     -48.189  14.001  21.896  0.00  0.00     0.029 C 
ENDROOT
BRANCH   1   3
ATOM      3  P   UNL d   1     -49.292  13.731  22.773  0.00  0.00     0.392 P 
ATOM      4  O   UNL d   1     -49.380  13.107  22.203  0.00  0.00    -0.251 OA
BRANCH   3   5
ATOM      5  O   UNL d   1     -50.128  13.713  22.918  0.00  0.00    -0.265 OA
BRANCH   5   6
ATOM      6  C   UNL d   1     -50.541  13.000  22.871  0.00  0.00     0.103 C 
ATOM      7  C   UNL d   1     -51.052  12.863  22.247  0.00  0.00     0.027 C 
ATOM      8  C   UNL d   1     -50.452  12.416  23.444  0.00  0.00     0.027 C 
ENDBRANCH   5   6
ENDBRANCH   3   5
BRANCH   3   9
ATOM      9  O   UNL d   1     -49.197  14.339  23.326  0.00  0.00    -0.265 OA
BRANCH   9  10
ATOM     10  C   UNL d   1     -49.574  15.061  23.212  0.00  0.00     0.103 C 
ATOM     11  C   UNL d   1     -49.332  15.557  22.615  0.00  0.00     0.027 C 
ATOM     12  C   UNL d   1     -50.182  15.278  23.691  0.00  0.00     0.027 C 
ENDBRANCH   9  10
ENDBRANCH   3   9
ENDBRANCH   1   3
BRANCH   1  13
ATOM     13  N   UNL d   1     -47.952  13.488  23.203  0.00  0.00    -0.200 NA
ATOM     14  C   UNL d   1     -47.206  13.189  22.980  0.00  0.00     0.280 C 
ATOM     15  O   UNL d   1     -46.995  13.145  22.182  0.00  0.00    -0.265 OA
BRANCH  14  16
ATOM     16  C   UNL d   1     -46.674  12.932  23.584  0.00  0.00     0.062 C 
BRANCH  16  17
ATOM     17  C   UNL d   1     -46.392  12.127  23.551  0.00  0.00     0.005 A 
ATOM     18  C   UNL d   1     -45.589  11.995  23.364  0.00  0.00     0.000 A 
ATOM     19  C   UNL d   1     -45.287  11.220  23.325  0.00  0.00     0.000 A 
ATOM     20  C   UNL d   1     -45.793  10.586  23.472  0.00  0.00     0.000 A 
ATOM     21  C   UNL d   1     -46.601  10.731  23.659  0.00  0.00     0.000 A 
ATOM     22  C   UNL d   1     -46.898  11.495  23.698  0.00  0.00     0.000 A 
ENDBRANCH  16  17
ENDBRANCH  14  16
ENDBRANCH   1  13
TORSDOF 8
ENDMDL
MODEL 4
REMARK VINA RESULT:      -5.1      1.875      4.322
REMARK  8 active torsions:
REMARK  status: ('A' for Active; 'I' for Inactive)
REMARK    1  A    between atoms: C_2  and  P_1 
REMARK    2  A    between atoms: O_5  and  P_1 
REMARK    3  A    between atoms: O_6  and  P_1 
REMARK    4  A    between atoms: N_3  and  C_2 
REMARK       I    between atoms: C_4  and  N_3 
REMARK    5  A    between atoms: C_9  and  C_4 
REMARK    6  A    between atoms: C_12  and  O_5 
REMARK    7  A    between atoms: C_11  and  O_6 
REMARK    8  A    between atoms: C_10  and  C_9 
ROOT
ATOM      1  C   UNL d   1     -47.017  12.444  22.911  0.00  0.00     0.165 C 
ATOM      2  C   UNL d   1     -47.114  12.166  23.682  0.00  0.00     0.029 C 
ENDROOT
BRANCH   1   3
ATOM      3  P   UNL d   1     -46.320  12.829  22.687  0.00  0.00     0.392 P 
ATOM      4  O   UNL d   1     -45.879  12.137  22.906  0.00  0.00    -0.251 OA
BRANCH   3   5
ATOM      5  O   UNL d   1     -45.599  13.215  22.460  0.00  0.00    -0.265 OA
BRANCH   5   6
ATOM      6  C   UNL d   1     -44.997  12.784  22.095  0.00  0.00     0.103 C 
ATOM      7  C   UNL d   1     -44.856  12.875  21.294  0.00  0.00     0.027 C 
ATOM      8  C   UNL d   1     -44.527  12.259  22.521  0.00  0.00     0.027 C 
ENDBRANCH   5   6
ENDBRANCH   3   5
BRANCH   3   9
ATOM      9  O   UNL d   1     -46.758  13.498  22.477  0.00  0.00    -0.265 OA
BRANCH   9  10
ATOM     10  C   UNL d   1     -46.612  14.219  22.848  0.00  0.00     0.103 C 
ATOM     11  C   UNL d   1     -46.391  14.236  23.630  0.00  0.00     0.027 C 
ATOM     12  C   UNL d   1     -46.689  14.905  22.437  0.00  0.00     0.027 C 
ENDBRANCH   9  10
ENDBRANCH   3   9
ENDBRANCH   1   3
BRANCH   1  13
ATOM     13  N   UNL d   1     -47.621  12.336  22.362  0.00  0.00    -0.200 NA
ATOM     14  C   UNL d   1     -48.249  11.816  22.538  0.00  0.00     0.280 C 
ATOM     15  O   UNL d   1     -48.268  11.412  23.258  0.00  0.00    -0.265 OA
BRANCH  14  16
ATOM     16  C   UNL d   1     -48.863  11.714  21.966  0.00  0.00     0.062 C 
BRANCH  16  17
ATOM     17  C   UNL d   1     -49.608  12.105  22.109  0.00  0.00     0.005 A 
ATOM     18  C   UNL d   1     -49.890  12.644  21.537  0.00  0.00     0.000 A 
ATOM     19  C   UNL d   1     -50.614  13.040  21.651  0.00  0.00     0.000 A 
ATOM     20  C   UNL d   1     -51.048  12.890  22.336  0.00  0.00     0.000 A 
ATOM     21  C   UNL d   1     -50.754  12.344  22.906  0.00  0.00     0.000 A 
ATOM     22  C   UNL d   1     -50.041  11.955  22.793  0.00  0.00     0.000 A 
ENDBRANCH  16  17
ENDBRANCH  14  16
ENDBRANCH   1  13
TORSDOF 8
ENDMDL
MODEL 5
REMARK VINA RESULT:      -4.1      7.942      9.965
REMARK  8 active torsions:
REMARK  status: ('A' for Active; 'I' for Inactive)
REMARK    1  A    between atoms: C_2  and  P_1 
REMARK    2  A    between atoms: O_5  and  P_1 
REMARK    3  A    between atoms: O_6  and  P_1 
REMARK    4  A    between atoms: N_3  and  C_2 
REMARK       I    between atoms: C_4  and  N_3 
REMARK    5  A    between atoms: C_9  and  C_4 
REMARK    6  A    between atoms: C_12  and  O_5 
REMARK    7  A    between atoms: C_11  and  O_6 
REMARK    8  A    between atoms: C_10  and  C_9 
ROOT
ATOM      1  C   UNL d   1     -39.550  15.428  19.991  0.00  0.00     0.165 C 
ATOM      2  C   UNL d   1     -40.058  15.922  19.567  0.00  0.00     0.029 C 
ENDROOT
BRANCH   1   3
ATOM      3  P   UNL d   1     -39.677  15.284  20.795  0.00  0.00     0.392 P 
ATOM      4  O   UNL d   1     -39.148  15.922  20.983  0.00  0.00    -0.251 OA
BRANCH   3   5
ATOM      5  O   UNL d   1     -39.800  15.146  21.624  0.00  0.00    -0.265 OA
BRANCH   5   6
ATOM      6  C   UNL d   1     -39.166  15.195  22.150  0.00  0.00     0.103 C 
ATOM      7  C   UNL d   1     -38.969  15.914  22.488  0.00  0.00     0.027 C 
ATOM      8  C   UNL d   1     -38.721  14.531  22.346  0.00  0.00     0.027 C 
ENDBRANCH   5   6
ENDBRANCH   3   5
BRANCH   3   9
ATOM      9  O   UNL d   1     -40.191  14.665  20.603  0.00  0.00    -0.265 OA
BRANCH   9  10
ATOM     10  C   UNL d   1     -40.989  14.717  20.800  0.00  0.00     0.103 C 
ATOM     11  C   UNL d   1     -41.328  15.443  20.933  0.00  0.00     0.027 C 
ATOM     12  C   UNL d   1     -41.432  14.050  20.860  0.00  0.00     0.027 C 
ENDBRANCH   9  10
ENDBRANCH   3   9
ENDBRANCH   1   3
BRANCH   1  13
ATOM     13  N   UNL d   1     -38.912  15.076  19.606  0.00  0.00    -0.200 NA
ATOM     14  C   UNL d   1     -38.735  15.292  18.820  0.00  0.00     0.280 C 
ATOM     15  O   UNL d   1     -39.195  15.855  18.428  0.00  0.00    -0.265 OA
BRANCH  14  16
ATOM     16  C   UNL d   1     -38.078  14.924  18.437  0.00  0.00     0.062 C 
BRANCH  16  17
ATOM     17  C   UNL d   1     -38.225  14.514  17.703  0.00  0.00     0.005 A 
ATOM     18  C   UNL d   1     -38.299  13.683  17.719  0.00  0.00     0.000 A 
ATOM     19  C   UNL d   1     -38.443  13.257  17.017  0.00  0.00     0.000 A 
ATOM     20  C   UNL d   1     -38.510  13.671  16.307  0.00  0.00     0.000 A 
ATOM     21  C   UNL d   1     -38.434  14.509  16.302  0.00  0.00     0.000 A 
ATOM     22  C   UNL d   1     -38.293  14.927  16.994  0.00  0.00     0.000 A 
ENDBRANCH  16  17
ENDBRANCH  14  16
ENDBRANCH   1  13
TORSDOF 8
ENDMDL
