MODEL 1
REMARK VINA RESULT:      -2.8      0.000      0.000
REMARK  3 active torsions:
REMARK  status: ('A' for Active; 'I' for Inactive)
REMARK    1  A    between atoms: C_6  and  C_1 
REMARK    2  A    between atoms: O_9  and  C_6 
REMARK    3  A    between atoms: C_12  and  O_9 
ROOT
ATOM      1  C   UNL d   1      31.054  16.710 -23.859  0.00  0.00     0.182 A 
ATOM      2  C   UNL d   1      30.369  16.949 -24.278  0.00  0.00     0.133 A 
ATOM      3  O   UNL d   1      30.830  16.111 -23.325  0.00  0.00    -0.300 OA
ATOM      4  C   UNL d   1      29.731  16.497 -24.002  0.00  0.00     0.044 A 
ATOM      5  C   UNL d   1      30.011  15.978 -23.413  0.00  0.00     0.102 A 
ATOM      6  N   UNL d   1      30.336  17.530 -24.863  0.00  0.00    -0.146 N 
ATOM      7  C   UNL d   1      28.939  16.484 -24.201  0.00  0.00     0.004 A 
ATOM      8  C   UNL d   1      29.489  15.465 -23.044  0.00  0.00     0.025 A 
ATOM      9  C   UNL d   1      28.418  15.969 -23.831  0.00  0.00     0.000 A 
ATOM     10  C   UNL d   1      28.697  15.453 -23.245  0.00  0.00     0.002 A 
ENDROOT
BRANCH   1  11
ATOM     11  C   UNL d   1      31.815  17.012 -23.954  0.00  0.00     0.325 C 
ATOM     12  O   UNL d   1      32.261  16.785 -24.601  0.00  0.00    -0.257 OA
BRANCH  11  13
ATOM     13  O   UNL d   1      32.123  17.539 -23.401  0.00  0.00    -0.269 OA
BRANCH  13  14
ATOM     14  C   UNL d   1      32.933  17.691 -23.386  0.00  0.00     0.126 C 
ATOM     15  C   UNL d   1      33.241  18.235 -22.848  0.00  0.00     0.029 C 
ENDBRANCH  13  14
ENDBRANCH  11  13
ENDBRANCH   1  11
TORSDOF 3
ENDMDL
MODEL 2
REMARK VINA RESULT:      -2.7      0.928      1.202
REMARK  3 active torsions:
REMARK  status: ('A' for Active; 'I' for Inactive)
REMARK    1  A    between atoms: C_6  and  C_1 
REMARK    2  A    between atoms: O_9  and  C_6 
REMARK    3  A    between atoms: C_12  and  O_9 
ROOT
ATOM      1  C   UNL d   1      30.978  16.810 -24.056  0.00  0.00     0.182 A 
ATOM      2  C   UNL d   1      30.835  16.124 -23.598  0.00  0.00     0.133 A 
ATOM      3  O   UNL d   1      30.241  17.122 -24.286  0.00  0.00    -0.300 OA
ATOM      4  C   UNL d   1      30.014  16.018 -23.548  0.00  0.00     0.044 A 
ATOM      5  C   UNL d   1      29.643  16.632 -23.972  0.00  0.00     0.102 A 
ATOM      6  N   UNL d   1      31.409  15.640 -23.256  0.00  0.00    -0.146 N 
ATOM      7  C   UNL d   1      29.553  15.453 -23.180  0.00  0.00     0.004 A 
ATOM      8  C   UNL d   1      28.824  16.659 -24.012  0.00  0.00     0.025 A 
ATOM      9  C   UNL d   1      28.734  15.482 -23.222  0.00  0.00     0.000 A 
ATOM     10  C   UNL d   1      28.365  16.093 -23.643  0.00  0.00     0.002 A 
ENDROOT
BRANCH   1  11
ATOM     11  C   UNL d   1      31.716  17.124 -24.248  0.00  0.00     0.325 C 
ATOM     12  O   UNL d   1      32.165  16.772 -24.835  0.00  0.00    -0.257 OA
BRANCH  11  13
ATOM     13  O   UNL d   1      31.998  17.788 -23.851  0.00  0.00    -0.269 OA
BRANCH  13  14
ATOM     14  C   UNL d   1      32.653  18.195 -24.146  0.00  0.00     0.126 C 
ATOM     15  C   UNL d   1      32.960  18.837 -23.730  0.00  0.00     0.029 C 
ENDBRANCH  13  14
ENDBRANCH  11  13
ENDBRANCH   1  11
TORSDOF 3
ENDMDL
MODEL 3
REMARK VINA RESULT:      -2.6      1.136      3.467
REMARK  3 active torsions:
REMARK  status: ('A' for Active; 'I' for Inactive)
REMARK    1  A    between atoms: C_6  and  C_1 
REMARK    2  A    between atoms: O_9  and  C_6 
REMARK    3  A    between atoms: C_12  and  O_9 
ROOT
ATOM      1  C   UNL d   1      30.829  16.586 -24.002  0.00  0.00     0.182 A 
ATOM      2  C   UNL d   1      31.517  16.322 -23.603  0.00  0.00     0.133 A 
ATOM      3  O   UNL d   1      30.957  17.375 -24.237  0.00  0.00    -0.300 OA
ATOM      4  C   UNL d   1      32.062  16.947 -23.595  0.00  0.00     0.044 A 
ATOM      5  C   UNL d   1      31.721  17.600 -23.986  0.00  0.00     0.102 A 
ATOM      6  N   UNL d   1      31.632  15.573 -23.276  0.00  0.00    -0.146 N 
ATOM      7  C   UNL d   1      32.817  17.015 -23.290  0.00  0.00     0.004 A 
ATOM      8  C   UNL d   1      32.147  18.296 -24.057  0.00  0.00     0.025 A 
ATOM      9  C   UNL d   1      33.241  17.714 -23.362  0.00  0.00     0.000 A 
ATOM     10  C   UNL d   1      32.901  18.363 -23.751  0.00  0.00     0.002 A 
ENDROOT
BRANCH   1  11
ATOM     11  C   UNL d   1      30.146  16.147 -24.139  0.00  0.00     0.325 C 
ATOM     12  O   UNL d   1      30.144  15.574 -24.724  0.00  0.00    -0.257 OA
BRANCH  11  13
ATOM     13  O   UNL d   1      29.470  16.283 -23.690  0.00  0.00    -0.269 OA
BRANCH  13  14
ATOM     14  C   UNL d   1      28.745  15.975 -23.935  0.00  0.00     0.126 C 
ATOM     15  C   UNL d   1      28.065  16.114 -23.488  0.00  0.00     0.029 C 
ENDBRANCH  13  14
ENDBRANCH  11  13
ENDBRANCH   1  11
TORSDOF 3
ENDMDL
MODEL 4
REMARK VINA RESULT:      -2.2      4.765      6.826
REMARK  3 active torsions:
REMARK  status: ('A' for Active; 'I' for Inactive)
REMARK    1  A    between atoms: C_6  and  C_1 
REMARK    2  A    between atoms: O_9  and  C_6 
REMARK    3  A    between atoms: C_12  and  O_9 
ROOT
ATOM      1  C   UNL d   1      32.984  21.693 -21.269  0.00  0.00     0.182 A 
ATOM      2  C   UNL d   1      32.660  22.465 -21.297  0.00  0.00     0.133 A 
ATOM      3  O   UNL d   1      33.241  21.552 -20.489  0.00  0.00    -0.300 OA
ATOM      4  C   UNL d   1      32.719  22.794 -20.538  0.00  0.00     0.044 A 
ATOM      5  C   UNL d   1      33.077  22.233 -20.035  0.00  0.00     0.102 A 
ATOM      6  N   UNL d   1      32.340  22.833 -21.963  0.00  0.00    -0.146 N 
ATOM      7  C   UNL d   1      32.499  23.520 -20.234  0.00  0.00     0.004 A 
ATOM      8  C   UNL d   1      33.202  22.419 -19.246  0.00  0.00     0.025 A 
ATOM      9  C   UNL d   1      32.626  23.702 -19.444  0.00  0.00     0.000 A 
ATOM     10  C   UNL d   1      32.982  23.145 -18.944  0.00  0.00     0.002 A 
ENDROOT
BRANCH   1  11
ATOM     11  C   UNL d   1      33.040  21.164 -21.898  0.00  0.00     0.325 C 
ATOM     12  O   UNL d   1      33.201  21.446 -22.650  0.00  0.00    -0.257 OA
BRANCH  11  13
ATOM     13  O   UNL d   1      32.935  20.357 -21.770  0.00  0.00    -0.269 OA
BRANCH  13  14
ATOM     14  C   UNL d   1      33.039  19.826 -22.393  0.00  0.00     0.126 C 
ATOM     15  C   UNL d   1      33.075  19.016 -22.243  0.00  0.00     0.029 C 
ENDBRANCH  13  14
ENDBRANCH  11  13
ENDBRANCH   1  11
TORSDOF 3
ENDMDL
MODEL 5
REMARK VINA RESULT:      -2.1      5.623      7.080
REMARK  3 active torsions:
REMARK  status: ('A' for Active; 'I' for Inactive)
REMARK    1  A    between atoms: C_6  and  C_1 
REMARK    2  A    between atoms: O_9  and  C_6 
REMARK    3  A    between atoms: C_12  and  O_9 
ROOT
ATOM      1  C   UNL d   1      32.729  22.357 -19.976  0.00  0.00     0.182 A 
ATOM      2  C   UNL d   1      32.518  22.406 -20.785  0.00  0.00     0.133 A 
ATOM      3  O   UNL d   1      33.036  21.595 -19.839  0.00  0.00    -0.300 OA
ATOM      4  C   UNL d   1      32.696  21.677 -21.140  0.00  0.00     0.044 A 
ATOM      5  C   UNL d   1      33.016  21.172 -20.558  0.00  0.00     0.102 A 
ATOM      6  N   UNL d   1      32.191  23.063 -21.164  0.00  0.00    -0.146 N 
ATOM      7  C   UNL d   1      32.612  21.402 -21.904  0.00  0.00     0.004 A 
ATOM      8  C   UNL d   1      33.241  20.411 -20.763  0.00  0.00     0.025 A 
ATOM      9  C   UNL d   1      32.838  20.639 -22.106  0.00  0.00     0.000 A 
ATOM     10  C   UNL d   1      33.157  20.137 -21.528  0.00  0.00     0.002 A 
ENDROOT
BRANCH   1  11
ATOM     11  C   UNL d   1      32.648  22.954 -19.414  0.00  0.00     0.325 C 
ATOM     12  O   UNL d   1      32.411  23.701 -19.650  0.00  0.00    -0.257 OA
BRANCH  11  13
ATOM     13  O   UNL d   1      32.806  22.798 -18.621  0.00  0.00    -0.269 OA
BRANCH  13  14
ATOM     14  C   UNL d   1      32.617  23.360 -18.047  0.00  0.00     0.126 C 
ATOM     15  C   UNL d   1      32.775  23.208 -17.253  0.00  0.00     0.029 C 
ENDBRANCH  13  14
ENDBRANCH  11  13
ENDBRANCH   1  11
TORSDOF 3
ENDMDL
MODEL 6
REMARK VINA RESULT:      -2.1      4.322      6.391
REMARK  3 active torsions:
REMARK  status: ('A' for Active; 'I' for Inactive)
REMARK    1  A    between atoms: C_6  and  C_1 
REMARK    2  A    between atoms: O_9  and  C_6 
REMARK    3  A    between atoms: C_12  and  O_9 
ROOT
ATOM      1  C   UNL d   1      32.915  21.060 -21.395  0.00  0.00     0.182 A 
ATOM      2  C   UNL d   1      32.976  21.431 -20.647  0.00  0.00     0.133 A 
ATOM      3  O   UNL d   1      32.635  21.625 -21.938  0.00  0.00    -0.300 OA
ATOM      4  C   UNL d   1      32.733  22.220 -20.733  0.00  0.00     0.044 A 
ATOM      5  C   UNL d   1      32.521  22.344 -21.530  0.00  0.00     0.102 A 
ATOM      6  N   UNL d   1      33.232  21.076 -19.946  0.00  0.00    -0.146 N 
ATOM      7  C   UNL d   1      32.675  22.839 -20.203  0.00  0.00     0.004 A 
ATOM      8  C   UNL d   1      32.259  23.083 -21.768  0.00  0.00     0.025 A 
ATOM      9  C   UNL d   1      32.412  23.578 -20.445  0.00  0.00     0.000 A 
ATOM     10  C   UNL d   1      32.201  23.702 -21.237  0.00  0.00     0.002 A 
ENDROOT
BRANCH   1  11
ATOM     11  C   UNL d   1      33.100  20.275 -21.566  0.00  0.00     0.325 C 
ATOM     12  O   UNL d   1      33.240  19.750 -20.954  0.00  0.00    -0.257 OA
BRANCH  11  13
ATOM     13  O   UNL d   1      33.143  20.023 -22.348  0.00  0.00    -0.269 OA
BRANCH  13  14
ATOM     14  C   UNL d   1      33.157  19.216 -22.519  0.00  0.00     0.126 C 
ATOM     15  C   UNL d   1      32.992  18.952 -23.283  0.00  0.00     0.029 C 
ENDBRANCH  13  14
ENDBRANCH  11  13
ENDBRANCH   1  11
TORSDOF 3
ENDMDL
MODEL 7
REMARK VINA RESULT:      -1.7      6.569      8.412
REMARK  3 active torsions:
REMARK  status: ('A' for Active; 'I' for Inactive)
REMARK    1  A    between atoms: C_6  and  C_1 
REMARK    2  A    between atoms: O_9  and  C_6 
REMARK    3  A    between atoms: C_12  and  O_9 
ROOT
ATOM      1  C   UNL d   1      32.900  22.485 -19.041  0.00  0.00     0.182 A 
ATOM      2  C   UNL d   1      32.491  23.158 -18.755  0.00  0.00     0.133 A 
ATOM      3  O   UNL d   1      33.241  22.097 -18.388  0.00  0.00    -0.300 OA
ATOM      4  C   UNL d   1      32.583  23.180 -17.931  0.00  0.00     0.044 A 
ATOM      5  C   UNL d   1      33.045  22.526 -17.699  0.00  0.00     0.102 A 
ATOM      6  N   UNL d   1      32.072  23.702 -19.212  0.00  0.00    -0.146 N 
ATOM      7  C   UNL d   1      32.312  23.699 -17.361  0.00  0.00     0.004 A 
ATOM      8  C   UNL d   1      33.221  22.416 -16.906  0.00  0.00     0.025 A 
ATOM      9  C   UNL d   1      32.490  23.586 -16.568  0.00  0.00     0.000 A 
ATOM     10  C   UNL d   1      32.950  22.935 -16.338  0.00  0.00     0.002 A 
ENDROOT
BRANCH   1  11
ATOM     11  C   UNL d   1      32.957  22.246 -19.828  0.00  0.00     0.325 C 
ATOM     12  O   UNL d   1      33.172  22.790 -20.400  0.00  0.00    -0.257 OA
BRANCH  11  13
ATOM     13  O   UNL d   1      32.798  21.466 -20.035  0.00  0.00    -0.269 OA
BRANCH  13  14
ATOM     14  C   UNL d   1      32.783  21.247 -20.830  0.00  0.00     0.126 C 
ATOM     15  C   UNL d   1      32.693  20.454 -21.039  0.00  0.00     0.029 C 
ENDBRANCH  13  14
ENDBRANCH  11  13
ENDBRANCH   1  11
TORSDOF 3
ENDMDL
MODEL 8
REMARK VINA RESULT:      -1.6      2.083      4.364
REMARK  3 active torsions:
REMARK  status: ('A' for Active; 'I' for Inactive)
REMARK    1  A    between atoms: C_6  and  C_1 
REMARK    2  A    between atoms: O_9  and  C_6 
REMARK    3  A    between atoms: C_12  and  O_9 
ROOT
ATOM      1  C   UNL d   1      32.959  18.644 -23.196  0.00  0.00     0.182 A 
ATOM      2  C   UNL d   1      33.097  19.388 -23.555  0.00  0.00     0.133 A 
ATOM      3  O   UNL d   1      32.902  18.764 -22.374  0.00  0.00    -0.300 OA
ATOM      4  C   UNL d   1      33.124  19.959 -22.954  0.00  0.00     0.044 A 
ATOM      5  C   UNL d   1      33.004  19.578 -22.223  0.00  0.00     0.102 A 
ATOM      6  N   UNL d   1      33.189  19.528 -24.364  0.00  0.00    -0.146 N 
ATOM      7  C   UNL d   1      33.241  20.768 -22.969  0.00  0.00     0.004 A 
ATOM      8  C   UNL d   1      33.005  20.019 -21.532  0.00  0.00     0.025 A 
ATOM      9  C   UNL d   1      33.241  21.207 -22.275  0.00  0.00     0.000 A 
ATOM     10  C   UNL d   1      33.122  20.828 -21.548  0.00  0.00     0.002 A 
ENDROOT
BRANCH   1  11
ATOM     11  C   UNL d   1      32.891  17.920 -23.585  0.00  0.00     0.325 C 
ATOM     12  O   UNL d   1      33.222  17.827 -24.327  0.00  0.00    -0.257 OA
BRANCH  11  13
ATOM     13  O   UNL d   1      32.492  17.295 -23.227  0.00  0.00    -0.269 OA
BRANCH  13  14
ATOM     14  C   UNL d   1      32.372  16.593 -23.642  0.00  0.00     0.126 C 
ATOM     15  C   UNL d   1      31.697  16.140 -23.502  0.00  0.00     0.029 C 
ENDBRANCH  13  14
ENDBRANCH  11  13
ENDBRANCH   1  11
TORSDOF 3
ENDMDL
MODEL 9
REMARK VINA RESULT:      -1.6      6.614      7.364
REMARK  3 active torsions:
REMARK  status: ('A' for Active; 'I' for Inactive)
REMARK    1  A    between atoms: C_6  and  C_1 
REMARK    2  A    between atoms: O_9  and  C_6 
REMARK    3  A    between atoms: C_12  and  O_9 
ROOT
ATOM      1  C   UNL d   1      32.426  22.877 -21.156  0.00  0.00     0.182 A 
ATOM      2  C   UNL d   1      32.813  22.276 -21.593  0.00  0.00     0.133 A 
ATOM      3  O   UNL d   1      32.277  23.512 -21.674  0.00  0.00    -0.300 OA
ATOM      4  C   UNL d   1      32.900  22.543 -22.373  0.00  0.00     0.044 A 
ATOM      5  C   UNL d   1      32.570  23.307 -22.428  0.00  0.00     0.102 A 
ATOM      6  N   UNL d   1      33.064  21.546 -21.298  0.00  0.00    -0.146 N 
ATOM      7  C   UNL d   1      33.230  22.202 -23.038  0.00  0.00     0.004 A 
ATOM      8  C   UNL d   1      32.582  23.702 -23.146  0.00  0.00     0.025 A 
ATOM      9  C   UNL d   1      33.241  22.600 -23.756  0.00  0.00     0.000 A 
ATOM     10  C   UNL d   1      32.913  23.360 -23.810  0.00  0.00     0.002 A 
ENDROOT
BRANCH   1  11
ATOM     11  C   UNL d   1      32.227  22.848 -20.357  0.00  0.00     0.325 C 
ATOM     12  O   UNL d   1      31.453  22.693 -20.139  0.00  0.00    -0.257 OA
BRANCH  11  13
ATOM     13  O   UNL d   1      32.803  22.975 -19.783  0.00  0.00    -0.269 OA
BRANCH  13  14
ATOM     14  C   UNL d   1      32.581  23.205 -19.023  0.00  0.00     0.126 C 
ATOM     15  C   UNL d   1      33.157  23.332 -18.446  0.00  0.00     0.029 C 
ENDBRANCH  13  14
ENDBRANCH  11  13
ENDBRANCH   1  11
TORSDOF 3
ENDMDL
