MODEL 1
REMARK VINA RESULT:      14.0      0.000      0.000
REMARK  4 active torsions:
REMARK  status: ('A' for Active; 'I' for Inactive)
REMARK    1  A    between atoms: N_2  and  S_1 
REMARK    2  A    between atoms: N_3  and  S_1 
REMARK    3  A    between atoms: C_8  and  N_3 
REMARK    4  A    between atoms: C_6  and  C_8 
ROOT
ATOM      1  S   UNL d   1     -57.319 -98.773 -44.406  0.00  0.00     0.351 S 
ATOM      2  O   UNL d   1     -57.410 -98.780 -45.227  0.00  0.00    -0.180 OA
ATOM      3  O   UNL d   1     -57.228 -98.766 -43.589  0.00  0.00    -0.180 OA
ENDROOT
BRANCH   1   4
ATOM      4  N   UNL d   1     -58.140 -98.755 -44.319  0.00  0.00    -0.211 N 
ATOM      5  C   UNL d   1     -58.467 -98.868 -43.570  0.00  0.00     0.120 C 
ATOM      6  C   UNL d   1     -59.284 -98.850 -43.485  0.00  0.00     0.142 C 
ATOM      7  O   UNL d   1     -59.772 -98.833 -44.150  0.00  0.00    -0.300 OA
ATOM      8  C   UNL d   1     -59.440 -98.833 -44.901  0.00  0.00     0.142 C 
ATOM      9  C   UNL d   1     -58.619 -98.851 -44.988  0.00  0.00     0.120 C 
ENDBRANCH   1   4
BRANCH   1  10
ATOM     10  N   UNL d   1     -56.498 -98.790 -44.426  0.00  0.00    -0.144 NA
BRANCH  10  11
ATOM     11  C   UNL d   1     -56.074 -99.374 -44.008  0.00  0.00     0.121 C 
BRANCH  11  12
ATOM     12  C   UNL d   1     -55.749-100.034 -44.410  0.00  0.00     0.185 C 
ATOM     13  O   UNL d   1     -55.880-100.833 -44.099  0.00  0.00    -0.321 OA
ATOM     14  C   UNL d   1     -55.319-101.322 -44.452  0.00  0.00     0.117 C 
ATOM     15  C   UNL d   1     -54.712-100.850 -44.754  0.00  0.00     0.025 C 
ATOM     16  C   UNL d   1     -54.899-100.062 -44.586  0.00  0.00     0.012 C 
ENDBRANCH  11  12
ENDBRANCH  10  11
ENDBRANCH   1  10
TORSDOF 4
ENDMDL
