MODEL 1
REMARK VINA RESULT:      -5.9      0.000      0.000
REMARK  5 active torsions:
REMARK  status: ('A' for Active; 'I' for Inactive)
REMARK    1  A    between atoms: C_9  and  C_3 
REMARK    2  A    between atoms: N_11  and  C_4 
REMARK    3  A    between atoms: C_17  and  N_11 
REMARK    4  A    between atoms: O_19  and  C_13 
REMARK    5  A    between atoms: O_20  and  C_15 
ROOT
ATOM      1  N   UNL d   1      49.211  35.138  52.874  0.00  0.00    -0.184 N 
ATOM      2  C   UNL d   1      48.446  35.307  52.580  0.00  0.00     0.168 A 
ATOM      3  C   UNL d   1      47.933  35.791  53.002  0.00  0.00     0.055 A 
ATOM      4  C   UNL d   1      49.710  34.651  52.436  0.00  0.00     0.218 A 
ATOM      5  N   UNL d   1      48.949  35.944  54.021  0.00  0.00    -0.162 NA
ATOM      6  C   UNL d   1      48.184  36.113  53.727  0.00  0.00     0.104 A 
ATOM      7  N   UNL d   1      48.195  34.986  51.855  0.00  0.00    -0.227 NA
ATOM      8  C   UNL d   1      49.476  34.325  51.716  0.00  0.00     0.071 A 
ATOM      9  C   UNL d   1      48.711  34.494  51.422  0.00  0.00     0.087 A 
ATOM     10  C   UNL d   1      47.683  36.596  54.157  0.00  0.00     0.023 C 
ATOM     11  C   UNL d   1      48.453  34.161  50.672  0.00  0.00     0.021 C 
ENDROOT
BRANCH   3  12
ATOM     12  C   UNL d   1      47.180  35.958  52.713  0.00  0.00     0.007 A 
ATOM     13  C   UNL d   1      46.533  35.529  52.996  0.00  0.00     0.026 A 
ATOM     14  C   UNL d   1      45.768  35.698  52.702  0.00  0.00     0.116 A 
ATOM     15  C   UNL d   1      45.664  36.292  52.131  0.00  0.00     0.116 A 
ATOM     16  C   UNL d   1      46.319  36.709  51.861  0.00  0.00     0.026 A 
ATOM     17  C   UNL d   1      47.080  36.541  52.153  0.00  0.00     0.002 A 
BRANCH  14  18
ATOM     18  O   UNL d   1      45.098  35.268  52.982  0.00  0.00    -0.326 OA
ATOM     19  C   UNL d   1      44.956  35.197  53.837  0.00  0.00     0.181 C 
ENDBRANCH  14  18
BRANCH  15  20
ATOM     20  O   UNL d   1      44.875  36.467  51.829  0.00  0.00    -0.326 OA
ATOM     21  C   UNL d   1      44.771  36.622  50.984  0.00  0.00     0.181 C 
ENDBRANCH  15  20
ENDBRANCH   3  12
BRANCH   4  22
ATOM     22  N   UNL d   1      50.496  34.478  52.737  0.00  0.00    -0.383 NA
BRANCH  22  23
ATOM     23  C   UNL d   1      51.194  34.323  53.005  0.00  0.00     0.134 A 
ATOM     24  C   UNL d   1      51.755  34.835  52.907  0.00  0.00     0.032 A 
ATOM     25  C   UNL d   1      52.453  34.680  53.175  0.00  0.00     0.003 A 
ATOM     26  C   UNL d   1      52.029  33.516  53.633  0.00  0.00     0.003 A 
ATOM     27  C   UNL d   1      51.327  33.671  53.363  0.00  0.00     0.032 A 
ENDBRANCH  22  23
ENDBRANCH   4  22
TORSDOF 5
ENDMDL
MODEL 2
REMARK VINA RESULT:      -4.6      3.415      6.373
REMARK  5 active torsions:
REMARK  status: ('A' for Active; 'I' for Inactive)
REMARK    1  A    between atoms: C_9  and  C_3 
REMARK    2  A    between atoms: N_11  and  C_4 
REMARK    3  A    between atoms: C_17  and  N_11 
REMARK    4  A    between atoms: O_19  and  C_13 
REMARK    5  A    between atoms: O_20  and  C_15 
ROOT
ATOM      1  N   UNL d   1      51.215  34.306  52.995  0.00  0.00    -0.184 N 
ATOM      2  C   UNL d   1      51.842  33.960  53.428  0.00  0.00     0.168 A 
ATOM      3  C   UNL d   1      52.460  34.422  53.711  0.00  0.00     0.055 A 
ATOM      4  C   UNL d   1      50.605  33.826  52.720  0.00  0.00     0.218 A 
ATOM      5  N   UNL d   1      51.829  35.586  53.127  0.00  0.00    -0.162 NA
ATOM      6  C   UNL d   1      52.456  35.241  53.561  0.00  0.00     0.104 A 
ATOM      7  N   UNL d   1      51.846  33.142  53.578  0.00  0.00    -0.227 NA
ATOM      8  C   UNL d   1      50.595  33.014  52.861  0.00  0.00     0.071 A 
ATOM      9  C   UNL d   1      51.222  32.669  53.294  0.00  0.00     0.087 A 
ATOM     10  C   UNL d   1      53.066  35.711  53.837  0.00  0.00     0.023 C 
ATOM     11  C   UNL d   1      51.225  31.821  53.449  0.00  0.00     0.021 C 
ENDROOT
BRANCH   3  12
ATOM     12  C   UNL d   1      53.078  34.082  54.138  0.00  0.00     0.007 A 
ATOM     13  C   UNL d   1      53.702  33.725  53.733  0.00  0.00     0.026 A 
ATOM     14  C   UNL d   1      54.329  33.380  54.166  0.00  0.00     0.116 A 
ATOM     15  C   UNL d   1      54.319  33.397  54.996  0.00  0.00     0.116 A 
ATOM     16  C   UNL d   1      53.689  33.756  55.384  0.00  0.00     0.026 A 
ATOM     17  C   UNL d   1      53.065  34.100  54.952  0.00  0.00     0.002 A 
BRANCH  14  18
ATOM     18  O   UNL d   1      54.974  33.011  53.765  0.00  0.00    -0.326 OA
ATOM     19  C   UNL d   1      54.821  32.494  53.082  0.00  0.00     0.181 C 
ENDBRANCH  14  18
BRANCH  15  20
ATOM     20  O   UNL d   1      54.965  33.041  55.443  0.00  0.00    -0.326 OA
ATOM     21  C   UNL d   1      55.215  33.403  56.188  0.00  0.00     0.181 C 
ENDBRANCH  15  20
ENDBRANCH   3  12
BRANCH   4  22
ATOM     22  N   UNL d   1      49.962  34.181  52.275  0.00  0.00    -0.383 NA
BRANCH  22  23
ATOM     23  C   UNL d   1      49.389  34.497  51.879  0.00  0.00     0.134 A 
ATOM     24  C   UNL d   1      48.892  34.954  52.239  0.00  0.00     0.032 A 
ATOM     25  C   UNL d   1      48.321  35.269  51.844  0.00  0.00     0.003 A 
ATOM     26  C   UNL d   1      48.743  34.673  50.743  0.00  0.00     0.003 A 
ATOM     27  C   UNL d   1      49.317  34.357  51.140  0.00  0.00     0.032 A 
ENDBRANCH  22  23
ENDBRANCH   4  22
TORSDOF 5
ENDMDL
MODEL 3
REMARK VINA RESULT:      -4.2      3.139      6.196
REMARK  5 active torsions:
REMARK  status: ('A' for Active; 'I' for Inactive)
REMARK    1  A    between atoms: C_9  and  C_3 
REMARK    2  A    between atoms: N_11  and  C_4 
REMARK    3  A    between atoms: C_17  and  N_11 
REMARK    4  A    between atoms: O_19  and  C_13 
REMARK    5  A    between atoms: O_20  and  C_15 
ROOT
ATOM      1  N   UNL d   1      50.971  34.716  53.435  0.00  0.00    -0.184 N 
ATOM      2  C   UNL d   1      51.636  34.208  53.457  0.00  0.00     0.168 A 
ATOM      3  C   UNL d   1      52.369  34.487  53.705  0.00  0.00     0.055 A 
ATOM      4  C   UNL d   1      50.247  34.417  53.184  0.00  0.00     0.218 A 
ATOM      5  N   UNL d   1      51.777  35.792  53.912  0.00  0.00    -0.162 NA
ATOM      6  C   UNL d   1      52.442  35.284  53.934  0.00  0.00     0.104 A 
ATOM      7  N   UNL d   1      51.563  33.411  53.228  0.00  0.00    -0.227 NA
ATOM      8  C   UNL d   1      50.159  33.630  52.953  0.00  0.00     0.071 A 
ATOM      9  C   UNL d   1      50.824  33.122  52.976  0.00  0.00     0.087 A 
ATOM     10  C   UNL d   1      53.165  35.574  54.183  0.00  0.00     0.023 C 
ATOM     11  C   UNL d   1      50.746  32.298  52.738  0.00  0.00     0.021 C 
ENDROOT
BRANCH   3  12
ATOM     12  C   UNL d   1      53.023  33.987  53.727  0.00  0.00     0.007 A 
ATOM     13  C   UNL d   1      53.210  33.595  54.429  0.00  0.00     0.026 A 
ATOM     14  C   UNL d   1      53.874  33.087  54.451  0.00  0.00     0.116 A 
ATOM     15  C   UNL d   1      54.340  32.982  53.772  0.00  0.00     0.116 A 
ATOM     16  C   UNL d   1      54.140  33.380  53.081  0.00  0.00     0.026 A 
ATOM     17  C   UNL d   1      53.478  33.886  53.059  0.00  0.00     0.002 A 
BRANCH  14  18
ATOM     18  O   UNL d   1      54.077  32.678  55.162  0.00  0.00    -0.326 OA
ATOM     19  C   UNL d   1      54.326  33.129  55.863  0.00  0.00     0.181 C 
ENDBRANCH  14  18
BRANCH  15  20
ATOM     20  O   UNL d   1      55.025  32.458  53.795  0.00  0.00    -0.326 OA
ATOM     21  C   UNL d   1      55.560  32.431  53.115  0.00  0.00     0.181 C 
ENDBRANCH  15  20
ENDBRANCH   3  12
BRANCH   4  22
ATOM     22  N   UNL d   1      49.564  34.938  53.160  0.00  0.00    -0.383 NA
BRANCH  22  23
ATOM     23  C   UNL d   1      48.957  35.401  53.140  0.00  0.00     0.134 A 
ATOM     24  C   UNL d   1      48.608  35.532  52.472  0.00  0.00     0.032 A 
ATOM     25  C   UNL d   1      48.002  35.995  52.451  0.00  0.00     0.003 A 
ATOM     26  C   UNL d   1      48.097  36.191  53.754  0.00  0.00     0.003 A 
ATOM     27  C   UNL d   1      48.707  35.726  53.775  0.00  0.00     0.032 A 
ENDBRANCH  22  23
ENDBRANCH   4  22
TORSDOF 5
ENDMDL
MODEL 4
REMARK VINA RESULT:      -3.6      3.663      6.813
REMARK  5 active torsions:
REMARK  status: ('A' for Active; 'I' for Inactive)
REMARK    1  A    between atoms: C_9  and  C_3 
REMARK    2  A    between atoms: N_11  and  C_4 
REMARK    3  A    between atoms: C_17  and  N_11 
REMARK    4  A    between atoms: O_19  and  C_13 
REMARK    5  A    between atoms: O_20  and  C_15 
ROOT
ATOM      1  N   UNL d   1      51.526  33.705  52.895  0.00  0.00    -0.184 N 
ATOM      2  C   UNL d   1      52.207  33.713  53.381  0.00  0.00     0.168 A 
ATOM      3  C   UNL d   1      52.683  33.046  53.448  0.00  0.00     0.055 A 
ATOM      4  C   UNL d   1      51.063  34.383  52.841  0.00  0.00     0.218 A 
ATOM      5  N   UNL d   1      51.798  32.351  52.539  0.00  0.00    -0.162 NA
ATOM      6  C   UNL d   1      52.479  32.359  53.025  0.00  0.00     0.104 A 
ATOM      7  N   UNL d   1      52.412  34.400  53.804  0.00  0.00    -0.227 NA
ATOM      8  C   UNL d   1      51.253  35.071  53.254  0.00  0.00     0.071 A 
ATOM      9  C   UNL d   1      51.934  35.079  53.741  0.00  0.00     0.087 A 
ATOM     10  C   UNL d   1      52.944  31.688  53.083  0.00  0.00     0.023 C 
ATOM     11  C   UNL d   1      52.143  35.791  54.178  0.00  0.00     0.021 C 
ENDROOT
BRANCH   3  12
ATOM     12  C   UNL d   1      53.353  33.055  53.927  0.00  0.00     0.007 A 
ATOM     13  C   UNL d   1      54.084  33.249  53.597  0.00  0.00     0.026 A 
ATOM     14  C   UNL d   1      54.765  33.257  54.084  0.00  0.00     0.116 A 
ATOM     15  C   UNL d   1      54.702  33.072  54.890  0.00  0.00     0.116 A 
ATOM     16  C   UNL d   1      53.966  32.881  55.203  0.00  0.00     0.026 A 
ATOM     17  C   UNL d   1      53.288  32.872  54.719  0.00  0.00     0.002 A 
BRANCH  14  18
ATOM     18  O   UNL d   1      55.520  33.454  53.760  0.00  0.00    -0.326 OA
ATOM     19  C   UNL d   1      55.755  33.134  52.986  0.00  0.00     0.181 C 
ENDBRANCH  14  18
BRANCH  15  20
ATOM     20  O   UNL d   1      55.404  33.080  55.392  0.00  0.00    -0.326 OA
ATOM     21  C   UNL d   1      55.445  33.638  56.052  0.00  0.00     0.181 C 
ENDBRANCH  15  20
ENDBRANCH   3  12
BRANCH   4  22
ATOM     22  N   UNL d   1      50.364  34.374  52.342  0.00  0.00    -0.383 NA
BRANCH  22  23
ATOM     23  C   UNL d   1      49.743  34.366  51.898  0.00  0.00     0.134 A 
ATOM     24  C   UNL d   1      49.051  34.419  52.221  0.00  0.00     0.032 A 
ATOM     25  C   UNL d   1      48.430  34.411  51.777  0.00  0.00     0.003 A 
ATOM     26  C   UNL d   1      49.190  34.300  50.702  0.00  0.00     0.003 A 
ATOM     27  C   UNL d   1      49.814  34.308  51.148  0.00  0.00     0.032 A 
ENDBRANCH  22  23
ENDBRANCH   4  22
TORSDOF 5
ENDMDL
MODEL 5
REMARK VINA RESULT:      -3.5      2.042      5.136
REMARK  5 active torsions:
REMARK  status: ('A' for Active; 'I' for Inactive)
REMARK    1  A    between atoms: C_9  and  C_3 
REMARK    2  A    between atoms: N_11  and  C_4 
REMARK    3  A    between atoms: C_17  and  N_11 
REMARK    4  A    between atoms: O_19  and  C_13 
REMARK    5  A    between atoms: O_20  and  C_15 
ROOT
ATOM      1  N   UNL d   1      48.053  35.330  52.100  0.00  0.00    -0.184 N 
ATOM      2  C   UNL d   1      48.790  35.161  52.459  0.00  0.00     0.168 A 
ATOM      3  C   UNL d   1      49.352  34.707  52.067  0.00  0.00     0.055 A 
ATOM      4  C   UNL d   1      47.503  35.786  52.509  0.00  0.00     0.218 A 
ATOM      5  N   UNL d   1      48.444  34.587  50.947  0.00  0.00    -0.162 NA
ATOM      6  C   UNL d   1      49.181  34.418  51.306  0.00  0.00     0.104 A 
ATOM      7  N   UNL d   1      48.961  35.450  53.220  0.00  0.00    -0.227 NA
ATOM      8  C   UNL d   1      47.658  36.080  53.263  0.00  0.00     0.071 A 
ATOM      9  C   UNL d   1      48.395  35.910  53.622  0.00  0.00     0.087 A 
ATOM     10  C   UNL d   1      49.732  33.965  50.906  0.00  0.00     0.023 C 
ATOM     11  C   UNL d   1      48.571  36.211  54.410  0.00  0.00     0.021 C 
ENDROOT
BRANCH   3  12
ATOM     12  C   UNL d   1      50.078  34.540  52.421  0.00  0.00     0.007 A 
ATOM     13  C   UNL d   1      50.155  33.863  52.886  0.00  0.00     0.026 A 
ATOM     14  C   UNL d   1      50.892  33.694  53.245  0.00  0.00     0.116 A 
ATOM     15  C   UNL d   1      51.536  34.205  53.132  0.00  0.00     0.116 A 
ATOM     16  C   UNL d   1      51.442  34.875  52.666  0.00  0.00     0.026 A 
ATOM     17  C   UNL d   1      50.709  35.044  52.308  0.00  0.00     0.002 A 
BRANCH  14  18
ATOM     18  O   UNL d   1      50.986  33.004  53.724  0.00  0.00    -0.326 OA
ATOM     19  C   UNL d   1      51.013  32.219  53.350  0.00  0.00     0.181 C 
ENDBRANCH  14  18
BRANCH  15  20
ATOM     20  O   UNL d   1      52.296  34.030  53.502  0.00  0.00    -0.326 OA
ATOM     21  C   UNL d   1      52.897  34.651  53.548  0.00  0.00     0.181 C 
ENDBRANCH  15  20
ENDBRANCH   3  12
BRANCH   4  22
ATOM     22  N   UNL d   1      46.747  35.960  52.141  0.00  0.00    -0.383 NA
BRANCH  22  23
ATOM     23  C   UNL d   1      46.074  36.115  51.813  0.00  0.00     0.134 A 
ATOM     24  C   UNL d   1      45.569  36.555  52.183  0.00  0.00     0.032 A 
ATOM     25  C   UNL d   1      44.898  36.709  51.855  0.00  0.00     0.003 A 
ATOM     26  C   UNL d   1      45.237  35.990  50.800  0.00  0.00     0.003 A 
ATOM     27  C   UNL d   1      45.912  35.835  51.130  0.00  0.00     0.032 A 
ENDBRANCH  22  23
ENDBRANCH   4  22
TORSDOF 5
ENDMDL
