MODEL 1
REMARK VINA RESULT:      -2.6      0.000      0.000
REMARK  7 active torsions:
REMARK  status: ('A' for Active; 'I' for Inactive)
REMARK    1  A    between atoms: S_9  and  C_2 
REMARK    2  A    between atoms: C_6  and  C_8 
REMARK       I    between atoms: N_7  and  C_6 
REMARK    3  A    between atoms: C_11  and  N_7 
REMARK    4  A    between atoms: C_8  and  C_12 
REMARK    5  A    between atoms: C_12  and  S_9 
REMARK    6  A    between atoms: O_18  and  C_13 
REMARK    7  A    between atoms: C_20  and  O_18 
ROOT
ATOM      1  C   UNL d   1      32.546  16.870 -24.407  0.00  0.00     0.280 C 
ATOM      2  N   UNL d   1      33.240  17.258 -24.183  0.00  0.00    -0.208 NA
ATOM      3  O   UNL d   1      32.589  16.152 -24.818  0.00  0.00    -0.265 OA
ENDROOT
BRANCH   1   4
ATOM      4  C   UNL d   1      31.811  17.197 -24.222  0.00  0.00     0.070 C 
BRANCH   4   5
ATOM      5  C   UNL d   1      31.123  16.754 -24.326  0.00  0.00     0.042 C 
BRANCH   5   6
ATOM      6  S   UNL d   1      30.382  17.136 -24.380  0.00  0.00    -0.059 SA
BRANCH   6   7
ATOM      7  C   UNL d   1      29.687  16.692 -24.372  0.00  0.00     0.164 A 
ATOM      8  S   UNL d   1      29.307  16.266 -23.776  0.00  0.00    -0.039 SA
ATOM      9  C   UNL d   1      28.627  15.932 -24.090  0.00  0.00     0.134 A 
ATOM     10  N   UNL d   1      28.573  16.146 -24.888  0.00  0.00    -0.140 NA
ATOM     11  C   UNL d   1      28.081  15.456 -23.676  0.00  0.00     0.030 C 
ATOM     12  N   UNL d   1      29.237  16.620 -25.059  0.00  0.00    -0.134 NA
ENDBRANCH   6   7
ENDBRANCH   5   6
ENDBRANCH   4   5
ENDBRANCH   1   4
BRANCH   2  13
ATOM     13  C   UNL d   1      33.202  17.983 -23.767  0.00  0.00     0.085 A 
ATOM     14  C   UNL d   1      33.186  17.981 -22.941  0.00  0.00     0.021 A 
ATOM     15  C   UNL d   1      33.149  18.692 -22.526  0.00  0.00     0.026 A 
ATOM     16  C   UNL d   1      33.127  19.407 -22.938  0.00  0.00     0.100 A 
ATOM     17  C   UNL d   1      33.142  19.410 -23.764  0.00  0.00     0.026 A 
ATOM     18  C   UNL d   1      33.180  18.697 -24.180  0.00  0.00     0.021 A 
BRANCH  16  19
ATOM     19  O   UNL d   1      33.088  20.132 -22.511  0.00  0.00    -0.305 OA
BRANCH  19  20
ATOM     20  C   UNL d   1      32.834  20.136 -21.724  0.00  0.00     0.123 C 
ATOM     21  C   UNL d   1      32.737  20.854 -21.329  0.00  0.00     0.029 C 
ENDBRANCH  19  20
ENDBRANCH  16  19
ENDBRANCH   2  13
TORSDOF 7
ENDMDL
MODEL 2
REMARK VINA RESULT:      -2.1      2.235      4.767
REMARK  7 active torsions:
REMARK  status: ('A' for Active; 'I' for Inactive)
REMARK    1  A    between atoms: S_9  and  C_2 
REMARK    2  A    between atoms: C_6  and  C_8 
REMARK       I    between atoms: N_7  and  C_6 
REMARK    3  A    between atoms: C_11  and  N_7 
REMARK    4  A    between atoms: C_8  and  C_12 
REMARK    5  A    between atoms: C_12  and  S_9 
REMARK    6  A    between atoms: O_18  and  C_13 
REMARK    7  A    between atoms: C_20  and  O_18 
ROOT
ATOM      1  C   UNL d   1      32.778  18.819 -24.621  0.00  0.00     0.280 C 
ATOM      2  N   UNL d   1      32.442  18.225 -25.086  0.00  0.00    -0.208 NA
ATOM      3  O   UNL d   1      33.240  19.409 -24.974  0.00  0.00    -0.265 OA
ENDROOT
BRANCH   1   4
ATOM      4  C   UNL d   1      32.654  18.825 -23.804  0.00  0.00     0.070 C 
BRANCH   4   5
ATOM      5  C   UNL d   1      32.959  19.438 -23.344  0.00  0.00     0.042 C 
BRANCH   5   6
ATOM      6  S   UNL d   1      32.979  19.367 -22.512  0.00  0.00    -0.059 SA
BRANCH   6   7
ATOM      7  C   UNL d   1      33.068  20.040 -22.042  0.00  0.00     0.164 A 
ATOM      8  S   UNL d   1      33.087  20.147 -21.225  0.00  0.00    -0.039 SA
ATOM      9  C   UNL d   1      33.189  20.945 -21.071  0.00  0.00     0.134 A 
ATOM     10  N   UNL d   1      33.235  21.349 -21.792  0.00  0.00    -0.140 NA
ATOM     11  C   UNL d   1      33.238  21.295 -20.314  0.00  0.00     0.030 C 
ATOM     12  N   UNL d   1      33.159  20.779 -22.396  0.00  0.00    -0.134 NA
ENDBRANCH   6   7
ENDBRANCH   5   6
ENDBRANCH   4   5
ENDBRANCH   1   4
BRANCH   2  13
ATOM     13  C   UNL d   1      31.975  17.627 -24.734  0.00  0.00     0.085 A 
ATOM     14  C   UNL d   1      32.339  16.951 -24.429  0.00  0.00     0.021 A 
ATOM     15  C   UNL d   1      31.884  16.358 -24.081  0.00  0.00     0.026 A 
ATOM     16  C   UNL d   1      31.064  16.442 -24.037  0.00  0.00     0.100 A 
ATOM     17  C   UNL d   1      30.700  17.118 -24.342  0.00  0.00     0.026 A 
ATOM     18  C   UNL d   1      31.156  17.712 -24.691  0.00  0.00     0.021 A 
BRANCH  16  19
ATOM     19  O   UNL d   1      30.603  15.835 -23.680  0.00  0.00    -0.305 OA
BRANCH  19  20
ATOM     20  C   UNL d   1      29.988  16.030 -23.163  0.00  0.00     0.123 C 
ATOM     21  C   UNL d   1      29.679  15.455 -22.658  0.00  0.00     0.029 C 
ENDBRANCH  19  20
ENDBRANCH  16  19
ENDBRANCH   2  13
TORSDOF 7
ENDMDL
MODEL 3
REMARK VINA RESULT:      -1.6      2.671      5.060
REMARK  7 active torsions:
REMARK  status: ('A' for Active; 'I' for Inactive)
REMARK    1  A    between atoms: S_9  and  C_2 
REMARK    2  A    between atoms: C_6  and  C_8 
REMARK       I    between atoms: N_7  and  C_6 
REMARK    3  A    between atoms: C_11  and  N_7 
REMARK    4  A    between atoms: C_8  and  C_12 
REMARK    5  A    between atoms: C_12  and  S_9 
REMARK    6  A    between atoms: O_18  and  C_13 
REMARK    7  A    between atoms: C_20  and  O_18 
ROOT
ATOM      1  C   UNL d   1      32.989  19.801 -23.788  0.00  0.00     0.280 C 
ATOM      2  N   UNL d   1      32.912  19.180 -24.326  0.00  0.00    -0.208 NA
ATOM      3  O   UNL d   1      33.241  20.546 -24.050  0.00  0.00    -0.265 OA
ENDROOT
BRANCH   1   4
ATOM      4  C   UNL d   1      32.815  19.682 -22.989  0.00  0.00     0.070 C 
BRANCH   4   5
ATOM      5  C   UNL d   1      32.953  20.284 -22.441  0.00  0.00     0.042 C 
BRANCH   5   6
ATOM      6  S   UNL d   1      32.570  20.271 -21.700  0.00  0.00    -0.059 SA
BRANCH   6   7
ATOM      7  C   UNL d   1      32.561  20.947 -21.227  0.00  0.00     0.164 A 
ATOM      8  S   UNL d   1      33.162  21.440 -20.954  0.00  0.00    -0.039 SA
ATOM      9  C   UNL d   1      32.824  22.034 -20.500  0.00  0.00     0.134 A 
ATOM     10  N   UNL d   1      32.005  21.919 -20.485  0.00  0.00    -0.140 NA
ATOM     11  C   UNL d   1      33.236  22.651 -20.118  0.00  0.00     0.030 C 
ATOM     12  N   UNL d   1      31.845  21.239 -20.940  0.00  0.00    -0.134 NA
ENDBRANCH   6   7
ENDBRANCH   5   6
ENDBRANCH   4   5
ENDBRANCH   1   4
BRANCH   2  13
ATOM     13  C   UNL d   1      32.658  18.427 -24.065  0.00  0.00     0.085 A 
ATOM     14  C   UNL d   1      31.856  18.231 -24.099  0.00  0.00     0.021 A 
ATOM     15  C   UNL d   1      31.599  17.491 -23.844  0.00  0.00     0.026 A 
ATOM     16  C   UNL d   1      32.146  16.944 -23.554  0.00  0.00     0.100 A 
ATOM     17  C   UNL d   1      32.948  17.139 -23.521  0.00  0.00     0.026 A 
ATOM     18  C   UNL d   1      33.205  17.881 -23.776  0.00  0.00     0.021 A 
BRANCH  16  19
ATOM     19  O   UNL d   1      31.880  16.189 -23.295  0.00  0.00    -0.305 OA
BRANCH  19  20
ATOM     20  C   UNL d   1      31.078  16.062 -23.138  0.00  0.00     0.123 C 
ATOM     21  C   UNL d   1      30.676  15.454 -23.524  0.00  0.00     0.029 C 
ENDBRANCH  19  20
ENDBRANCH  16  19
ENDBRANCH   2  13
TORSDOF 7
ENDMDL
