MODEL 1
REMARK VINA RESULT:     -10.4      0.000      0.000
REMARK  4 active torsions:
REMARK  status: ('A' for Active; 'I' for Inactive)
REMARK    1  A    between atoms: N_5  and  C_1 
REMARK    2  A    between atoms: N_8  and  C_3 
REMARK    3  A    between atoms: C_19  and  N_8 
REMARK    4  A    between atoms: C_21  and  C_19 
ROOT
ATOM      1  C   UNL d   1      53.813  33.573  54.358  0.00  0.00     0.200 A 
ATOM      2  C   UNL d   1      53.688  34.370  54.529  0.00  0.00     0.288 A 
ATOM      3  C   UNL d   1      53.321  33.174  53.817  0.00  0.00     0.109 A 
ATOM      4  N   UNL d   1      53.066  34.775  54.158  0.00  0.00    -0.270 N 
ATOM      5  C   UNL d   1      52.700  33.587  53.450  0.00  0.00     0.036 A 
ATOM      6  C   UNL d   1      52.574  34.386  53.622  0.00  0.00     0.069 A 
ATOM      7  O   UNL d   1      54.179  34.758  55.065  0.00  0.00    -0.265 OA
ATOM      8  C   UNL d   1      52.940  35.571  54.329  0.00  0.00     0.102 C 
ATOM      9  C   UNL d   1      52.209  33.198  52.914  0.00  0.00     0.003 A 
ATOM     10  C   UNL d   1      51.958  34.793  53.256  0.00  0.00     0.018 A 
ATOM     11  C   UNL d   1      51.592  33.608  52.548  0.00  0.00     0.000 A 
ATOM     12  C   UNL d   1      51.467  34.404  52.719  0.00  0.00     0.002 A 
ENDROOT
BRANCH   3  13
ATOM     13  N   UNL d   1      53.445  32.379  53.645  0.00  0.00    -0.242 NA
BRANCH  13  14
ATOM     14  C   UNL d   1      52.831  31.834  53.738  0.00  0.00     0.099 C 
BRANCH  14  15
ATOM     15  C   UNL d   1      52.993  31.027  53.736  0.00  0.00     0.021 A 
ATOM     16  C   UNL d   1      52.979  30.604  54.442  0.00  0.00     0.028 A 
ATOM     17  C   UNL d   1      53.141  29.797  54.440  0.00  0.00     0.119 A 
ATOM     18  O   UNL d   1      53.168  29.241  55.039  0.00  0.00    -0.300 OA
ATOM     19  C   UNL d   1      53.317  29.413  53.731  0.00  0.00     0.119 A 
ATOM     20  C   UNL d   1      53.360  28.510  54.711  0.00  0.00     0.304 A 
ATOM     21  O   UNL d   1      53.452  28.622  53.898  0.00  0.00    -0.300 OA
ATOM     22  C   UNL d   1      53.331  29.843  53.021  0.00  0.00     0.026 A 
ATOM     23  C   UNL d   1      53.169  30.650  53.024  0.00  0.00     0.004 A 
ENDBRANCH  14  15
ENDBRANCH  13  14
ENDBRANCH   3  13
BRANCH   1  24
ATOM     24  N   UNL d   1      54.432  33.161  54.724  0.00  0.00    -0.107 N 
ATOM     25  O   UNL d   1      55.143  33.046  54.323  0.00  0.00    -0.531 OA
ATOM     26  O   UNL d   1      54.339  32.864  55.491  0.00  0.00    -0.531 OA
ENDBRANCH   1  24
TORSDOF 4
ENDMDL
MODEL 2
REMARK VINA RESULT:     -10.2      1.381      2.049
REMARK  4 active torsions:
REMARK  status: ('A' for Active; 'I' for Inactive)
REMARK    1  A    between atoms: N_5  and  C_1 
REMARK    2  A    between atoms: N_8  and  C_3 
REMARK    3  A    between atoms: C_19  and  N_8 
REMARK    4  A    between atoms: C_21  and  C_19 
ROOT
ATOM      1  C   UNL d   1      52.376  33.758  53.665  0.00  0.00     0.200 A 
ATOM      2  C   UNL d   1      52.501  34.570  53.725  0.00  0.00     0.288 A 
ATOM      3  C   UNL d   1      52.896  33.220  54.032  0.00  0.00     0.109 A 
ATOM      4  N   UNL d   1      53.152  34.853  54.156  0.00  0.00    -0.270 N 
ATOM      5  C   UNL d   1      53.545  33.512  54.461  0.00  0.00     0.036 A 
ATOM      6  C   UNL d   1      53.671  34.326  54.522  0.00  0.00     0.069 A 
ATOM      7  O   UNL d   1      51.982  35.096  53.359  0.00  0.00    -0.265 OA
ATOM      8  C   UNL d   1      53.278  35.664  54.216  0.00  0.00     0.102 C 
ATOM      9  C   UNL d   1      54.064  32.986  54.827  0.00  0.00     0.003 A 
ATOM     10  C   UNL d   1      54.316  34.612  54.948  0.00  0.00     0.018 A 
ATOM     11  C   UNL d   1      54.710  33.274  55.254  0.00  0.00     0.000 A 
ATOM     12  C   UNL d   1      54.836  34.086  55.314  0.00  0.00     0.002 A 
ENDROOT
BRANCH   3  13
ATOM     13  N   UNL d   1      52.772  32.409  53.973  0.00  0.00    -0.242 NA
BRANCH  13  14
ATOM     14  C   UNL d   1      53.283  31.944  53.522  0.00  0.00     0.099 C 
BRANCH  14  15
ATOM     15  C   UNL d   1      53.192  31.125  53.509  0.00  0.00     0.021 A 
ATOM     16  C   UNL d   1      53.312  30.688  54.195  0.00  0.00     0.028 A 
ATOM     17  C   UNL d   1      53.221  29.870  54.182  0.00  0.00     0.119 A 
ATOM     18  O   UNL d   1      53.301  29.298  54.762  0.00  0.00    -0.300 OA
ATOM     19  C   UNL d   1      53.009  29.489  53.481  0.00  0.00     0.119 A 
ATOM     20  C   UNL d   1      53.140  28.563  54.430  0.00  0.00     0.304 A 
ATOM     21  O   UNL d   1      52.959  28.686  53.633  0.00  0.00    -0.300 OA
ATOM     22  C   UNL d   1      52.888  29.934  52.790  0.00  0.00     0.026 A 
ATOM     23  C   UNL d   1      52.980  30.752  52.804  0.00  0.00     0.004 A 
ENDBRANCH  14  15
ENDBRANCH  13  14
ENDBRANCH   3  13
BRANCH   1  24
ATOM     24  N   UNL d   1      51.727  33.467  53.236  0.00  0.00    -0.107 N 
ATOM     25  O   UNL d   1      51.772  33.408  52.416  0.00  0.00    -0.531 OA
ATOM     26  O   UNL d   1      51.037  33.236  53.630  0.00  0.00    -0.531 OA
ENDBRANCH   1  24
TORSDOF 4
ENDMDL
MODEL 3
REMARK VINA RESULT:     -10.0      2.100      4.230
REMARK  4 active torsions:
REMARK  status: ('A' for Active; 'I' for Inactive)
REMARK    1  A    between atoms: N_5  and  C_1 
REMARK    2  A    between atoms: N_8  and  C_3 
REMARK    3  A    between atoms: C_19  and  N_8 
REMARK    4  A    between atoms: C_21  and  C_19 
ROOT
ATOM      1  C   UNL d   1      53.191  34.435  54.156  0.00  0.00     0.200 A 
ATOM      2  C   UNL d   1      53.800  34.205  54.661  0.00  0.00     0.288 A 
ATOM      3  C   UNL d   1      52.831  33.883  53.647  0.00  0.00     0.109 A 
ATOM      4  N   UNL d   1      54.055  33.414  54.660  0.00  0.00    -0.270 N 
ATOM      5  C   UNL d   1      53.092  33.094  53.653  0.00  0.00     0.036 A 
ATOM      6  C   UNL d   1      53.703  32.862  54.159  0.00  0.00     0.069 A 
ATOM      7  O   UNL d   1      54.152  34.757  55.162  0.00  0.00    -0.265 OA
ATOM      8  C   UNL d   1      54.664  33.184  55.165  0.00  0.00     0.102 C 
ATOM      9  C   UNL d   1      52.740  32.542  53.151  0.00  0.00     0.003 A 
ATOM     10  C   UNL d   1      53.960  32.079  54.162  0.00  0.00     0.018 A 
ATOM     11  C   UNL d   1      52.999  31.757  53.156  0.00  0.00     0.000 A 
ATOM     12  C   UNL d   1      53.608  31.527  53.660  0.00  0.00     0.002 A 
ENDROOT
BRANCH   3  13
ATOM     13  N   UNL d   1      52.222  34.112  53.143  0.00  0.00    -0.242 NA
BRANCH  13  14
ATOM     14  C   UNL d   1      51.459  33.818  53.254  0.00  0.00     0.099 C 
BRANCH  14  15
ATOM     15  C   UNL d   1      50.839  34.095  52.788  0.00  0.00     0.021 A 
ATOM     16  C   UNL d   1      50.192  34.459  53.141  0.00  0.00     0.028 A 
ATOM     17  C   UNL d   1      49.572  34.736  52.675  0.00  0.00     0.119 A 
ATOM     18  O   UNL d   1      48.870  35.114  52.862  0.00  0.00    -0.300 OA
ATOM     19  C   UNL d   1      49.600  34.648  51.855  0.00  0.00     0.119 A 
ATOM     20  C   UNL d   1      48.459  35.262  52.164  0.00  0.00     0.304 A 
ATOM     21  O   UNL d   1      48.916  34.971  51.541  0.00  0.00    -0.300 OA
ATOM     22  C   UNL d   1      50.255  34.279  51.502  0.00  0.00     0.026 A 
ATOM     23  C   UNL d   1      50.875  34.003  51.969  0.00  0.00     0.004 A 
ENDBRANCH  14  15
ENDBRANCH  13  14
ENDBRANCH   3  13
BRANCH   1  24
ATOM     24  N   UNL d   1      52.930  35.223  54.151  0.00  0.00    -0.107 N 
ATOM     25  O   UNL d   1      53.183  35.735  53.557  0.00  0.00    -0.531 OA
ATOM     26  O   UNL d   1      52.417  35.496  54.740  0.00  0.00    -0.531 OA
ENDBRANCH   1  24
TORSDOF 4
ENDMDL
MODEL 4
REMARK VINA RESULT:      -9.1      2.393      4.361
REMARK  4 active torsions:
REMARK  status: ('A' for Active; 'I' for Inactive)
REMARK    1  A    between atoms: N_5  and  C_1 
REMARK    2  A    between atoms: N_8  and  C_3 
REMARK    3  A    between atoms: C_19  and  N_8 
REMARK    4  A    between atoms: C_21  and  C_19 
ROOT
ATOM      1  C   UNL d   1      52.813  32.687  53.480  0.00  0.00     0.200 A 
ATOM      2  C   UNL d   1      53.399  32.491  54.026  0.00  0.00     0.288 A 
ATOM      3  C   UNL d   1      52.550  33.474  53.403  0.00  0.00     0.109 A 
ATOM      4  N   UNL d   1      53.727  33.087  54.503  0.00  0.00    -0.270 N 
ATOM      5  C   UNL d   1      52.885  34.063  53.884  0.00  0.00     0.036 A 
ATOM      6  C   UNL d   1      53.472  33.868  54.432  0.00  0.00     0.069 A 
ATOM      7  O   UNL d   1      53.654  31.711  54.096  0.00  0.00    -0.265 OA
ATOM      8  C   UNL d   1      54.312  32.892  55.048  0.00  0.00     0.102 C 
ATOM      9  C   UNL d   1      52.629  34.844  53.813  0.00  0.00     0.003 A 
ATOM     10  C   UNL d   1      53.801  34.455  54.908  0.00  0.00     0.018 A 
ATOM     11  C   UNL d   1      52.961  35.430  54.291  0.00  0.00     0.000 A 
ATOM     12  C   UNL d   1      53.546  35.236  54.837  0.00  0.00     0.002 A 
ENDROOT
BRANCH   3  13
ATOM     13  N   UNL d   1      51.966  33.669  52.857  0.00  0.00    -0.242 NA
BRANCH  13  14
ATOM     14  C   UNL d   1      51.202  33.846  53.115  0.00  0.00     0.099 C 
BRANCH  14  15
ATOM     15  C   UNL d   1      50.632  34.093  52.574  0.00  0.00     0.021 A 
ATOM     16  C   UNL d   1      49.922  34.410  52.843  0.00  0.00     0.028 A 
ATOM     17  C   UNL d   1      49.352  34.658  52.302  0.00  0.00     0.119 A 
ATOM     18  O   UNL d   1      48.610  34.988  52.399  0.00  0.00    -0.300 OA
ATOM     19  C   UNL d   1      49.493  34.588  51.493  0.00  0.00     0.119 A 
ATOM     20  C   UNL d   1      48.285  35.125  51.655  0.00  0.00     0.304 A 
ATOM     21  O   UNL d   1      48.837  34.875  51.095  0.00  0.00    -0.300 OA
ATOM     22  C   UNL d   1      50.211  34.267  51.225  0.00  0.00     0.026 A 
ATOM     23  C   UNL d   1      50.780  34.020  51.766  0.00  0.00     0.004 A 
ENDBRANCH  14  15
ENDBRANCH  13  14
ENDBRANCH   3  13
BRANCH   1  24
ATOM     24  N   UNL d   1      52.479  32.098  52.999  0.00  0.00    -0.107 N 
ATOM     25  O   UNL d   1      52.771  31.976  52.238  0.00  0.00    -0.531 OA
ATOM     26  O   UNL d   1      51.855  31.635  53.282  0.00  0.00    -0.531 OA
ENDBRANCH   1  24
TORSDOF 4
ENDMDL
