MODEL 1
REMARK VINA RESULT:      50.8      0.000      0.000
REMARK  5 active torsions:
REMARK  status: ('A' for Active; 'I' for Inactive)
REMARK       I    between atoms: C_6  and  N_1 
REMARK    1  A    between atoms: C_7  and  C_3 
REMARK    2  A    between atoms: C_8  and  C_4 
REMARK    3  A    between atoms: C_11  and  C_6 
REMARK    4  A    between atoms: C_9  and  C_17 
REMARK    5  A    between atoms: C_17  and  C_11 
ROOT
ATOM      1  N   UNL d   1      13.772  13.388  -3.347  0.00  0.00    -0.195 N 
ATOM      2  N   UNL d   1      13.742  13.938  -3.948  0.00  0.00    -0.163 NA
ATOM      3  C   UNL d   1      14.161  14.561  -3.680  0.00  0.00     0.103 A 
ATOM      4  C   UNL d   1      14.191  13.664  -2.737  0.00  0.00     0.088 A 
ATOM      5  C   UNL d   1      14.446  14.387  -2.910  0.00  0.00     0.040 A 
ATOM      6  C   UNL d   1      13.410  12.647  -3.381  0.00  0.00     0.281 C 
ATOM      7  O   UNL d   1      13.471  12.126  -2.742  0.00  0.00    -0.265 OA
ENDROOT
BRANCH   4   8
ATOM      8  C   UNL d   1      14.282  13.170  -2.061  0.00  0.00     0.018 A 
ATOM      9  C   UNL d   1      13.985  13.449  -1.335  0.00  0.00     0.002 A 
ATOM     10  C   UNL d   1      14.080  12.963  -0.696  0.00  0.00     0.007 A 
ATOM     11  C   UNL d   1      14.435  12.248  -0.728  0.00  0.00     0.035 A 
ATOM     12  C   UNL d   1      14.730  11.978  -1.461  0.00  0.00     0.007 A 
ATOM     13 BR   UNL d   1      14.505  11.781  -0.014  0.00  0.00    -0.049 Br
ATOM     14  C   UNL d   1      14.639  12.472  -2.137  0.00  0.00     0.002 A 
ENDBRANCH   4   8
BRANCH   6  15
ATOM     15  C   UNL d   1      12.972  12.430  -4.089  0.00  0.00     0.069 C 
BRANCH  15  16
ATOM     16  C   UNL d   1      13.233  11.781  -4.541  0.00  0.00     0.075 C 
BRANCH  16  17
ATOM     17  C   UNL d   1      13.405  11.870  -5.339  0.00  0.00     0.211 C 
ATOM     18  O   UNL d   1      12.781  11.932  -5.889  0.00  0.00    -0.644 OA
ATOM     19  O   UNL d   1      14.188  11.898  -5.598  0.00  0.00    -0.644 OA
ENDBRANCH  16  17
ENDBRANCH  15  16
ENDBRANCH   6  15
BRANCH   3  20
ATOM     20  C   UNL d   1      14.338  15.295  -4.026  0.00  0.00     0.019 A 
ATOM     21  C   UNL d   1      14.601  15.917  -3.566  0.00  0.00     0.002 A 
ATOM     22  C   UNL d   1      14.776  16.643  -3.913  0.00  0.00     0.007 A 
ATOM     23  C   UNL d   1      14.686  16.741  -4.727  0.00  0.00     0.035 A 
ATOM     24  C   UNL d   1      14.419  16.113  -5.203  0.00  0.00     0.007 A 
ATOM     25 BR   UNL d   1      14.867  17.511  -5.124  0.00  0.00    -0.049 Br
ATOM     26  C   UNL d   1      14.248  15.393  -4.840  0.00  0.00     0.002 A 
ENDBRANCH   3  20
TORSDOF 5
ENDMDL
