MODEL 1
REMARK VINA RESULT:       5.3      0.000      0.000
REMARK  5 active torsions:
REMARK  status: ('A' for Active; 'I' for Inactive)
REMARK    1  A    between atoms: N_10  and  C_3 
REMARK    2  A    between atoms: C_11  and  C_5 
REMARK    3  A    between atoms: C_15  and  C_9 
REMARK    4  A    between atoms: C_16  and  N_10 
REMARK       I    between atoms: C_12  and  N_13 
REMARK    5  A    between atoms: N_13  and  C_17 
ROOT
ATOM      1  C   UNL d   1     -41.864-122.180 -53.272  0.00  0.00     0.168 A 
ATOM      2  N   UNL d   1     -41.876-122.568 -52.553  0.00  0.00    -0.184 N 
ATOM      3  C   UNL d   1     -41.816-122.139 -51.876  0.00  0.00     0.218 A 
ATOM      4  N   UNL d   1     -42.010-123.794 -53.217  0.00  0.00    -0.162 NA
ATOM      5  C   UNL d   1     -41.923-122.596 -53.947  0.00  0.00     0.055 A 
ATOM      6  N   UNL d   1     -41.791-121.377 -53.287  0.00  0.00    -0.227 NA
ATOM      7  C   UNL d   1     -41.741-121.312 -51.902  0.00  0.00     0.071 A 
ATOM      8  C   UNL d   1     -41.997-123.406 -53.936  0.00  0.00     0.104 A 
ATOM      9  C   UNL d   1     -41.731-120.958 -52.610  0.00  0.00     0.087 A 
ATOM     10  C   UNL d   1     -42.056-123.817 -54.610  0.00  0.00     0.023 C 
ENDROOT
BRANCH   3  11
ATOM     11  N   UNL d   1     -41.828-122.534 -51.136  0.00  0.00    -0.383 NA
BRANCH  11  12
ATOM     12  C   UNL d   1     -41.781-122.845 -50.369  0.00  0.00     0.134 A 
ATOM     13  C   UNL d   1     -41.166-122.631 -49.865  0.00  0.00     0.034 A 
ATOM     14  C   UNL d   1     -41.126-122.954 -49.083  0.00  0.00     0.022 A 
ATOM     15  C   UNL d   1     -41.707-123.488 -48.822  0.00  0.00     0.085 A 
ATOM     16  C   UNL d   1     -42.333-123.708 -49.330  0.00  0.00     0.022 A 
ATOM     17  C   UNL d   1     -42.380-123.391 -50.111  0.00  0.00     0.034 A 
BRANCH  15  18
ATOM     18  N   UNL d   1     -41.671-123.807 -48.052  0.00  0.00    -0.208 NA
ATOM     19  C   UNL d   1     -42.143-123.498 -47.449  0.00  0.00     0.279 C 
ATOM     20  O   UNL d   1     -42.106-123.817 -46.683  0.00  0.00    -0.265 OA
ATOM     21  C   UNL d   1     -42.660-122.863 -47.607  0.00  0.00     0.068 C 
ENDBRANCH  15  18
ENDBRANCH  11  12
ENDBRANCH   3  11
BRANCH   9  22
ATOM     22  C   UNL d   1     -41.654-120.113 -52.632  0.00  0.00     0.018 C 
ATOM     23  C   UNL d   1     -42.118-119.668 -53.189  0.00  0.00     0.002 C 
ATOM     24  C   UNL d   1     -41.123-119.721 -52.106  0.00  0.00     0.002 C 
ENDBRANCH   9  22
BRANCH   5  25
ATOM     25  C   UNL d   1     -41.911-122.203 -54.674  0.00  0.00     0.004 A 
ATOM     26  C   UNL d   1     -41.210-122.075 -55.048  0.00  0.00     0.000 A 
ATOM     27  C   UNL d   1     -41.197-121.689 -55.763  0.00  0.00     0.000 A 
ATOM     28  C   UNL d   1     -41.886-121.439 -56.090  0.00  0.00     0.000 A 
ATOM     29  C   UNL d   1     -42.591-121.570 -55.709  0.00  0.00     0.000 A 
ATOM     30  C   UNL d   1     -42.595-121.951 -55.005  0.00  0.00     0.000 A 
ENDBRANCH   5  25
TORSDOF 5
ENDMDL
