MODEL 1
REMARK VINA RESULT:      35.9      0.000      0.000
REMARK  4 active torsions:
REMARK  status: ('A' for Active; 'I' for Inactive)
REMARK    1  A    between atoms: C_2  and  N_1 
REMARK    2  A    between atoms: C_14  and  C_7 
REMARK    3  A    between atoms: O_20  and  C_14 
REMARK    4  A    between atoms: C_23  and  O_20 
ROOT
ATOM      1  C   UNL d   1      45.850 -17.718  44.354  0.00  0.00     0.105 A 
ATOM      2  C   UNL d   1      45.911 -18.108  43.623  0.00  0.00     0.086 A 
ATOM      3  S   UNL d   1      46.055 -18.240  44.951  0.00  0.00    -0.069 SA
ATOM      4  C   UNL d   1      46.159 -18.877  43.812  0.00  0.00     0.013 A 
ATOM      5  C   UNL d   1      46.245 -18.953  44.617  0.00  0.00     0.031 A 
ATOM      6  C   UNL d   1      46.321 -19.531  43.344  0.00  0.00     0.001 A 
ATOM      7  C   UNL d   1      46.480 -19.641  44.954  0.00  0.00     0.006 A 
ATOM      8  C   UNL d   1      46.565 -20.248  43.679  0.00  0.00     0.000 A 
ATOM      9  C   UNL d   1      46.645 -20.303  44.486  0.00  0.00     0.001 A 
ENDROOT
BRANCH   1  10
ATOM     10  N   UNL d   1      45.607 -16.915  44.363  0.00  0.00    -0.236 N 
ATOM     11  C   UNL d   1      44.867 -16.706  44.652  0.00  0.00     0.266 A 
ATOM     12  C   UNL d   1      44.816 -15.901  44.579  0.00  0.00     0.069 A 
ATOM     13  O   UNL d   1      44.301 -17.248  44.955  0.00  0.00    -0.267 OA
ATOM     14  C   UNL d   1      44.214 -15.378  44.773  0.00  0.00     0.165 A 
ATOM     15  C   UNL d   1      45.526 -15.611  44.245  0.00  0.00     0.069 A 
ATOM     16  C   UNL d   1      44.300 -14.566  44.642  0.00  0.00     0.006 A 
ATOM     17  O   UNL d   1      45.035 -15.314  44.418  0.00  0.00    -0.341 OA
ATOM     18  C   UNL d   1      45.010 -14.276  44.308  0.00  0.00     0.006 A 
ATOM     19  C   UNL d   1      45.612 -14.805  44.115  0.00  0.00     0.165 A 
ATOM     20  C   UNL d   1      46.009 -16.239  44.114  0.00  0.00     0.266 A 
ATOM     21  O   UNL d   1      46.646 -16.217  43.842  0.00  0.00    -0.267 OA
ENDBRANCH   1  10
BRANCH   2  22
ATOM     22  C   UNL d   1      45.758 -17.802  42.867  0.00  0.00     0.302 C 
ATOM     23  O   UNL d   1      45.528 -17.326  42.757  0.00  0.00    -0.259 OA
BRANCH  22  24
ATOM     24  O   UNL d   1      45.977 -18.262  42.193  0.00  0.00    -0.271 OA
BRANCH  24  25
ATOM     25  C   UNL d   1      45.929 -17.928  41.460  0.00  0.00     0.126 C 
ATOM     26  C   UNL d   1      46.367 -18.282  40.840  0.00  0.00     0.029 C 
ENDBRANCH  24  25
ENDBRANCH  22  24
ENDBRANCH   2  22
TORSDOF 4
ENDMDL
