MODEL 1
REMARK VINA RESULT:      14.3      0.000      0.000
REMARK  2 active torsions:
REMARK  status: ('A' for Active; 'I' for Inactive)
REMARK    1  A    between atoms: C_6  and  N_2 
REMARK    2  A    between atoms: C_8  and  C_6 
ROOT
ATOM      1  C   UNL d   1      14.205  13.216  -2.300  0.00  0.00     0.151 A 
ATOM      2  N   UNL d   1      14.014  12.431  -2.454  0.00  0.00    -0.286 N 
ATOM      3  S   UNL d   1      13.897  13.666  -2.906  0.00  0.00    -0.057 SA
ATOM      4  C   UNL d   1      13.595  12.404  -3.146  0.00  0.00     0.071 A 
ATOM      5  C   UNL d   1      13.523  13.168  -3.426  0.00  0.00     0.048 A 
ATOM      6  S   UNL d   1      14.626  13.512  -1.662  0.00  0.00    -0.052 SA
ATOM      7  C   UNL d   1      13.263  11.779  -3.569  0.00  0.00     0.018 A 
ATOM      8  C   UNL d   1      13.117  13.316  -4.131  0.00  0.00     0.008 A 
ATOM      9  C   UNL d   1      12.856  11.920  -4.276  0.00  0.00     0.002 A 
ATOM     10  C   UNL d   1      12.783  12.684  -4.556  0.00  0.00     0.001 A 
ENDROOT
BRANCH   2  11
ATOM     11  C   UNL d   1      14.227  11.783  -1.966  0.00  0.00     0.152 C 
BRANCH  11  12
ATOM     12  C   UNL d   1      14.174  11.836  -1.145  0.00  0.00     0.230 C 
ATOM     13  O   UNL d   1      13.433  11.808  -0.772  0.00  0.00    -0.643 OA
ATOM     14  O   UNL d   1      14.853  11.917  -0.696  0.00  0.00    -0.643 OA
ENDBRANCH  11  12
ENDBRANCH   2  11
TORSDOF 2
ENDMDL
