MODEL 1
REMARK VINA RESULT:      29.4      0.000      0.000
REMARK  5 active torsions:
REMARK  status: ('A' for Active; 'I' for Inactive)
REMARK    1  A    between atoms: C_6  and  C_1 
REMARK    2  A    between atoms: C_7  and  C_6 
REMARK    3  A    between atoms: C_11  and  C_19 
REMARK    4  A    between atoms: O_18  and  C_17 
REMARK    5  A    between atoms: C_19  and  O_18 
ROOT
ATOM      1  C   UNL d   1      13.698  12.413  -2.690  0.00  0.00     0.139 A 
ATOM      2  C   UNL d   1      13.332  13.158  -3.744  0.00  0.00     0.064 A 
ATOM      3  C   UNL d   1      13.260  12.417  -3.394  0.00  0.00     0.220 A 
ATOM      4  C   UNL d   1      13.817  13.620  -3.261  0.00  0.00     0.105 A 
ATOM      5  O   UNL d   1      14.043  13.156  -2.607  0.00  0.00    -0.304 OA
ATOM      6  C   UNL d   1      13.993  14.396  -3.469  0.00  0.00     0.049 A 
ATOM      7  C   UNL d   1      13.023  13.471  -4.436  0.00  0.00     0.007 A 
ATOM      8  O   UNL d   1      12.825  11.783  -3.689  0.00  0.00    -0.284 OA
ATOM      9  C   UNL d   1      13.678  14.706  -4.167  0.00  0.00     0.097 A 
ATOM     10  C   UNL d   1      13.196  14.246  -4.648  0.00  0.00     0.025 A 
ENDROOT
BRANCH   1  11
ATOM     11  C   UNL d   1      13.778  11.780  -2.164  0.00  0.00     0.034 C 
BRANCH  11  12
ATOM     12  C   UNL d   1      14.021  11.912  -1.389  0.00  0.00     0.032 A 
ATOM     13  S   UNL d   1      13.545  11.892  -0.719  0.00  0.00    -0.086 SA
ATOM     14  C   UNL d   1      14.020  12.057  -0.058  0.00  0.00     0.035 A 
ATOM     15  C   UNL d   1      14.791  12.179  -0.327  0.00  0.00     0.007 A 
ATOM     16  C   UNL d   1      14.799  12.091  -1.150  0.00  0.00     0.007 A 
ENDBRANCH  11  12
ENDBRANCH   1  11
BRANCH   9  17
ATOM     17  O   UNL d   1      13.856  15.485  -4.373  0.00  0.00    -0.319 OA
BRANCH  17  18
ATOM     18  C   UNL d   1      14.377  15.920  -3.899  0.00  0.00     0.246 C 
BRANCH  18  19
ATOM     19  C   UNL d   1      14.871  16.478  -4.248  0.00  0.00     0.217 C 
ATOM     20  O   UNL d   1      15.139  17.128  -3.814  0.00  0.00    -0.645 OA
ATOM     21  O   UNL d   1      15.117  16.383  -5.087  0.00  0.00    -0.645 OA
ENDBRANCH  18  19
ENDBRANCH  17  18
ENDBRANCH   9  17
TORSDOF 5
ENDMDL
MODEL 2
REMARK VINA RESULT:      29.6      2.077      3.757
REMARK  5 active torsions:
REMARK  status: ('A' for Active; 'I' for Inactive)
REMARK    1  A    between atoms: C_6  and  C_1 
REMARK    2  A    between atoms: C_7  and  C_6 
REMARK    3  A    between atoms: C_11  and  C_19 
REMARK    4  A    between atoms: O_18  and  C_17 
REMARK    5  A    between atoms: C_19  and  O_18 
ROOT
ATOM      1  C   UNL d   1      14.746  14.220  -0.896  0.00  0.00     0.139 A 
ATOM      2  C   UNL d   1      14.610  12.954  -1.321  0.00  0.00     0.064 A 
ATOM      3  C   UNL d   1      14.906  13.426  -0.716  0.00  0.00     0.220 A 
ATOM      4  C   UNL d   1      14.263  13.451  -1.882  0.00  0.00     0.105 A 
ATOM      5  O   UNL d   1      14.348  14.236  -1.617  0.00  0.00    -0.304 OA
ATOM      6  C   UNL d   1      13.915  13.136  -2.558  0.00  0.00     0.049 A 
ATOM      7  C   UNL d   1      14.610  12.142  -1.435  0.00  0.00     0.007 A 
ATOM      8  O   UNL d   1      15.297  13.160  -0.042  0.00  0.00    -0.284 OA
ATOM      9  C   UNL d   1      13.918  12.317  -2.666  0.00  0.00     0.097 A 
ATOM     10  C   UNL d   1      14.264  11.823  -2.108  0.00  0.00     0.025 A 
ENDROOT
BRANCH   1  11
ATOM     11  C   UNL d   1      14.947  14.878  -0.438  0.00  0.00     0.034 C 
BRANCH  11  12
ATOM     12  C   UNL d   1      15.121  15.598  -0.799  0.00  0.00     0.032 A 
ATOM     13  S   UNL d   1      15.807  16.039  -0.700  0.00  0.00    -0.086 SA
ATOM     14  C   UNL d   1      15.745  16.722  -1.169  0.00  0.00     0.035 A 
ATOM     15  C   UNL d   1      15.018  16.697  -1.556  0.00  0.00     0.007 A 
ATOM     16  C   UNL d   1      14.625  16.003  -1.332  0.00  0.00     0.007 A 
ENDBRANCH  11  12
ENDBRANCH   1  11
BRANCH   9  17
ATOM     17  O   UNL d   1      13.569  12.003  -3.346  0.00  0.00    -0.319 OA
BRANCH  17  18
ATOM     18  C   UNL d   1      12.980  12.436  -3.733  0.00  0.00     0.246 C 
BRANCH  18  19
ATOM     19  C   UNL d   1      13.006  12.510  -4.552  0.00  0.00     0.217 C 
ATOM     20  O   UNL d   1      12.973  13.258  -4.905  0.00  0.00    -0.645 OA
ATOM     21  O   UNL d   1      13.069  11.793  -5.057  0.00  0.00    -0.645 OA
ENDBRANCH  18  19
ENDBRANCH  17  18
ENDBRANCH   9  17
TORSDOF 5
ENDMDL
