MODEL 1
REMARK VINA RESULT:      19.4      0.000      0.000
REMARK  1 active torsions:
REMARK  status: ('A' for Active; 'I' for Inactive)
REMARK    1  A    between atoms: C_9  and  C_1 
ROOT
ATOM      1  C   UNL d   1     -52.295  25.348  33.329  0.00  0.00     0.064 A 
ATOM      2  C   UNL d   1     -51.463  25.324  33.331  0.00  0.00     0.199 A 
ATOM      3  C   UNL d   1     -51.042  26.041  33.329  0.00  0.00     0.062 A 
ATOM      4  C   UNL d   1     -52.693  26.067  33.326  0.00  0.00     0.126 A 
ATOM      5  C   UNL d   1     -51.440  26.760  33.326  0.00  0.00     0.106 A 
ATOM      6  O   UNL d   1     -52.267  26.777  33.324  0.00  0.00    -0.305 OA
ATOM      7  C   UNL d   1     -50.217  26.014  33.330  0.00  0.00     0.009 A 
ATOM      8  C   UNL d   1     -51.020  27.467  33.324  0.00  0.00     0.067 A 
ATOM      9  O   UNL d   1     -51.067  24.609  33.334  0.00  0.00    -0.286 OA
ATOM     10  C   UNL d   1     -50.193  27.450  33.325  0.00  0.00     0.198 A 
ATOM     11  C   UNL d   1     -49.795  26.731  33.328  0.00  0.00     0.042 A 
ATOM     12  O   UNL d   1     -49.750  28.170  33.323  0.00  0.00    -0.286 OA
ENDROOT
BRANCH   1  13
ATOM     13  C   UNL d   1     -52.713  24.633  33.331  0.00  0.00     0.005 A 
ATOM     14  C   UNL d   1     -52.317  23.917  33.356  0.00  0.00     0.000 A 
ATOM     15  C   UNL d   1     -52.740  23.200  33.358  0.00  0.00     0.000 A 
ATOM     16  C   UNL d   1     -53.564  23.227  33.334  0.00  0.00     0.000 A 
ATOM     17  C   UNL d   1     -53.959  23.943  33.309  0.00  0.00     0.000 A 
ATOM     18  C   UNL d   1     -53.545  24.656  33.307  0.00  0.00     0.000 A 
ENDBRANCH   1  13
TORSDOF 1
ENDMDL
