MODEL 1
REMARK VINA RESULT:      12.4      0.000      0.000
REMARK  2 active torsions:
REMARK  status: ('A' for Active; 'I' for Inactive)
REMARK       I    between atoms: N_3  and  C_1 
REMARK    1  A    between atoms: O_4  and  C_1 
REMARK    2  A    between atoms: C_6  and  O_4 
ROOT
ATOM      1  C   UNL d   1      46.434 -18.347  43.425  0.00  0.00     0.105 A 
ATOM      2  C   UNL d   1      46.535 -19.157  43.522  0.00  0.00     0.030 A 
ATOM      3  C   UNL d   1      46.341 -17.853  44.096  0.00  0.00     0.122 A 
ATOM      4  N   UNL d   1      46.423 -18.015  42.664  0.00  0.00    -0.242 NA
ATOM      5  C   UNL d   1      46.545 -19.486  44.280  0.00  0.00     0.059 A 
ATOM      6  C   UNL d   1      46.351 -18.180  44.848  0.00  0.00     0.027 A 
ATOM      7  C   UNL d   1      46.452 -18.992  44.951  0.00  0.00     0.013 A 
ATOM      8 CL   UNL d   1      46.647 -20.304  44.382  0.00  0.00    -0.082 Cl
ATOM      9  C   UNL d   1      46.626 -19.644  42.862  0.00  0.00     0.004 A 
ATOM     10  C   UNL d   1      46.514 -18.501  42.004  0.00  0.00     0.099 A 
ATOM     11  C   UNL d   1      46.616 -19.319  42.105  0.00  0.00     0.021 A 
ENDROOT
BRANCH   3  12
ATOM     12  O   UNL d   1      46.238 -17.030  44.001  0.00  0.00    -0.257 OA
BRANCH  12  13
ATOM     13  C   UNL d   1      45.690 -16.613  44.474  0.00  0.00     0.378 C 
ATOM     14  N   UNL d   1      45.678 -15.796  44.479  0.00  0.00    -0.252 N 
ATOM     15  C   UNL d   1      45.135 -15.389  44.948  0.00  0.00     0.085 A 
ATOM     16  C   UNL d   1      46.213 -15.373  44.012  0.00  0.00     0.085 A 
ATOM     17  C   UNL d   1      45.121 -14.568  44.955  0.00  0.00     0.019 A 
ATOM     18  C   UNL d   1      45.656 -14.145  44.488  0.00  0.00     0.003 A 
ATOM     19  C   UNL d   1      46.195 -14.550  44.023  0.00  0.00     0.019 A 
ATOM     20  O   UNL d   1      45.149 -17.042  44.947  0.00  0.00    -0.237 OA
ENDBRANCH  12  13
ENDBRANCH   3  12
TORSDOF 2
ENDMDL
