MODEL 1
REMARK VINA RESULT:      58.0      0.000      0.000
REMARK  4 active torsions:
REMARK  status: ('A' for Active; 'I' for Inactive)
REMARK    1  A    between atoms: C_4  and  N_1 
REMARK    2  A    between atoms: C_8  and  C_2 
REMARK    3  A    between atoms: C_13  and  C_6 
REMARK    4  A    between atoms: C_7  and  C_8 
ROOT
ATOM      1  N   UNL d   1      14.429  14.790  -1.923  0.00  0.00    -0.255 N 
ATOM      2  C   UNL d   1      14.011  13.706  -2.574  0.00  0.00     0.101 A 
ATOM      3  C   UNL d   1      14.089  15.038  -2.643  0.00  0.00     0.305 A 
ATOM      4  C   UNL d   1      13.829  14.363  -3.048  0.00  0.00     0.256 A 
ATOM      5  C   UNL d   1      14.375  13.972  -1.893  0.00  0.00     0.075 A 
ATOM      6  O   UNL d   1      14.023  15.817  -2.907  0.00  0.00    -0.263 OA
ATOM      7  O   UNL d   1      13.462  14.360  -3.781  0.00  0.00    -0.281 OA
ENDROOT
BRANCH   2   8
ATOM      8  C   UNL d   1      13.844  12.921  -2.774  0.00  0.00     0.223 C 
ATOM      9  O   UNL d   1      13.786  12.352  -2.179  0.00  0.00    -0.284 OA
BRANCH   8  10
ATOM     10  C   UNL d   1      13.736  12.700  -3.553  0.00  0.00     0.139 A 
ATOM     11  O   UNL d   1      14.238  12.880  -4.183  0.00  0.00    -0.304 OA
ATOM     12  C   UNL d   1      13.918  12.549  -4.868  0.00  0.00     0.100 A 
ATOM     13  C   UNL d   1      14.168  12.546  -5.649  0.00  0.00     0.025 A 
ATOM     14  C   UNL d   1      13.218  12.164  -4.658  0.00  0.00     0.025 A 
ATOM     15  C   UNL d   1      13.731  12.166  -6.219  0.00  0.00     0.002 A 
ATOM     16  C   UNL d   1      13.030  11.779  -6.015  0.00  0.00     0.000 A 
ATOM     17  C   UNL d   1      12.774  11.780  -5.232  0.00  0.00     0.002 A 
ATOM     18  C   UNL d   1      13.107  12.258  -3.848  0.00  0.00     0.030 A 
ENDBRANCH   8  10
ENDBRANCH   2   8
BRANCH   5  19
ATOM     19  C   UNL d   1      14.644  13.491  -1.274  0.00  0.00     0.017 A 
ATOM     20  C   UNL d   1      14.153  12.923  -0.961  0.00  0.00     0.013 A 
ATOM     21  C   UNL d   1      14.418  12.440  -0.341  0.00  0.00     0.058 A 
ATOM     22 CL   UNL d   1      13.922  11.863  -0.021  0.00  0.00    -0.082 Cl
ATOM     23  C   UNL d   1      15.182  12.538  -0.045  0.00  0.00     0.011 A 
ATOM     24  C   UNL d   1      15.678  13.115  -0.365  0.00  0.00     0.001 A 
ATOM     25  C   UNL d   1      15.403  13.591  -0.981  0.00  0.00     0.002 A 
ENDBRANCH   5  19
BRANCH   1  26
ATOM     26  C   UNL d   1      14.754  15.283  -1.357  0.00  0.00     0.179 A 
ATOM     27  N   UNL d   1      14.655  15.207  -0.538  0.00  0.00    -0.108 NA
ATOM     28  O   UNL d   1      15.073  15.813  -0.175  0.00  0.00    -0.210 OA
ATOM     29  C   UNL d   1      15.432  16.266  -0.769  0.00  0.00     0.128 A 
ATOM     30  C   UNL d   1      15.232  15.936  -1.498  0.00  0.00     0.067 A 
ATOM     31  C   UNL d   1      15.905  16.932  -0.651  0.00  0.00     0.029 C 
ENDBRANCH   1  26
TORSDOF 4
ENDMDL
