MODEL 1
REMARK VINA RESULT:      -5.7      0.000      0.000
REMARK  3 active torsions:
REMARK  status: ('A' for Active; 'I' for Inactive)
REMARK    1  A    between atoms: C_6  and  C_2 
REMARK    2  A    between atoms: O_7  and  C_6 
REMARK    3  A    between atoms: C_8  and  O_7 
ROOT
ATOM      1  N   UNL d   1      58.720   0.386  30.450  0.00  0.00    -0.224 NA
ATOM      2  C   UNL d   1      58.053  -0.108  30.443  0.00  0.00     0.188 A 
ATOM      3  N   UNL d   1      58.132  -0.595  29.777  0.00  0.00    -0.224 NA
ATOM      4  C   UNL d   1      59.187   0.207  29.810  0.00  0.00     0.101 A 
ATOM      5  C   UNL d   1      58.821  -0.404  29.390  0.00  0.00     0.101 A 
ATOM      6  C   UNL d   1      59.899   0.499  29.527  0.00  0.00     0.021 A 
ATOM      7  C   UNL d   1      59.176  -0.708  28.700  0.00  0.00     0.021 A 
ATOM      8  C   UNL d   1      59.875  -0.395  28.455  0.00  0.00     0.002 A 
ATOM      9  C   UNL d   1      60.241   0.217  28.875  0.00  0.00     0.002 A 
ENDROOT
BRANCH   2  10
ATOM     10  C   UNL d   1      57.573   0.049  31.068  0.00  0.00     0.161 C 
BRANCH  10  11
ATOM     11  O   UNL d   1      57.006  -0.515  31.320  0.00  0.00    -0.302 OA
BRANCH  11  12
ATOM     12  C   UNL d   1      56.526  -0.371  31.985  0.00  0.00     0.100 A 
ATOM     13  C   UNL d   1      56.334   0.398  32.190  0.00  0.00     0.025 A 
ATOM     14  C   UNL d   1      55.860   0.569  32.844  0.00  0.00     0.002 A 
ATOM     15  C   UNL d   1      55.586  -0.073  33.282  0.00  0.00     0.000 A 
ATOM     16  C   UNL d   1      55.776  -0.847  33.079  0.00  0.00     0.002 A 
ATOM     17  C   UNL d   1      55.105   0.071  33.947  0.00  0.00     0.000 C 
ATOM     18  C   UNL d   1      56.249  -1.011  32.427  0.00  0.00     0.025 A 
ENDBRANCH  11  12
ENDBRANCH  10  11
ENDBRANCH   2  10
TORSDOF 3
ENDMDL
MODEL 2
REMARK VINA RESULT:      -5.4      1.075      4.706
REMARK  3 active torsions:
REMARK  status: ('A' for Active; 'I' for Inactive)
REMARK    1  A    between atoms: C_6  and  C_2 
REMARK    2  A    between atoms: O_7  and  C_6 
REMARK    3  A    between atoms: C_8  and  O_7 
ROOT
ATOM      1  N   UNL d   1      56.982  -0.764  31.691  0.00  0.00    -0.224 NA
ATOM      2  C   UNL d   1      57.215  -0.002  31.458  0.00  0.00     0.188 A 
ATOM      3  N   UNL d   1      56.776   0.526  31.923  0.00  0.00    -0.224 NA
ATOM      4  C   UNL d   1      56.421  -0.702  32.275  0.00  0.00     0.101 A 
ATOM      5  C   UNL d   1      56.293   0.102  32.420  0.00  0.00     0.101 A 
ATOM      6  C   UNL d   1      55.994  -1.248  32.712  0.00  0.00     0.021 A 
ATOM      7  C   UNL d   1      55.740   0.339  32.998  0.00  0.00     0.021 A 
ATOM      8  C   UNL d   1      55.341  -0.228  33.406  0.00  0.00     0.002 A 
ATOM      9  C   UNL d   1      55.470  -1.032  33.261  0.00  0.00     0.002 A 
ENDROOT
BRANCH   2  10
ATOM     10  C   UNL d   1      57.771  -0.035  30.879  0.00  0.00     0.161 C 
BRANCH  10  11
ATOM     11  O   UNL d   1      58.027   0.665  30.496  0.00  0.00    -0.302 OA
BRANCH  11  12
ATOM     12  C   UNL d   1      58.679   0.656  29.978  0.00  0.00     0.100 A 
ATOM     13  C   UNL d   1      59.440   0.680  30.280  0.00  0.00     0.025 A 
ATOM     14  C   UNL d   1      60.103   0.672  29.789  0.00  0.00     0.002 A 
ATOM     15  C   UNL d   1      59.964   0.638  28.977  0.00  0.00     0.000 A 
ATOM     16  C   UNL d   1      59.202   0.614  28.670  0.00  0.00     0.002 A 
ATOM     17  C   UNL d   1      60.616   0.629  28.459  0.00  0.00     0.000 C 
ATOM     18  C   UNL d   1      58.545   0.622  29.164  0.00  0.00     0.025 A 
ENDBRANCH  11  12
ENDBRANCH  10  11
ENDBRANCH   2  10
TORSDOF 3
ENDMDL
MODEL 3
REMARK VINA RESULT:      -2.9      9.377     10.189
REMARK  3 active torsions:
REMARK  status: ('A' for Active; 'I' for Inactive)
REMARK    1  A    between atoms: C_6  and  C_2 
REMARK    2  A    between atoms: O_7  and  C_6 
REMARK    3  A    between atoms: C_8  and  O_7 
ROOT
ATOM      1  N   UNL d   1      59.073  -8.527  34.308  0.00  0.00    -0.224 NA
ATOM      2  C   UNL d   1      59.258  -9.248  33.941  0.00  0.00     0.188 A 
ATOM      3  N   UNL d   1      59.918  -9.550  34.342  0.00  0.00    -0.224 NA
ATOM      4  C   UNL d   1      59.602  -8.395  34.911  0.00  0.00     0.101 A 
ATOM      5  C   UNL d   1      60.129  -9.032  34.931  0.00  0.00     0.101 A 
ATOM      6  C   UNL d   1      59.700  -7.792  35.457  0.00  0.00     0.021 A 
ATOM      7  C   UNL d   1      60.739  -9.050  35.499  0.00  0.00     0.021 A 
ATOM      8  C   UNL d   1      60.802  -8.440  36.018  0.00  0.00     0.002 A 
ATOM      9  C   UNL d   1      60.276  -7.802  35.997  0.00  0.00     0.002 A 
ENDROOT
BRANCH   2  10
ATOM     10  C   UNL d   1      58.748  -9.403  33.339  0.00  0.00     0.161 C 
BRANCH  10  11
ATOM     11  O   UNL d   1      59.008  -9.818  32.659  0.00  0.00    -0.302 OA
BRANCH  11  12
ATOM     12  C   UNL d   1      58.557  -9.818  31.959  0.00  0.00     0.100 A 
ATOM     13  C   UNL d   1      57.739  -9.817  32.002  0.00  0.00     0.025 A 
ATOM     14  C   UNL d   1      57.269  -9.817  31.323  0.00  0.00     0.002 A 
ATOM     15  C   UNL d   1      57.661  -9.817  30.598  0.00  0.00     0.000 A 
ATOM     16  C   UNL d   1      58.482  -9.818  30.552  0.00  0.00     0.002 A 
ATOM     17  C   UNL d   1      57.210  -9.817  29.898  0.00  0.00     0.000 C 
ATOM     18  C   UNL d   1      58.945  -9.818  31.230  0.00  0.00     0.025 A 
ENDBRANCH  11  12
ENDBRANCH  10  11
ENDBRANCH   2  10
TORSDOF 3
ENDMDL
MODEL 4
REMARK VINA RESULT:      -2.8      9.857     10.119
REMARK  3 active torsions:
REMARK  status: ('A' for Active; 'I' for Inactive)
REMARK    1  A    between atoms: C_6  and  C_2 
REMARK    2  A    between atoms: O_7  and  C_6 
REMARK    3  A    between atoms: C_8  and  O_7 
ROOT
ATOM      1  N   UNL d   1      58.698  -9.813  30.870  0.00  0.00    -0.224 NA
ATOM      2  C   UNL d   1      58.356  -9.816  31.626  0.00  0.00     0.188 A 
ATOM      3  N   UNL d   1      57.535  -9.818  31.509  0.00  0.00    -0.224 NA
ATOM      4  C   UNL d   1      58.106  -9.814  30.313  0.00  0.00     0.101 A 
ATOM      5  C   UNL d   1      57.381  -9.817  30.711  0.00  0.00     0.101 A 
ATOM      6  C   UNL d   1      58.098  -9.813  29.493  0.00  0.00     0.021 A 
ATOM      7  C   UNL d   1      56.668  -9.818  30.279  0.00  0.00     0.021 A 
ATOM      8  C   UNL d   1      56.703  -9.816  29.476  0.00  0.00     0.002 A 
ATOM      9  C   UNL d   1      57.428  -9.814  29.078  0.00  0.00     0.002 A 
ENDROOT
BRANCH   2  10
ATOM     10  C   UNL d   1      58.921  -9.815  32.198  0.00  0.00     0.161 C 
BRANCH  10  11
ATOM     11  O   UNL d   1      58.761  -9.486  32.952  0.00  0.00    -0.302 OA
BRANCH  11  12
ATOM     12  C   UNL d   1      59.327  -9.520  33.562  0.00  0.00     0.100 A 
ATOM     13  C   UNL d   1      59.097  -9.731  34.319  0.00  0.00     0.025 A 
ATOM     14  C   UNL d   1      59.637  -9.772  34.942  0.00  0.00     0.002 A 
ATOM     15  C   UNL d   1      60.422  -9.592  34.766  0.00  0.00     0.000 A 
ATOM     16  C   UNL d   1      60.657  -9.381  34.007  0.00  0.00     0.002 A 
ATOM     17  C   UNL d   1      60.988  -9.627  35.376  0.00  0.00     0.000 C 
ATOM     18  C   UNL d   1      60.114  -9.341  33.391  0.00  0.00     0.025 A 
ENDBRANCH  11  12
ENDBRANCH  10  11
ENDBRANCH   2  10
TORSDOF 3
ENDMDL
