MODEL 1
REMARK VINA RESULT:      49.7      0.000      0.000
REMARK  5 active torsions:
REMARK  status: ('A' for Active; 'I' for Inactive)
REMARK    1  A    between atoms: N_6  and  C_1 
REMARK    2  A    between atoms: C_7  and  C_2 
REMARK       I    between atoms: C_8  and  N_6 
REMARK       I    between atoms: N_13  and  C_7 
REMARK    3  A    between atoms: C_9  and  C_8 
REMARK    4  A    between atoms: C_10  and  C_9 
REMARK    5  A    between atoms: C_15  and  C_10 
ROOT
ATOM      1  C   UNL d   1     -50.133  26.655  33.471  0.00  0.00     0.119 A 
ATOM      2  C   UNL d   1     -50.813  26.281  33.437  0.00  0.00     0.082 A 
ATOM      3  S   UNL d   1     -49.552  26.117  33.449  0.00  0.00    -0.068 SA
ATOM      4  C   UNL d   1     -50.669  25.505  33.392  0.00  0.00     0.013 A 
ATOM      5  C   UNL d   1     -49.883  25.407  33.400  0.00  0.00     0.031 A 
ATOM      6  C   UNL d   1     -51.146  24.876  33.345  0.00  0.00     0.001 A 
ATOM      7  C   UNL d   1     -50.057  24.053  33.314  0.00  0.00     0.006 A 
ATOM      8  C   UNL d   1     -50.837  24.152  33.306  0.00  0.00     0.001 A 
ENDROOT
BRANCH   1   9
ATOM      9  N   UNL d   1     -49.794  27.308  33.517  0.00  0.00    -0.201 NA
ATOM     10  C   UNL d   1     -49.322  27.356  34.355  0.00  0.00     0.280 C 
ATOM     11  O   UNL d   1     -49.233  26.944  34.892  0.00  0.00    -0.265 OA
BRANCH  10  12
ATOM     12  C   UNL d   1     -48.926  28.073  34.449  0.00  0.00     0.062 C 
BRANCH  12  13
ATOM     13  C   UNL d   1     -48.438  28.196  35.111  0.00  0.00     0.005 C 
BRANCH  13  14
ATOM     14  C   UNL d   1     -48.098  28.936  35.242  0.00  0.00     0.000 A 
ATOM     15  C   UNL d   1     -48.386  29.604  34.845  0.00  0.00     0.000 A 
ATOM     16  C   UNL d   1     -48.052  30.347  34.971  0.00  0.00     0.000 A 
ATOM     17  C   UNL d   1     -47.421  30.432  35.499  0.00  0.00     0.000 A 
ATOM     18  C   UNL d   1     -47.128  29.761  35.901  0.00  0.00     0.000 A 
ATOM     19  C   UNL d   1     -47.468  29.021  35.769  0.00  0.00     0.000 A 
ENDBRANCH  13  14
ENDBRANCH  12  13
ENDBRANCH  10  12
ENDBRANCH   1   9
BRANCH   2  20
ATOM     20  C   UNL d   1     -51.526  26.618  33.444  0.00  0.00     0.281 C 
ATOM     21  O   UNL d   1     -52.167  26.177  33.592  0.00  0.00    -0.265 OA
ATOM     22  N   UNL d   1     -51.603  27.393  33.306  0.00  0.00    -0.205 NA
ATOM     23  C   UNL d   1     -52.351  27.741  33.315  0.00  0.00     0.123 C 
ENDBRANCH   2  20
TORSDOF 5
ENDMDL
