MODEL 1
REMARK VINA RESULT:       1.9      0.000      0.000
REMARK  5 active torsions:
REMARK  status: ('A' for Active; 'I' for Inactive)
REMARK       I    between atoms: C_2  and  N_1 
REMARK    1  A    between atoms: C_5  and  N_1 
REMARK    2  A    between atoms: C_6  and  N_1 
REMARK    3  A    between atoms: C_4  and  C_2 
REMARK    4  A    between atoms: N_3  and  C_5 
REMARK    5  A    between atoms: O_16  and  C_11 
ROOT
ATOM      1  N   UNL d   1      31.249  17.736 -24.106  0.00  0.00    -0.256 N 
ATOM      2  C   UNL d   1      30.500  18.003 -24.339  0.00  0.00     0.270 C 
ATOM      3  O   UNL d   1      30.399  18.688 -24.681  0.00  0.00    -0.266 OA
ENDROOT
BRANCH   1   4
ATOM      4  C   UNL d   1      31.339  17.000 -23.742  0.00  0.00     0.172 C 
BRANCH   4   5
ATOM      5  N   UNL d   1      32.012  16.538 -23.631  0.00  0.00    -0.257 N 
ATOM      6  C   UNL d   1      32.165  16.019 -23.011  0.00  0.00     0.266 A 
ATOM      7  O   UNL d   1      31.656  15.867 -22.372  0.00  0.00    -0.267 OA
ATOM      8  C   UNL d   1      32.911  15.673 -23.129  0.00  0.00     0.063 A 
ATOM      9  C   UNL d   1      33.223  15.981 -23.830  0.00  0.00     0.024 A 
ATOM     10  C   UNL d   1      32.678  16.514 -24.146  0.00  0.00     0.085 A 
ENDBRANCH   4   5
ENDBRANCH   1   4
BRANCH   1  11
ATOM     11  C   UNL d   1      31.916  18.210 -24.239  0.00  0.00     0.090 A 
ATOM     12  C   UNL d   1      32.194  18.708 -23.639  0.00  0.00     0.110 A 
ATOM     13  C   UNL d   1      32.852  19.173 -23.776  0.00  0.00     0.026 A 
ATOM     14  C   UNL d   1      33.234  19.149 -24.499  0.00  0.00     0.002 A 
ATOM     15  C   UNL d   1      32.960  18.659 -25.087  0.00  0.00     0.002 A 
ATOM     16  C   UNL d   1      32.303  18.185 -24.973  0.00  0.00     0.020 A 
BRANCH  12  17
ATOM     17  O   UNL d   1      31.814  18.732 -22.921  0.00  0.00    -0.327 OA
ATOM     18  C   UNL d   1      31.967  19.348 -22.400  0.00  0.00     0.181 C 
ENDBRANCH  12  17
ENDBRANCH   1  11
BRANCH   2  19
ATOM     19  C   UNL d   1      29.847  17.524 -24.201  0.00  0.00     0.111 A 
ATOM     20  C   UNL d   1      29.790  16.782 -24.585  0.00  0.00     0.147 A 
ATOM     21  F   UNL d   1      30.380  16.535 -25.094  0.00  0.00    -0.204 F 
ATOM     22  C   UNL d   1      29.128  16.315 -24.435  0.00  0.00     0.030 A 
ATOM     23  C   UNL d   1      28.540  16.579 -23.918  0.00  0.00     0.005 A 
ATOM     24  C   UNL d   1      28.607  17.312 -23.545  0.00  0.00     0.030 A 
ATOM     25  C   UNL d   1      29.258  17.779 -23.688  0.00  0.00     0.147 A 
ATOM     26  F   UNL d   1      29.330  18.515 -23.317  0.00  0.00    -0.204 F 
ENDBRANCH   2  19
TORSDOF 5
ENDMDL
MODEL 2
REMARK VINA RESULT:       2.1      1.304      3.259
REMARK  5 active torsions:
REMARK  status: ('A' for Active; 'I' for Inactive)
REMARK       I    between atoms: C_2  and  N_1 
REMARK    1  A    between atoms: C_5  and  N_1 
REMARK    2  A    between atoms: C_6  and  N_1 
REMARK    3  A    between atoms: C_4  and  C_2 
REMARK    4  A    between atoms: N_3  and  C_5 
REMARK    5  A    between atoms: O_16  and  C_11 
ROOT
ATOM      1  N   UNL d   1      31.252  17.563 -23.491  0.00  0.00    -0.256 N 
ATOM      2  C   UNL d   1      31.248  18.334 -23.188  0.00  0.00     0.270 C 
ATOM      3  O   UNL d   1      30.637  18.623 -22.814  0.00  0.00    -0.266 OA
ENDROOT
BRANCH   1   4
ATOM      4  C   UNL d   1      31.914  17.270 -23.889  0.00  0.00     0.172 C 
BRANCH   4   5
ATOM      5  N   UNL d   1      32.361  16.591 -23.754  0.00  0.00    -0.257 N 
ATOM      6  C   UNL d   1      32.859  16.209 -24.285  0.00  0.00     0.266 A 
ATOM      7  O   UNL d   1      33.003  16.445 -25.069  0.00  0.00    -0.267 OA
ATOM      8  C   UNL d   1      33.195  15.548 -23.909  0.00  0.00     0.063 A 
ATOM      9  C   UNL d   1      32.901  15.522 -23.137  0.00  0.00     0.024 A 
ATOM     10  C   UNL d   1      32.387  16.159 -23.032  0.00  0.00     0.085 A 
ENDBRANCH   4   5
ENDBRANCH   1   4
BRANCH   1  11
ATOM     11  C   UNL d   1      30.586  17.079 -23.395  0.00  0.00     0.090 A 
ATOM     12  C   UNL d   1      30.047  16.990 -24.017  0.00  0.00     0.110 A 
ATOM     13  C   UNL d   1      29.393  16.511 -23.916  0.00  0.00     0.026 A 
ATOM     14  C   UNL d   1      29.268  16.121 -23.208  0.00  0.00     0.002 A 
ATOM     15  C   UNL d   1      29.798  16.210 -22.598  0.00  0.00     0.002 A 
ATOM     16  C   UNL d   1      30.460  16.684 -22.676  0.00  0.00     0.020 A 
BRANCH  12  17
ATOM     17  O   UNL d   1      30.171  17.377 -24.722  0.00  0.00    -0.327 OA
ATOM     18  C   UNL d   1      29.544  17.753 -25.095  0.00  0.00     0.181 C 
ENDBRANCH  12  17
ENDBRANCH   1  11
BRANCH   2  19
ATOM     19  C   UNL d   1      31.913  18.804 -23.290  0.00  0.00     0.111 A 
ATOM     20  C   UNL d   1      32.365  19.033 -22.623  0.00  0.00     0.147 A 
ATOM     21  F   UNL d   1      32.145  18.789 -21.874  0.00  0.00    -0.204 F 
ATOM     22  C   UNL d   1      33.030  19.504 -22.744  0.00  0.00     0.030 A 
ATOM     23  C   UNL d   1      33.238  19.742 -23.508  0.00  0.00     0.005 A 
ATOM     24  C   UNL d   1      32.786  19.511 -24.158  0.00  0.00     0.030 A 
ATOM     25  C   UNL d   1      32.128  19.045 -24.047  0.00  0.00     0.147 A 
ATOM     26  F   UNL d   1      31.671  18.811 -24.695  0.00  0.00    -0.204 F 
ENDBRANCH   2  19
TORSDOF 5
ENDMDL
MODEL 3
REMARK VINA RESULT:       2.4      1.221      3.400
REMARK  5 active torsions:
REMARK  status: ('A' for Active; 'I' for Inactive)
REMARK       I    between atoms: C_2  and  N_1 
REMARK    1  A    between atoms: C_5  and  N_1 
REMARK    2  A    between atoms: C_6  and  N_1 
REMARK    3  A    between atoms: C_4  and  C_2 
REMARK    4  A    between atoms: N_3  and  C_5 
REMARK    5  A    between atoms: O_16  and  C_11 
ROOT
ATOM      1  N   UNL d   1      30.798  17.152 -23.784  0.00  0.00    -0.256 N 
ATOM      2  C   UNL d   1      30.944  16.388 -23.501  0.00  0.00     0.270 C 
ATOM      3  O   UNL d   1      30.384  15.951 -23.197  0.00  0.00    -0.266 OA
ENDROOT
BRANCH   1   4
ATOM      4  C   UNL d   1      31.410  17.605 -24.106  0.00  0.00     0.172 C 
BRANCH   4   5
ATOM      5  N   UNL d   1      31.777  18.285 -23.821  0.00  0.00    -0.257 N 
ATOM      6  C   UNL d   1      32.094  18.903 -24.264  0.00  0.00     0.266 A 
ATOM      7  O   UNL d   1      32.100  18.951 -25.093  0.00  0.00    -0.267 OA
ATOM      8  C   UNL d   1      32.408  19.470 -23.743  0.00  0.00     0.063 A 
ATOM      9  C   UNL d   1      32.283  19.201 -22.972  0.00  0.00     0.024 A 
ATOM     10  C   UNL d   1      31.896  18.472 -23.009  0.00  0.00     0.085 A 
ENDBRANCH   4   5
ENDBRANCH   1   4
BRANCH   1  11
ATOM     11  C   UNL d   1      30.033  17.468 -23.746  0.00  0.00     0.090 A 
ATOM     12  C   UNL d   1      29.444  17.184 -24.254  0.00  0.00     0.110 A 
ATOM     13  C   UNL d   1      28.691  17.499 -24.211  0.00  0.00     0.026 A 
ATOM     14  C   UNL d   1      28.518  18.090 -23.673  0.00  0.00     0.002 A 
ATOM     15  C   UNL d   1      29.097  18.368 -23.175  0.00  0.00     0.002 A 
ATOM     16  C   UNL d   1      29.858  18.067 -23.200  0.00  0.00     0.020 A 
BRANCH  12  17
ATOM     17  O   UNL d   1      29.616  16.596 -24.789  0.00  0.00    -0.327 OA
ATOM     18  C   UNL d   1      29.013  16.116 -25.074  0.00  0.00     0.181 C 
ENDBRANCH  12  17
ENDBRANCH   1  11
BRANCH   2  19
ATOM     19  C   UNL d   1      31.707  16.086 -23.545  0.00  0.00     0.111 A 
ATOM     20  C   UNL d   1      32.014  15.844 -24.285  0.00  0.00     0.147 A 
ATOM     21  F   UNL d   1      31.558  15.907 -24.960  0.00  0.00    -0.204 F 
ATOM     22  C   UNL d   1      32.781  15.544 -24.310  0.00  0.00     0.030 A 
ATOM     23  C   UNL d   1      33.229  15.487 -23.617  0.00  0.00     0.005 A 
ATOM     24  C   UNL d   1      32.916  15.729 -22.893  0.00  0.00     0.030 A 
ATOM     25  C   UNL d   1      32.159  16.026 -22.860  0.00  0.00     0.147 A 
ATOM     26  F   UNL d   1      31.840  16.270 -22.138  0.00  0.00    -0.204 F 
ENDBRANCH   2  19
TORSDOF 5
ENDMDL
