MODEL 1
REMARK VINA RESULT:       7.9      0.000      0.000
REMARK  3 active torsions:
REMARK  status: ('A' for Active; 'I' for Inactive)
REMARK    1  A    between atoms: S_6  and  C_2 
REMARK    2  A    between atoms: C_9  and  S_6 
REMARK    3  A    between atoms: C_7  and  C_9 
ROOT
ATOM      1  N   UNL d   1      59.339  49.684  51.277  0.00  0.00    -0.196 NA
ATOM      2  C   UNL d   1      59.170  49.696  50.461  0.00  0.00     0.213 A 
ATOM      3  N   UNL d   1      60.505  49.682  50.611  0.00  0.00    -0.123 NA
ATOM      4  N   UNL d   1      59.890  49.695  50.054  0.00  0.00    -0.120 NA
ATOM      5  C   UNL d   1      60.169  49.675  51.362  0.00  0.00     0.224 A 
ENDROOT
BRANCH   2   6
ATOM      6  S   UNL d   1      58.418  49.708  50.124  0.00  0.00    -0.062 SA
BRANCH   6   7
ATOM      7  C   UNL d   1      57.750  49.550  50.589  0.00  0.00     0.162 C 
BRANCH   7   8
ATOM      8  C   UNL d   1      56.992  49.615  50.271  0.00  0.00     0.197 C 
ATOM      9  O   UNL d   1      56.888  49.588  49.445  0.00  0.00    -0.647 OA
ATOM     10  O   UNL d   1      56.340  49.707  50.768  0.00  0.00    -0.647 OA
ENDBRANCH   7   8
ENDBRANCH   6   7
ENDBRANCH   2   6
TORSDOF 3
ENDMDL
MODEL 2
REMARK VINA RESULT:       7.9      2.245      2.974
REMARK  3 active torsions:
REMARK  status: ('A' for Active; 'I' for Inactive)
REMARK    1  A    between atoms: S_6  and  C_2 
REMARK    2  A    between atoms: C_9  and  S_6 
REMARK    3  A    between atoms: C_7  and  C_9 
ROOT
ATOM      1  N   UNL d   1      57.042  49.597  51.106  0.00  0.00    -0.196 NA
ATOM      2  C   UNL d   1      57.388  49.665  50.351  0.00  0.00     0.213 A 
ATOM      3  N   UNL d   1      56.054  49.627  50.197  0.00  0.00    -0.123 NA
ATOM      4  N   UNL d   1      56.778  49.683  49.794  0.00  0.00    -0.120 NA
ATOM      5  C   UNL d   1      56.214  49.574  51.002  0.00  0.00     0.224 A 
ENDROOT
BRANCH   2   6
ATOM      6  S   UNL d   1      58.196  49.706  50.193  0.00  0.00    -0.062 SA
BRANCH   6   7
ATOM      7  C   UNL d   1      58.744  49.690  50.815  0.00  0.00     0.162 C 
BRANCH   7   8
ATOM      8  C   UNL d   1      59.554  49.650  50.660  0.00  0.00     0.197 C 
ATOM      9  O   UNL d   1      60.089  49.550  51.290  0.00  0.00    -0.647 OA
ATOM     10  O   UNL d   1      59.831  49.708  49.885  0.00  0.00    -0.647 OA
ENDBRANCH   7   8
ENDBRANCH   6   7
ENDBRANCH   2   6
TORSDOF 3
ENDMDL
