MODEL 1
REMARK VINA RESULT:      -3.6      0.000      0.000
REMARK  3 active torsions:
REMARK  status: ('A' for Active; 'I' for Inactive)
REMARK    1  A    between atoms: C_2  and  C_1 
REMARK    2  A    between atoms: N_12  and  C_6 
REMARK    3  A    between atoms: C_15  and  N_12 
ROOT
ATOM      1  C   UNL d   1      32.795  18.238 -23.475  0.00  0.00     0.082 A 
ATOM      2  C   UNL d   1      32.938  18.705 -24.145  0.00  0.00     0.302 A 
ATOM      3  C   UNL d   1      32.798  18.578 -22.711  0.00  0.00     0.009 A 
ATOM      4  O   UNL d   1      33.086  19.519 -24.055  0.00  0.00    -0.273 OA
ATOM      5  C   UNL d   1      32.947  19.391 -22.641  0.00  0.00     0.025 A 
ATOM      6  C   UNL d   1      33.090  19.855 -23.308  0.00  0.00     0.103 A 
ATOM      7  O   UNL d   1      32.935  18.370 -24.892  0.00  0.00    -0.259 OA
ATOM      8  C   UNL d   1      32.951  19.733 -21.889  0.00  0.00     0.026 A 
ATOM      9  C   UNL d   1      33.237  20.667 -23.214  0.00  0.00     0.027 A 
ATOM     10  C   UNL d   1      33.097  20.535 -21.803  0.00  0.00     0.094 A 
ATOM     11  C   UNL d   1      33.240  21.003 -22.467  0.00  0.00     0.026 A 
ATOM     12  O   UNL d   1      33.101  20.873 -21.060  0.00  0.00    -0.328 OA
ATOM     13  C   UNL d   1      33.103  21.201 -20.302  0.00  0.00     0.181 C 
ENDROOT
BRANCH   1  14
ATOM     14  C   UNL d   1      32.649  17.437 -23.561  0.00  0.00     0.095 A 
ATOM     15  N   UNL d   1      31.950  17.054 -23.382  0.00  0.00    -0.221 NA
ATOM     16  C   UNL d   1      32.048  16.259 -23.553  0.00  0.00     0.194 A 
ATOM     17  S   UNL d   1      32.814  16.147 -23.841  0.00  0.00    -0.046 SA
ATOM     18  C   UNL d   1      33.188  16.881 -23.845  0.00  0.00     0.058 A 
BRANCH  16  19
ATOM     19  N   UNL d   1      31.488  15.672 -23.458  0.00  0.00    -0.221 NA
BRANCH  19  20
ATOM     20  C   UNL d   1      30.773  15.725 -23.851  0.00  0.00     0.087 A 
ATOM     21  C   UNL d   1      30.118  16.052 -23.470  0.00  0.00     0.061 A 
ATOM     22  C   UNL d   1      29.402  16.106 -23.863  0.00  0.00     0.197 A 
ATOM     23  O   UNL d   1      28.752  16.431 -23.481  0.00  0.00    -0.286 OA
ATOM     24  C   UNL d   1      29.335  15.833 -24.642  0.00  0.00     0.042 A 
ATOM     25  C   UNL d   1      29.985  15.510 -25.018  0.00  0.00     0.005 A 
ATOM     26  C   UNL d   1      30.709  15.453 -24.628  0.00  0.00     0.019 A 
ENDBRANCH  19  20
ENDBRANCH  16  19
ENDBRANCH   1  14
TORSDOF 3
ENDMDL
MODEL 2
REMARK VINA RESULT:      -3.1      1.317      1.908
REMARK  3 active torsions:
REMARK  status: ('A' for Active; 'I' for Inactive)
REMARK    1  A    between atoms: C_2  and  C_1 
REMARK    2  A    between atoms: N_12  and  C_6 
REMARK    3  A    between atoms: C_15  and  N_12 
ROOT
ATOM      1  C   UNL d   1      32.829  19.421 -22.836  0.00  0.00     0.082 A 
ATOM      2  C   UNL d   1      33.103  19.020 -22.164  0.00  0.00     0.302 A 
ATOM      3  C   UNL d   1      32.690  20.245 -22.812  0.00  0.00     0.009 A 
ATOM      4  O   UNL d   1      33.240  19.442 -21.460  0.00  0.00    -0.273 OA
ATOM      5  C   UNL d   1      32.833  20.649 -22.102  0.00  0.00     0.025 A 
ATOM      6  C   UNL d   1      33.105  20.250 -21.434  0.00  0.00     0.103 A 
ATOM      7  O   UNL d   1      33.238  18.212 -22.190  0.00  0.00    -0.259 OA
ATOM      8  C   UNL d   1      32.697  21.464 -22.072  0.00  0.00     0.026 A 
ATOM      9  C   UNL d   1      33.241  20.675 -20.734  0.00  0.00     0.027 A 
ATOM     10  C   UNL d   1      32.833  21.878 -21.378  0.00  0.00     0.094 A 
ATOM     11  C   UNL d   1      33.106  21.482 -20.707  0.00  0.00     0.026 A 
ATOM     12  O   UNL d   1      32.700  22.682 -21.349  0.00  0.00    -0.328 OA
ATOM     13  C   UNL d   1      32.560  23.496 -21.333  0.00  0.00     0.181 C 
ENDROOT
BRANCH   1  14
ATOM     14  C   UNL d   1      32.693  19.006 -23.529  0.00  0.00     0.095 A 
ATOM     15  N   UNL d   1      31.997  18.633 -23.737  0.00  0.00    -0.221 NA
ATOM     16  C   UNL d   1      32.106  18.290 -24.472  0.00  0.00     0.194 A 
ATOM     17  S   UNL d   1      32.876  18.451 -24.724  0.00  0.00    -0.046 SA
ATOM     18  C   UNL d   1      33.241  18.897 -24.136  0.00  0.00     0.058 A 
BRANCH  16  19
ATOM     19  N   UNL d   1      31.552  17.860 -24.892  0.00  0.00    -0.221 NA
BRANCH  19  20
ATOM     20  C   UNL d   1      31.299  17.137 -24.606  0.00  0.00     0.087 A 
ATOM     21  C   UNL d   1      30.517  17.042 -24.359  0.00  0.00     0.061 A 
ATOM     22  C   UNL d   1      30.262  16.319 -24.073  0.00  0.00     0.197 A 
ATOM     23  O   UNL d   1      29.484  16.229 -23.828  0.00  0.00    -0.286 OA
ATOM     24  C   UNL d   1      30.790  15.682 -24.031  0.00  0.00     0.042 A 
ATOM     25  C   UNL d   1      31.565  15.776 -24.276  0.00  0.00     0.005 A 
ATOM     26  C   UNL d   1      31.826  16.503 -24.565  0.00  0.00     0.019 A 
ENDBRANCH  19  20
ENDBRANCH  16  19
ENDBRANCH   1  14
TORSDOF 3
ENDMDL
MODEL 3
REMARK VINA RESULT:      -2.6      1.338      4.970
REMARK  3 active torsions:
REMARK  status: ('A' for Active; 'I' for Inactive)
REMARK    1  A    between atoms: C_2  and  C_1 
REMARK    2  A    between atoms: N_12  and  C_6 
REMARK    3  A    between atoms: C_15  and  N_12 
ROOT
ATOM      1  C   UNL d   1      31.962  17.702 -23.878  0.00  0.00     0.082 A 
ATOM      2  C   UNL d   1      32.314  17.156 -24.393  0.00  0.00     0.302 A 
ATOM      3  C   UNL d   1      31.164  17.612 -23.643  0.00  0.00     0.009 A 
ATOM      4  O   UNL d   1      31.869  16.512 -24.677  0.00  0.00    -0.273 OA
ATOM      5  C   UNL d   1      30.737  16.964 -23.937  0.00  0.00     0.025 A 
ATOM      6  C   UNL d   1      31.088  16.421 -24.449  0.00  0.00     0.103 A 
ATOM      7  O   UNL d   1      33.095  17.246 -24.622  0.00  0.00    -0.259 OA
ATOM      8  C   UNL d   1      29.948  16.870 -23.708  0.00  0.00     0.026 A 
ATOM      9  C   UNL d   1      30.640  15.781 -24.730  0.00  0.00     0.027 A 
ATOM     10  C   UNL d   1      29.512  16.235 -23.989  0.00  0.00     0.094 A 
ATOM     11  C   UNL d   1      29.859  15.690 -24.501  0.00  0.00     0.026 A 
ATOM     12  O   UNL d   1      28.733  16.142 -23.763  0.00  0.00    -0.328 OA
ATOM     13  C   UNL d   1      27.947  16.059 -23.527  0.00  0.00     0.181 C 
ENDROOT
BRANCH   1  14
ATOM     14  C   UNL d   1      32.398  18.335 -23.597  0.00  0.00     0.095 A 
ATOM     15  N   UNL d   1      32.515  18.527 -22.812  0.00  0.00    -0.221 NA
ATOM     16  C   UNL d   1      32.984  19.198 -22.784  0.00  0.00     0.194 A 
ATOM     17  S   UNL d   1      33.158  19.426 -23.558  0.00  0.00    -0.046 SA
ATOM     18  C   UNL d   1      32.793  18.889 -24.064  0.00  0.00     0.058 A 
BRANCH  16  19
ATOM     19  N   UNL d   1      33.238  19.583 -22.110  0.00  0.00    -0.221 NA
BRANCH  19  20
ATOM     20  C   UNL d   1      32.993  20.349 -21.962  0.00  0.00     0.087 A 
ATOM     21  C   UNL d   1      32.508  20.509 -21.314  0.00  0.00     0.061 A 
ATOM     22  C   UNL d   1      32.262  21.275 -21.165  0.00  0.00     0.197 A 
ATOM     23  O   UNL d   1      31.781  21.430 -20.519  0.00  0.00    -0.286 OA
ATOM     24  C   UNL d   1      32.500  21.890 -21.668  0.00  0.00     0.042 A 
ATOM     25  C   UNL d   1      32.979  21.731 -22.310  0.00  0.00     0.005 A 
ATOM     26  C   UNL d   1      33.230  20.960 -22.464  0.00  0.00     0.019 A 
ENDBRANCH  19  20
ENDBRANCH  16  19
ENDBRANCH   1  14
TORSDOF 3
ENDMDL
MODEL 4
REMARK VINA RESULT:      -1.8      1.944      3.528
REMARK  3 active torsions:
REMARK  status: ('A' for Active; 'I' for Inactive)
REMARK    1  A    between atoms: C_2  and  C_1 
REMARK    2  A    between atoms: N_12  and  C_6 
REMARK    3  A    between atoms: C_15  and  N_12 
ROOT
ATOM      1  C   UNL d   1      32.816  21.288 -21.621  0.00  0.00     0.082 A 
ATOM      2  C   UNL d   1      32.602  21.901 -22.136  0.00  0.00     0.302 A 
ATOM      3  C   UNL d   1      32.886  21.428 -20.799  0.00  0.00     0.009 A 
ATOM      4  O   UNL d   1      32.456  22.662 -21.833  0.00  0.00    -0.273 OA
ATOM      5  C   UNL d   1      32.737  22.193 -20.515  0.00  0.00     0.025 A 
ATOM      6  C   UNL d   1      32.524  22.803 -21.029  0.00  0.00     0.103 A 
ATOM      7  O   UNL d   1      32.534  21.760 -22.941  0.00  0.00    -0.259 OA
ATOM      8  C   UNL d   1      32.805  22.339 -19.705  0.00  0.00     0.026 A 
ATOM      9  C   UNL d   1      32.380  23.561 -20.722  0.00  0.00     0.027 A 
ATOM     10  C   UNL d   1      32.661  23.089 -19.408  0.00  0.00     0.094 A 
ATOM     11  C   UNL d   1      32.448  23.702 -19.919  0.00  0.00     0.026 A 
ATOM     12  O   UNL d   1      32.728  23.233 -18.608  0.00  0.00    -0.328 OA
ATOM     13  C   UNL d   1      32.799  23.364 -17.796  0.00  0.00     0.181 C 
ENDROOT
BRANCH   1  14
ATOM     14  C   UNL d   1      32.959  20.538 -21.917  0.00  0.00     0.095 A 
ATOM     15  N   UNL d   1      33.002  20.335 -22.707  0.00  0.00    -0.221 NA
ATOM     16  C   UNL d   1      33.155  19.531 -22.753  0.00  0.00     0.194 A 
ATOM     17  S   UNL d   1      33.208  19.233 -21.984  0.00  0.00    -0.046 SA
ATOM     18  C   UNL d   1      33.086  19.861 -21.465  0.00  0.00     0.058 A 
BRANCH  16  19
ATOM     19  N   UNL d   1      33.241  19.093 -23.436  0.00  0.00    -0.221 NA
BRANCH  19  20
ATOM     20  C   UNL d   1      32.736  18.467 -23.583  0.00  0.00     0.087 A 
ATOM     21  C   UNL d   1      32.134  18.546 -24.142  0.00  0.00     0.061 A 
ATOM     22  C   UNL d   1      31.628  17.920 -24.290  0.00  0.00     0.197 A 
ATOM     23  O   UNL d   1      31.030  18.002 -24.846  0.00  0.00    -0.286 OA
ATOM     24  C   UNL d   1      31.721  17.207 -23.878  0.00  0.00     0.042 A 
ATOM     25  C   UNL d   1      32.317  17.130 -23.324  0.00  0.00     0.005 A 
ATOM     26  C   UNL d   1      32.830  17.758 -23.172  0.00  0.00     0.019 A 
ENDBRANCH  19  20
ENDBRANCH  16  19
ENDBRANCH   1  14
TORSDOF 3
ENDMDL
