MODEL 1
REMARK VINA RESULT:      -6.9      0.000      0.000
REMARK  1 active torsions:
REMARK  status: ('A' for Active; 'I' for Inactive)
REMARK    1  A    between atoms: C_6  and  CA_1 
ROOT
ATOM      1  CA  UNL d   1      53.565  32.088  53.619  0.00  0.00     0.147 A 
ATOM      2  N   UNL d   1      54.134  32.643  53.419  0.00  0.00    -0.237 NA
ATOM      3  C   UNL d   1      53.498  32.066  54.441  0.00  0.00     0.052 A 
ATOM      4  C   UNL d   1      54.423  32.970  54.119  0.00  0.00     0.106 A 
ATOM      5  C   UNL d   1      54.031  32.614  54.750  0.00  0.00     0.119 A 
ATOM      6  C   UNL d   1      54.957  33.518  54.428  0.00  0.00     0.048 A 
ATOM      7  O   UNL d   1      54.321  32.941  55.450  0.00  0.00    -0.303 OA
ATOM      8  C   UNL d   1      54.895  33.502  55.253  0.00  0.00     0.124 A 
ENDROOT
BRANCH   1   9
ATOM      9  C   UNL d   1      53.131  31.626  53.085  0.00  0.00     0.230 C 
ATOM     10  O   UNL d   1      52.712  31.984  52.476  0.00  0.00    -0.643 OA
ATOM     11  OXT UNL d   1      53.119  30.808  53.166  0.00  0.00    -0.643 OA
ENDBRANCH   1   9
TORSDOF 1
ENDMDL
MODEL 2
REMARK VINA RESULT:      -6.9      0.838      1.128
REMARK  1 active torsions:
REMARK  status: ('A' for Active; 'I' for Inactive)
REMARK    1  A    between atoms: C_6  and  CA_1 
ROOT
ATOM      1  CA  UNL d   1      53.301  32.572  53.409  0.00  0.00     0.147 A 
ATOM      2  N   UNL d   1      53.090  32.989  54.082  0.00  0.00    -0.237 NA
ATOM      3  C   UNL d   1      54.125  32.531  53.374  0.00  0.00     0.052 A 
ATOM      4  C   UNL d   1      53.784  33.209  54.469  0.00  0.00     0.106 A 
ATOM      5  C   UNL d   1      54.423  32.926  54.033  0.00  0.00     0.119 A 
ATOM      6  C   UNL d   1      54.082  33.605  55.129  0.00  0.00     0.048 A 
ATOM      7  O   UNL d   1      55.117  33.147  54.421  0.00  0.00    -0.303 OA
ATOM      8  C   UNL d   1      54.909  33.567  55.101  0.00  0.00     0.124 A 
ENDROOT
BRANCH   1   9
ATOM      9  C   UNL d   1      52.777  32.247  52.856  0.00  0.00     0.230 C 
ATOM     10  O   UNL d   1      52.793  31.441  52.696  0.00  0.00    -0.643 OA
ATOM     11  OXT UNL d   1      52.238  32.731  52.467  0.00  0.00    -0.643 OA
ENDBRANCH   1   9
TORSDOF 1
ENDMDL
MODEL 3
REMARK VINA RESULT:      -6.7      0.822      2.749
REMARK  1 active torsions:
REMARK  status: ('A' for Active; 'I' for Inactive)
REMARK    1  A    between atoms: C_6  and  CA_1 
ROOT
ATOM      1  CA  UNL d   1      54.044  33.119  54.397  0.00  0.00     0.147 A 
ATOM      2  N   UNL d   1      54.027  32.309  54.522  0.00  0.00    -0.237 NA
ATOM      3  C   UNL d   1      53.648  33.284  53.692  0.00  0.00     0.052 A 
ATOM      4  C   UNL d   1      53.619  31.967  53.892  0.00  0.00     0.106 A 
ATOM      5  C   UNL d   1      53.385  32.568  53.380  0.00  0.00     0.119 A 
ATOM      6  C   UNL d   1      53.356  31.250  53.580  0.00  0.00     0.048 A 
ATOM      7  O   UNL d   1      52.977  32.224  52.749  0.00  0.00    -0.303 OA
ATOM      8  C   UNL d   1      52.957  31.408  52.871  0.00  0.00     0.124 A 
ENDROOT
BRANCH   1   9
ATOM      9  C   UNL d   1      54.398  33.678  54.895  0.00  0.00     0.230 C 
ATOM     10  O   UNL d   1      55.165  33.561  55.168  0.00  0.00    -0.643 OA
ATOM     11  OXT UNL d   1      53.983  34.352  55.118  0.00  0.00    -0.643 OA
ENDBRANCH   1   9
TORSDOF 1
ENDMDL
MODEL 4
REMARK VINA RESULT:      -6.5      1.566      2.238
REMARK  1 active torsions:
REMARK  status: ('A' for Active; 'I' for Inactive)
REMARK    1  A    between atoms: C_6  and  CA_1 
ROOT
ATOM      1  CA  UNL d   1      53.098  30.395  53.534  0.00  0.00     0.147 A 
ATOM      2  N   UNL d   1      53.629  30.867  53.942  0.00  0.00    -0.237 NA
ATOM      3  C   UNL d   1      52.715  30.859  52.969  0.00  0.00     0.052 A 
ATOM      4  C   UNL d   1      53.578  31.629  53.631  0.00  0.00     0.106 A 
ATOM      5  C   UNL d   1      53.015  31.625  53.031  0.00  0.00     0.119 A 
ATOM      6  C   UNL d   1      53.878  32.395  53.693  0.00  0.00     0.048 A 
ATOM      7  O   UNL d   1      52.964  32.388  52.719  0.00  0.00    -0.303 OA
ATOM      8  C   UNL d   1      53.498  32.867  53.128  0.00  0.00     0.124 A 
ENDROOT
BRANCH   1   9
ATOM      9  C   UNL d   1      52.967  29.588  53.666  0.00  0.00     0.230 C 
ATOM     10  O   UNL d   1      52.508  29.152  53.141  0.00  0.00    -0.643 OA
ATOM     11  OXT UNL d   1      53.297  29.221  54.324  0.00  0.00    -0.643 OA
ENDBRANCH   1   9
TORSDOF 1
ENDMDL
MODEL 5
REMARK VINA RESULT:      -6.4      1.237      2.699
REMARK  1 active torsions:
REMARK  status: ('A' for Active; 'I' for Inactive)
REMARK    1  A    between atoms: C_6  and  CA_1 
ROOT
ATOM      1  CA  UNL d   1      53.827  33.101  54.396  0.00  0.00     0.147 A 
ATOM      2  N   UNL d   1      53.156  33.570  54.385  0.00  0.00    -0.237 NA
ATOM      3  C   UNL d   1      53.804  32.595  53.743  0.00  0.00     0.052 A 
ATOM      4  C   UNL d   1      52.711  33.358  53.724  0.00  0.00     0.106 A 
ATOM      5  C   UNL d   1      53.110  32.757  53.328  0.00  0.00     0.119 A 
ATOM      6  C   UNL d   1      52.017  33.519  53.308  0.00  0.00     0.048 A 
ATOM      7  O   UNL d   1      52.665  32.544  52.666  0.00  0.00    -0.303 OA
ATOM      8  C   UNL d   1      51.987  33.016  52.651  0.00  0.00     0.124 A 
ENDROOT
BRANCH   1   9
ATOM      9  C   UNL d   1      54.428  33.128  54.965  0.00  0.00     0.230 C 
ATOM     10  O   UNL d   1      55.118  33.549  54.817  0.00  0.00    -0.643 OA
ATOM     11  OXT UNL d   1      54.335  32.733  55.680  0.00  0.00    -0.643 OA
ENDBRANCH   1   9
TORSDOF 1
ENDMDL
MODEL 6
REMARK VINA RESULT:      -6.4      2.196      2.797
REMARK  1 active torsions:
REMARK  status: ('A' for Active; 'I' for Inactive)
REMARK    1  A    between atoms: C_6  and  CA_1 
ROOT
ATOM      1  CA  UNL d   1      53.133  34.691  54.453  0.00  0.00     0.147 A 
ATOM      2  N   UNL d   1      53.773  34.559  54.948  0.00  0.00    -0.237 NA
ATOM      3  C   UNL d   1      52.893  33.966  54.138  0.00  0.00     0.052 A 
ATOM      4  C   UNL d   1      53.933  33.750  54.941  0.00  0.00     0.106 A 
ATOM      5  C   UNL d   1      53.390  33.384  54.442  0.00  0.00     0.119 A 
ATOM      6  C   UNL d   1      54.431  33.167  55.246  0.00  0.00     0.048 A 
ATOM      7  O   UNL d   1      53.551  32.574  54.436  0.00  0.00    -0.303 OA
ATOM      8  C   UNL d   1      54.196  32.437  54.933  0.00  0.00     0.124 A 
ENDROOT
BRANCH   1   9
ATOM      9  C   UNL d   1      52.786  35.426  54.297  0.00  0.00     0.230 C 
ATOM     10  O   UNL d   1      53.062  36.102  54.674  0.00  0.00    -0.643 OA
ATOM     11  OXT UNL d   1      52.164  35.481  53.762  0.00  0.00    -0.643 OA
ENDBRANCH   1   9
TORSDOF 1
ENDMDL
MODEL 7
REMARK VINA RESULT:      -6.2      1.614      2.848
REMARK  1 active torsions:
REMARK  status: ('A' for Active; 'I' for Inactive)
REMARK    1  A    between atoms: C_6  and  CA_1 
ROOT
ATOM      1  CA  UNL d   1      53.120  33.945  54.059  0.00  0.00     0.147 A 
ATOM      2  N   UNL d   1      53.513  33.268  54.300  0.00  0.00    -0.237 NA
ATOM      3  C   UNL d   1      52.680  33.766  53.383  0.00  0.00     0.052 A 
ATOM      4  C   UNL d   1      53.318  32.663  53.773  0.00  0.00     0.106 A 
ATOM      5  C   UNL d   1      52.805  32.970  53.208  0.00  0.00     0.119 A 
ATOM      6  C   UNL d   1      53.443  31.867  53.598  0.00  0.00     0.048 A 
ATOM      7  O   UNL d   1      52.610  32.365  52.681  0.00  0.00    -0.303 OA
ATOM      8  C   UNL d   1      53.005  31.680  52.920  0.00  0.00     0.124 A 
ENDROOT
BRANCH   1   9
ATOM      9  C   UNL d   1      53.157  34.684  54.430  0.00  0.00     0.230 C 
ATOM     10  O   UNL d   1      52.883  35.355  54.043  0.00  0.00    -0.643 OA
ATOM     11  OXT UNL d   1      53.469  34.747  55.188  0.00  0.00    -0.643 OA
ENDBRANCH   1   9
TORSDOF 1
ENDMDL
MODEL 8
REMARK VINA RESULT:      -4.1     14.843     15.560
REMARK  1 active torsions:
REMARK  status: ('A' for Active; 'I' for Inactive)
REMARK    1  A    between atoms: C_6  and  CA_1 
ROOT
ATOM      1  CA  UNL d   1      49.419  27.836  67.640  0.00  0.00     0.147 A 
ATOM      2  N   UNL d   1      48.732  28.269  67.748  0.00  0.00    -0.237 NA
ATOM      3  C   UNL d   1      49.225  27.034  67.638  0.00  0.00     0.052 A 
ATOM      4  C   UNL d   1      48.106  27.735  67.814  0.00  0.00     0.106 A 
ATOM      5  C   UNL d   1      48.410  26.973  67.746  0.00  0.00     0.119 A 
ATOM      6  C   UNL d   1      47.290  27.675  67.921  0.00  0.00     0.048 A 
ATOM      7  O   UNL d   1      47.784  26.439  67.812  0.00  0.00    -0.303 OA
ATOM      8  C   UNL d   1      47.089  26.872  67.921  0.00  0.00     0.124 A 
ENDROOT
BRANCH   1   9
ATOM      9  C   UNL d   1      50.179  28.151  67.548  0.00  0.00     0.230 C 
ATOM     10  O   UNL d   1      50.788  27.682  67.256  0.00  0.00    -0.643 OA
ATOM     11  OXT UNL d   1      50.327  28.934  67.750  0.00  0.00    -0.643 OA
ENDBRANCH   1   9
TORSDOF 1
ENDMDL
MODEL 9
REMARK VINA RESULT:      -4.1     10.223     10.899
REMARK  1 active torsions:
REMARK  status: ('A' for Active; 'I' for Inactive)
REMARK    1  A    between atoms: C_6  and  CA_1 
ROOT
ATOM      1  CA  UNL d   1      45.128  29.016  58.498  0.00  0.00     0.147 A 
ATOM      2  N   UNL d   1      45.511  28.499  57.991  0.00  0.00    -0.237 NA
ATOM      3  C   UNL d   1      44.743  28.575  59.080  0.00  0.00     0.052 A 
ATOM      4  C   UNL d   1      45.366  27.732  58.258  0.00  0.00     0.106 A 
ATOM      5  C   UNL d   1      44.892  27.779  58.929  0.00  0.00     0.119 A 
ATOM      6  C   UNL d   1      45.516  26.935  58.106  0.00  0.00     0.048 A 
ATOM      7  O   UNL d   1      44.747  27.010  59.195  0.00  0.00    -0.303 OA
ATOM      8  C   UNL d   1      45.132  26.486  58.687  0.00  0.00     0.124 A 
ENDROOT
BRANCH   1   9
ATOM      9  C   UNL d   1      45.126  29.842  58.437  0.00  0.00     0.230 C 
ATOM     10  O   UNL d   1      45.487  30.300  59.016  0.00  0.00    -0.643 OA
ATOM     11  OXT UNL d   1      44.762  30.206  57.796  0.00  0.00    -0.643 OA
ENDBRANCH   1   9
TORSDOF 1
ENDMDL
