MODEL 1
REMARK VINA RESULT:      -0.6      0.000      0.000
REMARK  5 active torsions:
REMARK  status: ('A' for Active; 'I' for Inactive)
REMARK    1  A    between atoms: C_8  and  N_1 
REMARK    2  A    between atoms: S_4  and  C_10 
REMARK    3  A    between atoms: C_5  and  C_8 
REMARK       I    between atoms: N_9  and  C_5 
REMARK    4  A    between atoms: C_20  and  C_8 
REMARK    5  A    between atoms: C_19  and  N_9 
ROOT
ATOM      1  C   UNL d   1      32.655  17.117 -23.734  0.00  0.00     0.140 C 
ENDROOT
BRANCH   1   2
ATOM      2  C   UNL d   1      32.168  16.840 -24.339  0.00  0.00     0.344 C 
ATOM      3  N   UNL d   1      31.377  16.688 -24.185  0.00  0.00    -0.363 NA
ATOM      4  O   UNL d   1      32.478  16.718 -25.095  0.00  0.00    -0.249 OA
BRANCH   3   5
ATOM      5  C   UNL d   1      30.587  16.528 -24.059  0.00  0.00     0.135 A 
ATOM      6  C   UNL d   1      30.342  15.894 -23.592  0.00  0.00     0.033 A 
ATOM      7  C   UNL d   1      29.539  15.745 -23.473  0.00  0.00     0.016 A 
ATOM      8  C   UNL d   1      28.977  16.241 -23.832  0.00  0.00     0.107 A 
ATOM      9  C   UNL d   1      29.222  16.874 -24.299  0.00  0.00     0.016 A 
ATOM     10  C   UNL d   1      30.028  17.016 -24.412  0.00  0.00     0.033 A 
BRANCH   8  11
ATOM     11  S   UNL d   1      28.174  16.091 -23.714  0.00  0.00     0.302 S 
ATOM     12  O   UNL d   1      28.222  15.460 -24.190  0.00  0.00    -0.197 OA
ATOM     13  O   UNL d   1      28.129  16.749 -23.218  0.00  0.00    -0.197 OA
ATOM     14  N   UNL d   1      27.375  15.945 -23.594  0.00  0.00    -0.043 N 
ENDBRANCH   8  11
ENDBRANCH   3   5
ENDBRANCH   1   2
BRANCH   1  15
ATOM     15  N   UNL d   1      32.782  17.929 -23.647  0.00  0.00    -0.236 N 
ATOM     16  C   UNL d   1      32.798  18.349 -22.936  0.00  0.00     0.267 A 
ATOM     17  C   UNL d   1      32.943  19.148 -23.111  0.00  0.00     0.061 A 
ATOM     18  O   UNL d   1      32.689  18.030 -22.184  0.00  0.00    -0.267 OA
ATOM     19  C   UNL d   1      33.020  19.827 -22.636  0.00  0.00     0.005 A 
ATOM     20  C   UNL d   1      33.017  19.220 -23.939  0.00  0.00     0.061 A 
ATOM     21  C   UNL d   1      33.166  20.558 -22.977  0.00  0.00     0.000 A 
ATOM     22  C   UNL d   1      33.238  20.625 -23.797  0.00  0.00     0.000 A 
ATOM     23  C   UNL d   1      33.165  19.960 -24.275  0.00  0.00     0.005 A 
ATOM     24  C   UNL d   1      32.918  18.467 -24.272  0.00  0.00     0.267 A 
ATOM     25  O   UNL d   1      32.949  18.288 -25.072  0.00  0.00    -0.267 OA
ENDBRANCH   1  15
BRANCH   1  26
ATOM     26  C   UNL d   1      33.008  16.586 -23.225  0.00  0.00     0.022 C 
ATOM     27  C   UNL d   1      33.139  15.808 -23.453  0.00  0.00     0.002 C 
ATOM     28  C   UNL d   1      33.237  16.834 -22.472  0.00  0.00     0.002 C 
ENDBRANCH   1  26
TORSDOF 5
ENDMDL
MODEL 2
REMARK VINA RESULT:      -0.4      2.325      4.903
REMARK  5 active torsions:
REMARK  status: ('A' for Active; 'I' for Inactive)
REMARK    1  A    between atoms: C_8  and  N_1 
REMARK    2  A    between atoms: S_4  and  C_10 
REMARK    3  A    between atoms: C_5  and  C_8 
REMARK       I    between atoms: N_9  and  C_5 
REMARK    4  A    between atoms: C_20  and  C_8 
REMARK    5  A    between atoms: C_19  and  N_9 
ROOT
ATOM      1  C   UNL d   1      32.277  18.257 -23.996  0.00  0.00     0.140 C 
ENDROOT
BRANCH   1   2
ATOM      2  C   UNL d   1      32.689  18.333 -23.285  0.00  0.00     0.344 C 
ATOM      3  N   UNL d   1      32.720  19.062 -22.911  0.00  0.00    -0.363 NA
ATOM      4  O   UNL d   1      33.067  17.677 -22.956  0.00  0.00    -0.249 OA
BRANCH   3   5
ATOM      5  C   UNL d   1      32.767  19.775 -22.517  0.00  0.00     0.135 A 
ATOM      6  C   UNL d   1      33.202  20.408 -22.819  0.00  0.00     0.033 A 
ATOM      7  C   UNL d   1      33.241  21.124 -22.410  0.00  0.00     0.016 A 
ATOM      8  C   UNL d   1      32.836  21.201 -21.688  0.00  0.00     0.107 A 
ATOM      9  C   UNL d   1      32.401  20.569 -21.388  0.00  0.00     0.016 A 
ATOM     10  C   UNL d   1      32.368  19.856 -21.804  0.00  0.00     0.033 A 
BRANCH   8  11
ATOM     11  S   UNL d   1      32.875  21.917 -21.279  0.00  0.00     0.302 S 
ATOM     12  O   UNL d   1      33.187  21.543 -20.655  0.00  0.00    -0.197 OA
ATOM     13  O   UNL d   1      32.549  22.303 -21.932  0.00  0.00    -0.197 OA
ATOM     14  N   UNL d   1      32.912  22.631 -20.876  0.00  0.00    -0.043 N 
ENDBRANCH   8  11
ENDBRANCH   3   5
ENDBRANCH   1   2
BRANCH   1  15
ATOM     15  N   UNL d   1      31.693  17.678 -24.073  0.00  0.00    -0.236 N 
ATOM     16  C   UNL d   1      31.811  16.860 -24.080  0.00  0.00     0.267 A 
ATOM     17  C   UNL d   1      31.071  16.493 -24.169  0.00  0.00     0.061 A 
ATOM     18  O   UNL d   1      32.537  16.476 -24.010  0.00  0.00    -0.267 OA
ATOM     19  C   UNL d   1      30.837  15.696 -24.214  0.00  0.00     0.005 A 
ATOM     20  C   UNL d   1      30.491  17.091 -24.218  0.00  0.00     0.061 A 
ATOM     21  C   UNL d   1      30.046  15.500 -24.305  0.00  0.00     0.000 A 
ATOM     22  C   UNL d   1      29.475  16.095 -24.353  0.00  0.00     0.000 A 
ATOM     23  C   UNL d   1      29.697  16.886 -24.310  0.00  0.00     0.005 A 
ATOM     24  C   UNL d   1      30.874  17.824 -24.159  0.00  0.00     0.267 A 
ATOM     25  O   UNL d   1      30.510  18.559 -24.181  0.00  0.00    -0.267 OA
ENDBRANCH   1  15
BRANCH   1  26
ATOM     26  C   UNL d   1      32.449  18.756 -24.618  0.00  0.00     0.022 C 
ATOM     27  C   UNL d   1      33.114  18.632 -25.085  0.00  0.00     0.002 C 
ATOM     28  C   UNL d   1      31.951  19.393 -24.781  0.00  0.00     0.002 C 
ENDBRANCH   1  26
TORSDOF 5
ENDMDL
MODEL 3
REMARK VINA RESULT:       1.4      1.907      4.567
REMARK  5 active torsions:
REMARK  status: ('A' for Active; 'I' for Inactive)
REMARK    1  A    between atoms: C_8  and  N_1 
REMARK    2  A    between atoms: S_4  and  C_10 
REMARK    3  A    between atoms: C_5  and  C_8 
REMARK       I    between atoms: N_9  and  C_5 
REMARK    4  A    between atoms: C_20  and  C_8 
REMARK    5  A    between atoms: C_19  and  N_9 
ROOT
ATOM      1  C   UNL d   1      30.991  16.235 -23.935  0.00  0.00     0.140 C 
ENDROOT
BRANCH   1   2
ATOM      2  C   UNL d   1      31.543  16.603 -23.444  0.00  0.00     0.344 C 
ATOM      3  N   UNL d   1      31.817  17.352 -23.633  0.00  0.00    -0.363 NA
ATOM      4  O   UNL d   1      31.816  16.216 -22.768  0.00  0.00    -0.249 OA
BRANCH   3   5
ATOM      5  C   UNL d   1      32.107  18.098 -23.797  0.00  0.00     0.135 A 
ATOM      6  C   UNL d   1      32.601  18.496 -23.270  0.00  0.00     0.033 A 
ATOM      7  C   UNL d   1      32.887  19.249 -23.449  0.00  0.00     0.016 A 
ATOM      8  C   UNL d   1      32.670  19.604 -24.169  0.00  0.00     0.107 A 
ATOM      9  C   UNL d   1      32.176  19.207 -24.695  0.00  0.00     0.016 A 
ATOM     10  C   UNL d   1      31.895  18.453 -24.508  0.00  0.00     0.033 A 
BRANCH   8  11
ATOM     11  S   UNL d   1      32.956  20.358 -24.348  0.00  0.00     0.302 S 
ATOM     12  O   UNL d   1      32.737  20.611 -23.630  0.00  0.00    -0.197 OA
ATOM     13  O   UNL d   1      33.182  20.090 -25.094  0.00  0.00    -0.197 OA
ATOM     14  N   UNL d   1      33.241  21.106 -24.529  0.00  0.00    -0.043 N 
ENDBRANCH   8  11
ENDBRANCH   3   5
ENDBRANCH   1   2
BRANCH   1  15
ATOM     15  N   UNL d   1      30.184  16.331 -23.791  0.00  0.00    -0.236 N 
ATOM     16  C   UNL d   1      29.753  15.996 -23.171  0.00  0.00     0.267 A 
ATOM     17  C   UNL d   1      28.962  16.241 -23.243  0.00  0.00     0.061 A 
ATOM     18  O   UNL d   1      30.055  15.503 -22.583  0.00  0.00    -0.267 OA
ATOM     19  C   UNL d   1      28.279  16.089 -22.793  0.00  0.00     0.005 A 
ATOM     20  C   UNL d   1      28.907  16.734 -23.915  0.00  0.00     0.061 A 
ATOM     21  C   UNL d   1      27.559  16.419 -23.007  0.00  0.00     0.000 A 
ATOM     22  C   UNL d   1      27.509  16.905 -23.672  0.00  0.00     0.000 A 
ATOM     23  C   UNL d   1      28.178  17.062 -24.124  0.00  0.00     0.005 A 
ATOM     24  C   UNL d   1      29.661  16.790 -24.255  0.00  0.00     0.267 A 
ATOM     25  O   UNL d   1      29.854  17.221 -24.925  0.00  0.00    -0.267 OA
ENDBRANCH   1  15
BRANCH   1  26
ATOM     26  C   UNL d   1      31.248  15.778 -24.560  0.00  0.00     0.022 C 
ATOM     27  C   UNL d   1      30.713  15.459 -25.095  0.00  0.00     0.002 C 
ATOM     28  C   UNL d   1      32.055  15.635 -24.657  0.00  0.00     0.002 C 
ENDBRANCH   1  26
TORSDOF 5
ENDMDL
