MODEL 1
REMARK VINA RESULT:      -7.4      0.000      0.000
REMARK  4 active torsions:
REMARK  status: ('A' for Active; 'I' for Inactive)
REMARK       I    between atoms: N_2  and  C_1 
REMARK    1  A    between atoms: C_3  and  C_1 
REMARK    2  A    between atoms: C_7  and  N_2 
REMARK    3  A    between atoms: O_17  and  C_9 
REMARK    4  A    between atoms: C_18  and  O_17 
ROOT
ATOM      1  C   UNL d   1     -48.389  11.475  22.596  0.00  0.00     0.279 C 
ATOM      2  N   UNL d   1     -49.212  11.584  22.619  0.00  0.00    -0.208 NA
ATOM      3  O   UNL d   1     -48.095  10.721  22.439  0.00  0.00    -0.265 OA
ENDROOT
BRANCH   2   4
ATOM      4  C   UNL d   1     -49.522  12.332  22.776  0.00  0.00     0.085 A 
ATOM      5  C   UNL d   1     -49.664  12.568  23.541  0.00  0.00     0.021 A 
ATOM      6  C   UNL d   1     -49.974  13.316  23.697  0.00  0.00     0.026 A 
ATOM      7  C   UNL d   1     -50.143  13.827  23.090  0.00  0.00     0.100 A 
ATOM      8  C   UNL d   1     -50.002  13.600  22.283  0.00  0.00     0.026 A 
ATOM      9  C   UNL d   1     -49.692  12.848  22.148  0.00  0.00     0.021 A 
BRANCH   7  10
ATOM     10  O   UNL d   1     -50.453  14.572  23.263  0.00  0.00    -0.305 OA
BRANCH  10  11
ATOM     11  C   UNL d   1     -49.953  15.174  23.469  0.00  0.00     0.123 C 
ATOM     12  C   UNL d   1     -50.270  15.900  23.696  0.00  0.00     0.029 C 
ENDBRANCH  10  11
ENDBRANCH   7  10
ENDBRANCH   2   4
BRANCH   1  13
ATOM     13  C   UNL d   1     -47.875  12.115  22.731  0.00  0.00     0.058 A 
ATOM     14  C   UNL d   1     -47.654  12.602  22.102  0.00  0.00     0.006 A 
ATOM     15  C   UNL d   1     -47.150  13.232  22.226  0.00  0.00     0.021 A 
ATOM     16  C   UNL d   1     -46.848  13.395  22.999  0.00  0.00     0.103 A 
ATOM     17  C   UNL d   1     -47.079  12.899  23.617  0.00  0.00     0.021 A 
ATOM     18  N   UNL d   1     -46.421  13.944  23.056  0.00  0.00    -0.148 N 
ATOM     19  C   UNL d   1     -47.592  12.259  23.483  0.00  0.00     0.006 A 
ENDBRANCH   1  13
TORSDOF 4
ENDMDL
MODEL 2
REMARK VINA RESULT:      -7.2      1.509      3.556
REMARK  4 active torsions:
REMARK  status: ('A' for Active; 'I' for Inactive)
REMARK       I    between atoms: N_2  and  C_1 
REMARK    1  A    between atoms: C_3  and  C_1 
REMARK    2  A    between atoms: C_7  and  N_2 
REMARK    3  A    between atoms: O_17  and  C_9 
REMARK    4  A    between atoms: C_18  and  O_17 
ROOT
ATOM      1  C   UNL d   1     -50.329  14.296  22.026  0.00  0.00     0.279 C 
ATOM      2  N   UNL d   1     -49.590  14.609  21.813  0.00  0.00    -0.208 NA
ATOM      3  O   UNL d   1     -51.009  14.708  21.810  0.00  0.00    -0.265 OA
ENDROOT
BRANCH   2   4
ATOM      4  C   UNL d   1     -48.899  14.209  22.023  0.00  0.00     0.085 A 
ATOM      5  C   UNL d   1     -48.604  13.621  21.547  0.00  0.00     0.021 A 
ATOM      6  C   UNL d   1     -47.913  13.220  21.757  0.00  0.00     0.026 A 
ATOM      7  C   UNL d   1     -47.519  13.409  22.441  0.00  0.00     0.100 A 
ATOM      8  C   UNL d   1     -47.812  14.021  22.953  0.00  0.00     0.026 A 
ATOM      9  C   UNL d   1     -48.504  14.409  22.725  0.00  0.00     0.021 A 
BRANCH   7  10
ATOM     10  O   UNL d   1     -46.830  12.999  22.637  0.00  0.00    -0.305 OA
BRANCH  10  11
ATOM     11  C   UNL d   1     -46.832  12.496  23.271  0.00  0.00     0.123 C 
ATOM     12  C   UNL d   1     -46.191  11.990  23.383  0.00  0.00     0.029 C 
ENDBRANCH  10  11
ENDBRANCH   7  10
ENDBRANCH   2   4
BRANCH   1  13
ATOM     13  C   UNL d   1     -50.378  13.582  22.450  0.00  0.00     0.058 A 
ATOM     14  C   UNL d   1     -50.407  13.595  23.274  0.00  0.00     0.006 A 
ATOM     15  C   UNL d   1     -50.455  12.898  23.696  0.00  0.00     0.021 A 
ATOM     16  C   UNL d   1     -50.476  12.153  23.295  0.00  0.00     0.103 A 
ATOM     17  C   UNL d   1     -50.447  12.158  22.470  0.00  0.00     0.021 A 
ATOM     18  N   UNL d   1     -50.518  11.585  23.698  0.00  0.00    -0.148 N 
ATOM     19  C   UNL d   1     -50.398  12.871  22.047  0.00  0.00     0.006 A 
ENDBRANCH   1  13
TORSDOF 4
ENDMDL
MODEL 3
REMARK VINA RESULT:      -7.1      1.306      3.037
REMARK  4 active torsions:
REMARK  status: ('A' for Active; 'I' for Inactive)
REMARK       I    between atoms: N_2  and  C_1 
REMARK    1  A    between atoms: C_3  and  C_1 
REMARK    2  A    between atoms: C_7  and  N_2 
REMARK    3  A    between atoms: O_17  and  C_9 
REMARK    4  A    between atoms: C_18  and  O_17 
ROOT
ATOM      1  C   UNL d   1     -50.413  13.376  21.702  0.00  0.00     0.279 C 
ATOM      2  N   UNL d   1     -50.367  12.549  21.773  0.00  0.00    -0.208 NA
ATOM      3  O   UNL d   1     -51.060  13.703  21.309  0.00  0.00    -0.265 OA
ENDROOT
BRANCH   2   4
ATOM      4  C   UNL d   1     -49.726  12.206  22.163  0.00  0.00     0.085 A 
ATOM      5  C   UNL d   1     -49.755  12.073  22.964  0.00  0.00     0.021 A 
ATOM      6  C   UNL d   1     -49.114  11.730  23.354  0.00  0.00     0.026 A 
ATOM      7  C   UNL d   1     -48.445  11.521  22.944  0.00  0.00     0.100 A 
ATOM      8  C   UNL d   1     -48.395  11.652  22.106  0.00  0.00     0.026 A 
ATOM      9  C   UNL d   1     -49.047  11.996  21.734  0.00  0.00     0.021 A 
BRANCH   7  10
ATOM     10  O   UNL d   1     -47.813  11.180  23.349  0.00  0.00    -0.305 OA
BRANCH  10  11
ATOM     11  C   UNL d   1     -47.180  11.638  23.559  0.00  0.00     0.123 C 
ATOM     12  C   UNL d   1     -46.452  11.277  23.698  0.00  0.00     0.029 C 
ENDBRANCH  10  11
ENDBRANCH   7  10
ENDBRANCH   2   4
BRANCH   1  13
ATOM     13  C   UNL d   1     -49.818  13.860  22.022  0.00  0.00     0.058 A 
ATOM     14  C   UNL d   1     -49.888  14.139  22.795  0.00  0.00     0.006 A 
ATOM     15  C   UNL d   1     -49.307  14.615  23.116  0.00  0.00     0.021 A 
ATOM     16  C   UNL d   1     -48.626  14.828  22.661  0.00  0.00     0.103 A 
ATOM     17  C   UNL d   1     -48.572  14.541  21.890  0.00  0.00     0.021 A 
ATOM     18  N   UNL d   1     -48.158  15.236  22.978  0.00  0.00    -0.148 N 
ATOM     19  C   UNL d   1     -49.167  14.057  21.569  0.00  0.00     0.006 A 
ENDBRANCH   1  13
TORSDOF 4
ENDMDL
MODEL 4
REMARK VINA RESULT:      -6.4      1.508      3.139
REMARK  4 active torsions:
REMARK  status: ('A' for Active; 'I' for Inactive)
REMARK       I    between atoms: N_2  and  C_1 
REMARK    1  A    between atoms: C_3  and  C_1 
REMARK    2  A    between atoms: C_7  and  N_2 
REMARK    3  A    between atoms: O_17  and  C_9 
REMARK    4  A    between atoms: C_18  and  O_17 
ROOT
ATOM      1  C   UNL d   1     -50.366  11.899  23.355  0.00  0.00     0.279 C 
ATOM      2  N   UNL d   1     -49.664  11.456  23.353  0.00  0.00    -0.208 NA
ATOM      3  O   UNL d   1     -51.064  11.531  23.592  0.00  0.00    -0.265 OA
ENDROOT
BRANCH   2   4
ATOM      4  C   UNL d   1     -48.956  11.810  23.118  0.00  0.00     0.085 A 
ATOM      5  C   UNL d   1     -48.749  11.835  22.333  0.00  0.00     0.021 A 
ATOM      6  C   UNL d   1     -48.041  12.189  22.098  0.00  0.00     0.026 A 
ATOM      7  C   UNL d   1     -47.543  12.518  22.649  0.00  0.00     0.100 A 
ATOM      8  C   UNL d   1     -47.742  12.503  23.475  0.00  0.00     0.026 A 
ATOM      9  C   UNL d   1     -48.454  12.144  23.688  0.00  0.00     0.021 A 
BRANCH   7  10
ATOM     10  O   UNL d   1     -46.839  12.869  22.398  0.00  0.00    -0.305 OA
BRANCH  10  11
ATOM     11  C   UNL d   1     -46.542  13.502  22.805  0.00  0.00     0.123 C 
ATOM     12  C   UNL d   1     -45.846  13.857  22.543  0.00  0.00     0.029 C 
ENDBRANCH  10  11
ENDBRANCH   7  10
ENDBRANCH   2   4
BRANCH   1  13
ATOM     13  C   UNL d   1     -50.362  12.698  23.123  0.00  0.00     0.058 A 
ATOM     14  C   UNL d   1     -50.237  13.288  23.686  0.00  0.00     0.006 A 
ATOM     15  C   UNL d   1     -50.232  14.074  23.465  0.00  0.00     0.021 A 
ATOM     16  C   UNL d   1     -50.353  14.294  22.657  0.00  0.00     0.103 A 
ATOM     17  C   UNL d   1     -50.476  13.692  22.107  0.00  0.00     0.021 A 
ATOM     18  N   UNL d   1     -50.339  14.977  22.517  0.00  0.00    -0.148 N 
ATOM     19  C   UNL d   1     -50.481  12.894  22.338  0.00  0.00     0.006 A 
ENDBRANCH   1  13
TORSDOF 4
ENDMDL
MODEL 5
REMARK VINA RESULT:      -6.2      1.469      2.452
REMARK  4 active torsions:
REMARK  status: ('A' for Active; 'I' for Inactive)
REMARK       I    between atoms: N_2  and  C_1 
REMARK    1  A    between atoms: C_3  and  C_1 
REMARK    2  A    between atoms: C_7  and  N_2 
REMARK    3  A    between atoms: O_17  and  C_9 
REMARK    4  A    between atoms: C_18  and  O_17 
ROOT
ATOM      1  C   UNL d   1     -47.349  14.930  22.454  0.00  0.00     0.279 C 
ATOM      2  N   UNL d   1     -48.128  15.210  22.384  0.00  0.00    -0.208 NA
ATOM      3  O   UNL d   1     -46.728  15.448  22.296  0.00  0.00    -0.265 OA
ENDROOT
BRANCH   2   4
ATOM      4  C   UNL d   1     -48.761  14.704  22.539  0.00  0.00     0.085 A 
ATOM      5  C   UNL d   1     -49.060  14.227  21.953  0.00  0.00     0.021 A 
ATOM      6  C   UNL d   1     -49.693  13.721  22.108  0.00  0.00     0.026 A 
ATOM      7  C   UNL d   1     -50.026  13.692  22.849  0.00  0.00     0.100 A 
ATOM      8  C   UNL d   1     -49.728  14.183  23.475  0.00  0.00     0.026 A 
ATOM      9  C   UNL d   1     -49.095  14.682  23.299  0.00  0.00     0.021 A 
BRANCH   7  10
ATOM     10  O   UNL d   1     -50.659  13.181  22.988  0.00  0.00    -0.305 OA
BRANCH  10  11
ATOM     11  C   UNL d   1     -50.518  12.389  23.080  0.00  0.00     0.123 C 
ATOM     12  C   UNL d   1     -51.062  11.931  23.496  0.00  0.00     0.029 C 
ENDBRANCH  10  11
ENDBRANCH   7  10
ENDBRANCH   2   4
BRANCH   1  13
ATOM     13  C   UNL d   1     -47.203  14.143  22.680  0.00  0.00     0.058 A 
ATOM     14  C   UNL d   1     -47.161  13.553  22.105  0.00  0.00     0.006 A 
ATOM     15  C   UNL d   1     -47.018  12.778  22.319  0.00  0.00     0.021 A 
ATOM     16  C   UNL d   1     -46.910  12.570  23.132  0.00  0.00     0.103 A 
ATOM     17  C   UNL d   1     -46.955  13.172  23.694  0.00  0.00     0.021 A 
ATOM     18  N   UNL d   1     -46.791  11.896  23.266  0.00  0.00    -0.148 N 
ATOM     19  C   UNL d   1     -47.101  13.958  23.469  0.00  0.00     0.006 A 
ENDBRANCH   1  13
TORSDOF 4
ENDMDL
MODEL 6
REMARK VINA RESULT:      -5.9      1.283      2.350
REMARK  4 active torsions:
REMARK  status: ('A' for Active; 'I' for Inactive)
REMARK       I    between atoms: N_2  and  C_1 
REMARK    1  A    between atoms: C_3  and  C_1 
REMARK    2  A    between atoms: C_7  and  N_2 
REMARK    3  A    between atoms: O_17  and  C_9 
REMARK    4  A    between atoms: C_18  and  O_17 
ROOT
ATOM      1  C   UNL d   1     -48.001  11.415  22.851  0.00  0.00     0.279 C 
ATOM      2  N   UNL d   1     -47.404  11.984  22.748  0.00  0.00    -0.208 NA
ATOM      3  O   UNL d   1     -47.786  10.621  22.896  0.00  0.00    -0.265 OA
ENDROOT
BRANCH   2   4
ATOM      4  C   UNL d   1     -47.603  12.783  22.701  0.00  0.00     0.085 A 
ATOM      5  C   UNL d   1     -47.618  13.244  23.370  0.00  0.00     0.021 A 
ATOM      6  C   UNL d   1     -47.817  14.043  23.323  0.00  0.00     0.026 A 
ATOM      7  C   UNL d   1     -48.000  14.381  22.608  0.00  0.00     0.100 A 
ATOM      8  C   UNL d   1     -47.990  13.917  21.896  0.00  0.00     0.026 A 
ATOM      9  C   UNL d   1     -47.788  13.119  21.965  0.00  0.00     0.021 A 
BRANCH   7  10
ATOM     10  O   UNL d   1     -48.197  15.182  22.578  0.00  0.00    -0.305 OA
BRANCH  10  11
ATOM     11  C   UNL d   1     -48.885  15.436  22.920  0.00  0.00     0.123 C 
ATOM     12  C   UNL d   1     -49.405  15.901  22.480  0.00  0.00     0.029 C 
ENDBRANCH  10  11
ENDBRANCH   7  10
ENDBRANCH   2   4
BRANCH   1  13
ATOM     13  C   UNL d   1     -48.798  11.646  22.908  0.00  0.00     0.058 A 
ATOM     14  C   UNL d   1     -49.243  11.752  22.221  0.00  0.00     0.006 A 
ATOM     15  C   UNL d   1     -50.026  11.979  22.269  0.00  0.00     0.021 A 
ATOM     16  C   UNL d   1     -50.391  12.109  23.022  0.00  0.00     0.103 A 
ATOM     17  C   UNL d   1     -49.931  11.999  23.698  0.00  0.00     0.021 A 
ATOM     18  N   UNL d   1     -51.062  12.302  23.012  0.00  0.00    -0.148 N 
ATOM     19  C   UNL d   1     -49.135  11.768  23.642  0.00  0.00     0.006 A 
ENDBRANCH   1  13
TORSDOF 4
ENDMDL
MODEL 7
REMARK VINA RESULT:      -5.5      8.846     10.116
REMARK  4 active torsions:
REMARK  status: ('A' for Active; 'I' for Inactive)
REMARK       I    between atoms: N_2  and  C_1 
REMARK    1  A    between atoms: C_3  and  C_1 
REMARK    2  A    between atoms: C_7  and  N_2 
REMARK    3  A    between atoms: O_17  and  C_9 
REMARK    4  A    between atoms: C_18  and  O_17 
ROOT
ATOM      1  C   UNL d   1     -38.649  14.217  20.259  0.00  0.00     0.279 C 
ATOM      2  N   UNL d   1     -38.494  14.037  19.463  0.00  0.00    -0.208 NA
ATOM      3  O   UNL d   1     -38.117  13.959  20.834  0.00  0.00    -0.265 OA
ENDROOT
BRANCH   2   4
ATOM      4  C   UNL d   1     -39.016  14.288  18.876  0.00  0.00     0.085 A 
ATOM      5  C   UNL d   1     -39.644  13.822  18.656  0.00  0.00     0.021 A 
ATOM      6  C   UNL d   1     -40.166  14.073  18.069  0.00  0.00     0.026 A 
ATOM      7  C   UNL d   1     -40.060  14.790  17.703  0.00  0.00     0.100 A 
ATOM      8  C   UNL d   1     -39.410  15.293  17.918  0.00  0.00     0.026 A 
ATOM      9  C   UNL d   1     -38.899  15.023  18.508  0.00  0.00     0.021 A 
BRANCH   7  10
ATOM     10  O   UNL d   1     -40.592  15.027  17.118  0.00  0.00    -0.305 OA
BRANCH  10  11
ATOM     11  C   UNL d   1     -41.029  15.700  17.225  0.00  0.00     0.123 C 
ATOM     12  C   UNL d   1     -41.573  15.922  16.646  0.00  0.00     0.029 C 
ENDBRANCH  10  11
ENDBRANCH   7  10
ENDBRANCH   2   4
BRANCH   1  13
ATOM     13  C   UNL d   1     -39.328  14.649  20.468  0.00  0.00     0.058 A 
ATOM     14  C   UNL d   1     -39.277  15.465  20.579  0.00  0.00     0.006 A 
ATOM     15  C   UNL d   1     -39.940  15.896  20.784  0.00  0.00     0.021 A 
ATOM     16  C   UNL d   1     -40.687  15.513  20.886  0.00  0.00     0.103 A 
ATOM     17  C   UNL d   1     -40.721  14.696  20.772  0.00  0.00     0.021 A 
ATOM     18  N   UNL d   1     -41.224  15.922  21.062  0.00  0.00    -0.148 N 
ATOM     19  C   UNL d   1     -40.043  14.264  20.563  0.00  0.00     0.006 A 
ENDBRANCH   1  13
TORSDOF 4
ENDMDL
MODEL 8
REMARK VINA RESULT:      -5.3      9.101     10.279
REMARK  4 active torsions:
REMARK  status: ('A' for Active; 'I' for Inactive)
REMARK       I    between atoms: N_2  and  C_1 
REMARK    1  A    between atoms: C_3  and  C_1 
REMARK    2  A    between atoms: C_7  and  N_2 
REMARK    3  A    between atoms: O_17  and  C_9 
REMARK    4  A    between atoms: C_18  and  O_17 
ROOT
ATOM      1  C   UNL d   1     -40.569  15.403  17.646  0.00  0.00     0.279 C 
ATOM      2  N   UNL d   1     -40.889  15.705  18.351  0.00  0.00    -0.208 NA
ATOM      3  O   UNL d   1     -40.902  15.638  16.930  0.00  0.00    -0.265 OA
ENDROOT
BRANCH   2   4
ATOM      4  C   UNL d   1     -40.567  15.480  19.077  0.00  0.00     0.085 A 
ATOM      5  C   UNL d   1     -39.955  15.902  19.404  0.00  0.00     0.021 A 
ATOM      6  C   UNL d   1     -39.633  15.677  20.130  0.00  0.00     0.026 A 
ATOM      7  C   UNL d   1     -39.923  15.030  20.527  0.00  0.00     0.100 A 
ATOM      8  C   UNL d   1     -40.563  14.576  20.201  0.00  0.00     0.026 A 
ATOM      9  C   UNL d   1     -40.870  14.818  19.474  0.00  0.00     0.021 A 
BRANCH   7  10
ATOM     10  O   UNL d   1     -39.590  14.818  21.251  0.00  0.00    -0.305 OA
BRANCH  10  11
ATOM     11  C   UNL d   1     -39.330  14.060  21.364  0.00  0.00     0.123 C 
ATOM     12  C   UNL d   1     -38.965  13.862  22.076  0.00  0.00     0.029 C 
ENDBRANCH  10  11
ENDBRANCH   7  10
ENDBRANCH   2   4
BRANCH   1  13
ATOM     13  C   UNL d   1     -39.926  14.876  17.667  0.00  0.00     0.058 A 
ATOM     14  C   UNL d   1     -40.065  14.063  17.697  0.00  0.00     0.006 A 
ATOM     15  C   UNL d   1     -39.439  13.539  17.717  0.00  0.00     0.021 A 
ATOM     16  C   UNL d   1     -38.641  13.821  17.708  0.00  0.00     0.103 A 
ATOM     17  C   UNL d   1     -38.521  14.637  17.678  0.00  0.00     0.021 A 
ATOM     18  N   UNL d   1     -38.140  13.336  17.727  0.00  0.00    -0.148 N 
ATOM     19  C   UNL d   1     -39.162  15.165  17.657  0.00  0.00     0.006 A 
ENDBRANCH   1  13
TORSDOF 4
ENDMDL
MODEL 9
REMARK VINA RESULT:      -5.2      8.765     10.479
REMARK  4 active torsions:
REMARK  status: ('A' for Active; 'I' for Inactive)
REMARK       I    between atoms: N_2  and  C_1 
REMARK    1  A    between atoms: C_3  and  C_1 
REMARK    2  A    between atoms: C_7  and  N_2 
REMARK    3  A    between atoms: O_17  and  C_9 
REMARK    4  A    between atoms: C_18  and  O_17 
ROOT
ATOM      1  C   UNL d   1     -40.752  14.350  19.926  0.00  0.00     0.279 C 
ATOM      2  N   UNL d   1     -41.033  14.169  19.165  0.00  0.00    -0.208 NA
ATOM      3  O   UNL d   1     -41.217  14.153  20.576  0.00  0.00    -0.265 OA
ENDROOT
BRANCH   2   4
ATOM      4  C   UNL d   1     -40.579  14.360  18.504  0.00  0.00     0.085 A 
ATOM      5  C   UNL d   1     -40.664  15.081  18.140  0.00  0.00     0.021 A 
ATOM      6  C   UNL d   1     -40.210  15.273  17.478  0.00  0.00     0.026 A 
ATOM      7  C   UNL d   1     -39.671  14.743  17.181  0.00  0.00     0.100 A 
ATOM      8  C   UNL d   1     -39.567  13.983  17.547  0.00  0.00     0.026 A 
ATOM      9  C   UNL d   1     -40.031  13.811  18.207  0.00  0.00     0.021 A 
BRANCH   7  10
ATOM     10  O   UNL d   1     -39.225  14.949  16.519  0.00  0.00    -0.305 OA
BRANCH  10  11
ATOM     11  C   UNL d   1     -38.417  14.950  16.567  0.00  0.00     0.123 C 
ATOM     12  C   UNL d   1     -37.974  15.104  15.889  0.00  0.00     0.029 C 
ENDBRANCH  10  11
ENDBRANCH   7  10
ENDBRANCH   2   4
BRANCH   1  13
ATOM     13  C   UNL d   1     -40.015  14.724  20.024  0.00  0.00     0.058 A 
ATOM     14  C   UNL d   1     -39.972  15.548  20.032  0.00  0.00     0.006 A 
ATOM     15  C   UNL d   1     -39.252  15.922  20.128  0.00  0.00     0.021 A 
ATOM     16  C   UNL d   1     -38.542  15.471  20.222  0.00  0.00     0.103 A 
ATOM     17  C   UNL d   1     -38.604  14.648  20.212  0.00  0.00     0.021 A 
ATOM     18  N   UNL d   1     -37.952  15.834  20.301  0.00  0.00    -0.148 N 
ATOM     19  C   UNL d   1     -39.339  14.274  20.113  0.00  0.00     0.006 A 
ENDBRANCH   1  13
TORSDOF 4
ENDMDL
