MODEL 1
REMARK VINA RESULT:      55.2      0.000      0.000
REMARK  5 active torsions:
REMARK  status: ('A' for Active; 'I' for Inactive)
REMARK    1  A    between atoms: C_2  and  C_1 
REMARK       I    between atoms: N_3  and  C_1 
REMARK    2  A    between atoms: C_9  and  N_3 
REMARK    3  A    between atoms: N_8  and  C_6 
REMARK    4  A    between atoms: C_18  and  N_8 
REMARK    5  A    between atoms: C_19  and  N_8 
ROOT
ATOM      1  C   UNL d   1     -48.373  28.810  35.405  0.00  0.00     0.064 A 
ATOM      2  C   UNL d   1     -49.022  27.578  34.522  0.00  0.00     0.135 A 
ATOM      3  C   UNL d   1     -47.980  28.533  34.730  0.00  0.00     0.020 A 
ATOM      4  C   UNL d   1     -49.080  28.479  35.637  0.00  0.00     0.020 A 
ATOM      5  C   UNL d   1     -48.316  27.910  34.291  0.00  0.00     0.034 A 
ATOM      6  C   UNL d   1     -49.409  27.862  35.198  0.00  0.00     0.034 A 
ENDROOT
BRANCH   2   7
ATOM      7  N   UNL d   1     -49.340  26.969  34.083  0.00  0.00    -0.365 NA
ATOM      8  C   UNL d   1     -49.643  26.355  33.642  0.00  0.00     0.330 C 
ATOM      9  O   UNL d   1     -49.153  25.792  33.306  0.00  0.00    -0.251 OA
BRANCH   8  10
ATOM     10  C   UNL d   1     -50.464  26.298  33.529  0.00  0.00     0.090 A 
ATOM     11  C   UNL d   1     -50.834  25.560  33.472  0.00  0.00     0.016 A 
ATOM     12  C   UNL d   1     -51.635  25.500  33.362  0.00  0.00     0.054 A 
ATOM     13 BR   UNL d   1     -51.994  24.769  33.307  0.00  0.00    -0.048 Br
ATOM     14  C   UNL d   1     -52.084  26.172  33.307  0.00  0.00     0.106 A 
ATOM     15  N   UNL d   1     -51.741  26.913  33.361  0.00  0.00    -0.242 NA
ATOM     16  C   UNL d   1     -50.914  26.969  33.474  0.00  0.00     0.105 A 
ENDBRANCH   8  10
ENDBRANCH   2   7
BRANCH   1  17
ATOM     17  N   UNL d   1     -48.037  29.428  35.839  0.00  0.00    -0.304 N 
BRANCH  17  18
ATOM     18  C   UNL d   1     -47.764  30.097  35.463  0.00  0.00     0.080 C 
ATOM     19  C   UNL d   1     -47.308  30.643  35.873  0.00  0.00     0.021 C 
ENDBRANCH  17  18
BRANCH  17  20
ATOM     20  C   UNL d   1     -47.981  29.359  36.667  0.00  0.00     0.080 C 
ATOM     21  C   UNL d   1     -47.376  29.757  37.063  0.00  0.00     0.021 C 
ENDBRANCH  17  20
ENDBRANCH   1  17
TORSDOF 5
ENDMDL
MODEL 2
REMARK VINA RESULT:      55.2      1.988      5.232
REMARK  5 active torsions:
REMARK  status: ('A' for Active; 'I' for Inactive)
REMARK    1  A    between atoms: C_2  and  C_1 
REMARK       I    between atoms: N_3  and  C_1 
REMARK    2  A    between atoms: C_9  and  N_3 
REMARK    3  A    between atoms: N_8  and  C_6 
REMARK    4  A    between atoms: C_18  and  N_8 
REMARK    5  A    between atoms: C_19  and  N_8 
ROOT
ATOM      1  C   UNL d   1     -52.151  24.673  33.462  0.00  0.00     0.064 A 
ATOM      2  C   UNL d   1     -51.486  26.181  33.507  0.00  0.00     0.135 A 
ATOM      3  C   UNL d   1     -51.346  24.766  33.637  0.00  0.00     0.020 A 
ATOM      4  C   UNL d   1     -52.618  25.323  33.311  0.00  0.00     0.020 A 
ATOM      5  C   UNL d   1     -51.019  25.532  33.657  0.00  0.00     0.034 A 
ATOM      6  C   UNL d   1     -52.290  26.080  33.333  0.00  0.00     0.034 A 
ENDROOT
BRANCH   2   7
ATOM      7  N   UNL d   1     -51.154  26.926  33.530  0.00  0.00    -0.365 NA
ATOM      8  C   UNL d   1     -50.835  27.675  33.548  0.00  0.00     0.330 C 
ATOM      9  O   UNL d   1     -51.271  28.328  33.314  0.00  0.00    -0.251 OA
BRANCH   8  10
ATOM     10  C   UNL d   1     -50.053  27.782  33.808  0.00  0.00     0.090 A 
ATOM     11  C   UNL d   1     -49.584  27.133  34.017  0.00  0.00     0.016 A 
ATOM     12  C   UNL d   1     -48.821  27.234  34.271  0.00  0.00     0.054 A 
ATOM     13 BR   UNL d   1     -48.362  26.590  34.476  0.00  0.00    -0.048 Br
ATOM     14  C   UNL d   1     -48.509  27.980  34.322  0.00  0.00     0.106 A 
ATOM     15  N   UNL d   1     -48.954  28.636  34.120  0.00  0.00    -0.242 NA
ATOM     16  C   UNL d   1     -49.741  28.527  33.859  0.00  0.00     0.105 A 
ENDBRANCH   8  10
ENDBRANCH   2   7
BRANCH   1  17
ATOM     17  N   UNL d   1     -52.472  23.912  33.442  0.00  0.00    -0.304 N 
BRANCH  17  18
ATOM     18  C   UNL d   1     -51.986  23.258  33.452  0.00  0.00     0.080 C 
ATOM     19  C   UNL d   1     -51.182  23.339  33.308  0.00  0.00     0.021 C 
ENDBRANCH  17  18
BRANCH  17  20
ATOM     20  C   UNL d   1     -53.299  23.821  33.412  0.00  0.00     0.080 C 
ATOM     21  C   UNL d   1     -53.654  23.222  33.856  0.00  0.00     0.021 C 
ENDBRANCH  17  20
ENDBRANCH   1  17
TORSDOF 5
ENDMDL
