MODEL 1
REMARK VINA RESULT:      -6.7      0.000      0.000
REMARK  3 active torsions:
REMARK  status: ('A' for Active; 'I' for Inactive)
REMARK    1  A    between atoms: N_3  and  S_1 
REMARK    2  A    between atoms: C_8  and  S_1 
REMARK    3  A    between atoms: C_2  and  N_3 
ROOT
ATOM      1  S   UNL d   1     -48.180  13.975  22.671  0.00  0.00     0.287 S 
ATOM      2  O   UNL d   1     -47.889  14.405  23.314  0.00  0.00    -0.198 OA
ATOM      3  O   UNL d   1     -48.481  13.550  22.028  0.00  0.00    -0.198 OA
ENDROOT
BRANCH   1   4
ATOM      4  N   UNL d   1     -47.456  13.586  22.596  0.00  0.00    -0.131 NA
BRANCH   4   5
ATOM      5  C   UNL d   1     -47.108  12.925  22.949  0.00  0.00     0.219 A 
ATOM      6  C   UNL d   1     -46.337  12.659  22.821  0.00  0.00     0.064 A 
ATOM      7  C   UNL d   1     -46.224  11.982  23.286  0.00  0.00     0.112 A 
ATOM      8  C   UNL d   1     -45.777  13.006  22.318  0.00  0.00     0.005 C 
ATOM      9  C   UNL d   1     -45.528  11.536  23.326  0.00  0.00     0.023 C 
ATOM     10  N   UNL d   1     -46.925  11.835  23.698  0.00  0.00    -0.125 NA
ATOM     11  O   UNL d   1     -47.474  12.420  23.490  0.00  0.00    -0.191 OA
ENDBRANCH   4   5
ENDBRANCH   1   4
BRANCH   1  12
ATOM     12  C   UNL d   1     -48.906  14.365  22.746  0.00  0.00     0.105 A 
ATOM     13  C   UNL d   1     -48.942  15.103  23.112  0.00  0.00     0.015 A 
ATOM     14  C   UNL d   1     -49.658  15.487  23.186  0.00  0.00     0.022 A 
ATOM     15  C   UNL d   1     -50.340  15.148  22.900  0.00  0.00     0.103 A 
ATOM     16  C   UNL d   1     -50.307  14.412  22.534  0.00  0.00     0.022 A 
ATOM     17  N   UNL d   1     -51.064  15.537  22.975  0.00  0.00    -0.148 N 
ATOM     18  C   UNL d   1     -49.588  14.026  22.460  0.00  0.00     0.015 A 
ENDBRANCH   1  12
TORSDOF 3
ENDMDL
MODEL 2
REMARK VINA RESULT:      -6.2      1.657      3.803
REMARK  3 active torsions:
REMARK  status: ('A' for Active; 'I' for Inactive)
REMARK    1  A    between atoms: N_3  and  S_1 
REMARK    2  A    between atoms: C_8  and  S_1 
REMARK    3  A    between atoms: C_2  and  N_3 
ROOT
ATOM      1  S   UNL d   1     -47.688  13.017  22.913  0.00  0.00     0.287 S 
ATOM      2  O   UNL d   1     -47.895  12.875  22.126  0.00  0.00    -0.198 OA
ATOM      3  O   UNL d   1     -47.471  13.160  23.698  0.00  0.00    -0.198 OA
ENDROOT
BRANCH   1   4
ATOM      4  N   UNL d   1     -48.486  13.041  23.123  0.00  0.00    -0.131 NA
BRANCH   4   5
ATOM      5  C   UNL d   1     -49.063  12.474  23.292  0.00  0.00     0.219 A 
ATOM      6  C   UNL d   1     -49.869  12.621  23.394  0.00  0.00     0.064 A 
ATOM      7  C   UNL d   1     -50.239  11.897  23.553  0.00  0.00     0.112 A 
ATOM      8  C   UNL d   1     -50.242  13.360  23.345  0.00  0.00     0.005 C 
ATOM      9  C   UNL d   1     -51.048  11.789  23.692  0.00  0.00     0.023 C 
ATOM     10  N   UNL d   1     -49.659  11.307  23.550  0.00  0.00    -0.125 NA
ATOM     11  O   UNL d   1     -48.929  11.664  23.387  0.00  0.00    -0.191 OA
ENDBRANCH   4   5
ENDBRANCH   1   4
BRANCH   1  12
ATOM     12  C   UNL d   1     -46.888  12.994  22.701  0.00  0.00     0.105 A 
ATOM     13  C   UNL d   1     -46.529  13.658  22.369  0.00  0.00     0.015 A 
ATOM     14  C   UNL d   1     -45.742  13.635  22.161  0.00  0.00     0.022 A 
ATOM     15  C   UNL d   1     -45.303  12.959  22.278  0.00  0.00     0.103 A 
ATOM     16  C   UNL d   1     -45.659  12.295  22.609  0.00  0.00     0.022 A 
ATOM     17  N   UNL d   1     -44.505  12.936  22.067  0.00  0.00    -0.148 N 
ATOM     18  C   UNL d   1     -46.450  12.318  22.818  0.00  0.00     0.015 A 
ENDBRANCH   1  12
TORSDOF 3
ENDMDL
MODEL 3
REMARK VINA RESULT:      -5.6      8.383     10.258
REMARK  3 active torsions:
REMARK  status: ('A' for Active; 'I' for Inactive)
REMARK    1  A    between atoms: N_3  and  S_1 
REMARK    2  A    between atoms: C_8  and  S_1 
REMARK    3  A    between atoms: C_2  and  N_3 
ROOT
ATOM      1  S   UNL d   1     -39.486  14.021  18.431  0.00  0.00     0.287 S 
ATOM      2  O   UNL d   1     -40.155  13.635  18.138  0.00  0.00    -0.198 OA
ATOM      3  O   UNL d   1     -38.811  14.405  18.715  0.00  0.00    -0.198 OA
ENDROOT
BRANCH   1   4
ATOM      4  N   UNL d   1     -39.875  14.163  19.146  0.00  0.00    -0.131 NA
BRANCH   4   5
ATOM      5  C   UNL d   1     -40.325  14.784  19.453  0.00  0.00     0.219 A 
ATOM      6  C   UNL d   1     -40.562  14.865  20.239  0.00  0.00     0.064 A 
ATOM      7  C   UNL d   1     -41.001  15.566  20.299  0.00  0.00     0.112 A 
ATOM      8  C   UNL d   1     -40.393  14.341  20.858  0.00  0.00     0.005 C 
ATOM      9  C   UNL d   1     -41.346  15.861  20.990  0.00  0.00     0.023 C 
ATOM     10  N   UNL d   1     -41.032  15.913  19.549  0.00  0.00    -0.125 NA
ATOM     11  O   UNL d   1     -40.612  15.428  19.023  0.00  0.00    -0.191 OA
ENDBRANCH   4   5
ENDBRANCH   1   4
BRANCH   1  12
ATOM     12  C   UNL d   1     -39.097  13.878  17.715  0.00  0.00     0.105 A 
ATOM     13  C   UNL d   1     -39.109  14.447  17.118  0.00  0.00     0.015 A 
ATOM     14  C   UNL d   1     -38.726  14.307  16.413  0.00  0.00     0.022 A 
ATOM     15  C   UNL d   1     -38.329  13.607  16.291  0.00  0.00     0.103 A 
ATOM     16  C   UNL d   1     -38.315  13.037  16.884  0.00  0.00     0.022 A 
ATOM     17  N   UNL d   1     -37.940  13.464  15.576  0.00  0.00    -0.148 N 
ATOM     18  C   UNL d   1     -38.700  13.178  17.593  0.00  0.00     0.015 A 
ENDBRANCH   1  12
TORSDOF 3
ENDMDL
MODEL 4
REMARK VINA RESULT:      -5.5      1.745      2.198
REMARK  3 active torsions:
REMARK  status: ('A' for Active; 'I' for Inactive)
REMARK    1  A    between atoms: N_3  and  S_1 
REMARK    2  A    between atoms: C_8  and  S_1 
REMARK    3  A    between atoms: C_2  and  N_3 
ROOT
ATOM      1  S   UNL d   1     -48.260  13.118  22.880  0.00  0.00     0.287 S 
ATOM      2  O   UNL d   1     -48.477  13.073  22.084  0.00  0.00    -0.198 OA
ATOM      3  O   UNL d   1     -48.052  13.158  23.679  0.00  0.00    -0.198 OA
ENDROOT
BRANCH   1   4
ATOM      4  N   UNL d   1     -47.564  13.512  22.674  0.00  0.00    -0.131 NA
BRANCH   4   5
ATOM      5  C   UNL d   1     -46.809  13.279  22.433  0.00  0.00     0.219 A 
ATOM      6  C   UNL d   1     -46.123  13.733  22.491  0.00  0.00     0.064 A 
ATOM      7  C   UNL d   1     -45.497  13.283  22.185  0.00  0.00     0.112 A 
ATOM      8  C   UNL d   1     -46.067  14.501  22.798  0.00  0.00     0.005 C 
ATOM      9  C   UNL d   1     -44.707  13.526  22.135  0.00  0.00     0.023 C 
ATOM     10  N   UNL d   1     -45.801  12.555  21.941  0.00  0.00    -0.125 NA
ATOM     11  O   UNL d   1     -46.616  12.551  22.094  0.00  0.00    -0.191 OA
ENDBRANCH   4   5
ENDBRANCH   1   4
BRANCH   1  12
ATOM     12  C   UNL d   1     -48.957  12.723  23.086  0.00  0.00     0.105 A 
ATOM     13  C   UNL d   1     -49.689  13.073  22.941  0.00  0.00     0.015 A 
ATOM     14  C   UNL d   1     -50.376  12.684  23.144  0.00  0.00     0.022 A 
ATOM     15  C   UNL d   1     -50.346  11.949  23.492  0.00  0.00     0.103 A 
ATOM     16  C   UNL d   1     -49.617  11.596  23.638  0.00  0.00     0.022 A 
ATOM     17  N   UNL d   1     -51.042  11.554  23.698  0.00  0.00    -0.148 N 
ATOM     18  C   UNL d   1     -48.927  11.988  23.434  0.00  0.00     0.015 A 
ENDBRANCH   1  12
TORSDOF 3
ENDMDL
MODEL 5
REMARK VINA RESULT:      -5.5      9.025      9.825
REMARK  3 active torsions:
REMARK  status: ('A' for Active; 'I' for Inactive)
REMARK    1  A    between atoms: N_3  and  S_1 
REMARK    2  A    between atoms: C_8  and  S_1 
REMARK    3  A    between atoms: C_2  and  N_3 
ROOT
ATOM      1  S   UNL d   1     -39.214  14.489  20.143  0.00  0.00     0.287 S 
ATOM      2  O   UNL d   1     -38.645  14.060  19.725  0.00  0.00    -0.198 OA
ATOM      3  O   UNL d   1     -39.781  14.914  20.570  0.00  0.00    -0.198 OA
ENDROOT
BRANCH   1   4
ATOM      4  N   UNL d   1     -39.445  14.870  19.447  0.00  0.00    -0.131 NA
BRANCH   4   5
ATOM      5  C   UNL d   1     -39.957  14.688  18.823  0.00  0.00     0.219 A 
ATOM      6  C   UNL d   1     -40.116  15.171  18.174  0.00  0.00     0.064 A 
ATOM      7  C   UNL d   1     -40.657  14.772  17.689  0.00  0.00     0.112 A 
ATOM      8  C   UNL d   1     -39.794  15.922  18.031  0.00  0.00     0.005 C 
ATOM      9  C   UNL d   1     -40.968  15.056  16.977  0.00  0.00     0.023 C 
ATOM     10  N   UNL d   1     -40.828  14.045  18.043  0.00  0.00    -0.125 NA
ATOM     11  O   UNL d   1     -40.394  13.992  18.747  0.00  0.00    -0.191 OA
ENDBRANCH   4   5
ENDBRANCH   1   4
BRANCH   1  12
ATOM     12  C   UNL d   1     -38.982  14.109  20.840  0.00  0.00     0.105 A 
ATOM     13  C   UNL d   1     -39.482  14.109  21.496  0.00  0.00     0.015 A 
ATOM     14  C   UNL d   1     -39.253  13.734  22.183  0.00  0.00     0.022 A 
ATOM     15  C   UNL d   1     -38.534  13.357  22.228  0.00  0.00     0.103 A 
ATOM     16  C   UNL d   1     -38.034  13.354  21.574  0.00  0.00     0.022 A 
ATOM     17  N   UNL d   1     -38.303  12.976  22.923  0.00  0.00    -0.148 N 
ATOM     18  C   UNL d   1     -38.263  13.731  20.884  0.00  0.00     0.015 A 
ENDBRANCH   1  12
TORSDOF 3
ENDMDL
MODEL 6
REMARK VINA RESULT:      -5.4      8.891      9.269
REMARK  3 active torsions:
REMARK  status: ('A' for Active; 'I' for Inactive)
REMARK    1  A    between atoms: N_3  and  S_1 
REMARK    2  A    between atoms: C_8  and  S_1 
REMARK    3  A    between atoms: C_2  and  N_3 
ROOT
ATOM      1  S   UNL d   1     -39.657  14.550  19.021  0.00  0.00     0.287 S 
ATOM      2  O   UNL d   1     -39.254  15.266  19.109  0.00  0.00    -0.198 OA
ATOM      3  O   UNL d   1     -40.067  13.838  18.925  0.00  0.00    -0.198 OA
ENDROOT
BRANCH   1   4
ATOM      4  N   UNL d   1     -39.214  14.219  19.634  0.00  0.00    -0.131 NA
BRANCH   4   5
ATOM      5  C   UNL d   1     -39.320  14.123  20.448  0.00  0.00     0.219 A 
ATOM      6  C   UNL d   1     -38.773  13.796  20.971  0.00  0.00     0.064 A 
ATOM      7  C   UNL d   1     -39.109  13.809  21.729  0.00  0.00     0.112 A 
ATOM      8  C   UNL d   1     -38.021  13.505  20.775  0.00  0.00     0.005 C 
ATOM      9  C   UNL d   1     -38.749  13.533  22.421  0.00  0.00     0.023 C 
ATOM     10  N   UNL d   1     -39.862  14.145  21.668  0.00  0.00    -0.125 NA
ATOM     11  O   UNL d   1     -39.994  14.340  20.874  0.00  0.00    -0.191 OA
ENDBRANCH   4   5
ENDBRANCH   1   4
BRANCH   1  12
ATOM     12  C   UNL d   1     -40.102  14.883  18.408  0.00  0.00     0.105 A 
ATOM     13  C   UNL d   1     -40.502  15.594  18.526  0.00  0.00     0.015 A 
ATOM     14  C   UNL d   1     -40.939  15.922  17.921  0.00  0.00     0.022 A 
ATOM     15  C   UNL d   1     -40.986  15.552  17.198  0.00  0.00     0.103 A 
ATOM     16  C   UNL d   1     -40.589  14.842  17.077  0.00  0.00     0.022 A 
ATOM     17  N   UNL d   1     -41.430  15.884  16.586  0.00  0.00    -0.148 N 
ATOM     18  C   UNL d   1     -40.149  14.513  17.685  0.00  0.00     0.015 A 
ENDBRANCH   1  12
TORSDOF 3
ENDMDL
