MODEL 1
REMARK VINA RESULT:      36.2      0.000      0.000
REMARK  4 active torsions:
REMARK  status: ('A' for Active; 'I' for Inactive)
REMARK    1  A    between atoms: C_9  and  N_2 
REMARK    2  A    between atoms: C_7  and  O_10 
REMARK    3  A    between atoms: C_11  and  C_9 
REMARK    4  A    between atoms: O_10  and  C_11 
ROOT
ATOM      1  C   UNL d   1      13.609  12.292  -2.649  0.00  0.00     0.296 A 
ATOM      2  N   UNL d   1      14.128  12.877  -2.396  0.00  0.00    -0.266 N 
ATOM      3  S   UNL d   1      13.468  11.780  -2.001  0.00  0.00    -0.025 SA
ATOM      4  C   UNL d   1      14.311  12.734  -1.600  0.00  0.00     0.074 A 
ATOM      5  C   UNL d   1      13.906  12.062  -1.357  0.00  0.00     0.050 A 
ATOM      6  O   UNL d   1      13.283  12.218  -3.399  0.00  0.00    -0.259 OA
ATOM      7  C   UNL d   1      14.800  13.140  -1.071  0.00  0.00     0.018 A 
ATOM      8  C   UNL d   1      13.981  11.781  -0.581  0.00  0.00     0.008 A 
ATOM      9  C   UNL d   1      14.877  12.863  -0.295  0.00  0.00     0.002 A 
ATOM     10  C   UNL d   1      14.473  12.191  -0.053  0.00  0.00     0.001 A 
ENDROOT
BRANCH   2  11
ATOM     11  C   UNL d   1      14.419  13.498  -2.854  0.00  0.00     0.110 C 
BRANCH  11  12
ATOM     12  C   UNL d   1      14.147  14.266  -2.733  0.00  0.00     0.142 C 
BRANCH  12  13
ATOM     13  O   UNL d   1      14.086  14.800  -3.363  0.00  0.00    -0.304 OA
BRANCH  13  14
ATOM     14  C   UNL d   1      14.426  15.550  -3.307  0.00  0.00     0.100 A 
ATOM     15  C   UNL d   1      14.592  15.978  -3.993  0.00  0.00     0.023 A 
ATOM     16  C   UNL d   1      14.418  15.656  -4.734  0.00  0.00     0.002 C 
ATOM     17  C   UNL d   1      14.931  16.722  -3.937  0.00  0.00     0.002 A 
ATOM     18  C   UNL d   1      15.103  17.040  -3.195  0.00  0.00     0.000 A 
ATOM     19  C   UNL d   1      14.934  16.607  -2.509  0.00  0.00     0.002 A 
ATOM     20  C   UNL d   1      14.595  15.861  -2.574  0.00  0.00     0.025 A 
ENDBRANCH  13  14
ENDBRANCH  12  13
ENDBRANCH  11  12
ENDBRANCH   2  11
TORSDOF 4
ENDMDL
MODEL 2
REMARK VINA RESULT:      36.4      1.824      2.436
REMARK  4 active torsions:
REMARK  status: ('A' for Active; 'I' for Inactive)
REMARK    1  A    between atoms: C_9  and  N_2 
REMARK    2  A    between atoms: C_7  and  O_10 
REMARK    3  A    between atoms: C_11  and  C_9 
REMARK    4  A    between atoms: O_10  and  C_11 
ROOT
ATOM      1  C   UNL d   1      15.787  13.741  -0.035  0.00  0.00     0.296 A 
ATOM      2  N   UNL d   1      15.007  14.001  -0.055  0.00  0.00    -0.266 N 
ATOM      3  S   UNL d   1      15.774  12.903  -0.017  0.00  0.00    -0.025 SA
ATOM      4  C   UNL d   1      14.512  13.335  -0.051  0.00  0.00     0.074 A 
ATOM      5  C   UNL d   1      14.982  12.662  -0.027  0.00  0.00     0.050 A 
ATOM      6  O   UNL d   1      16.460  14.211  -0.032  0.00  0.00    -0.259 OA
ATOM      7  C   UNL d   1      13.688  13.269  -0.065  0.00  0.00     0.018 A 
ATOM      8  C   UNL d   1      14.639  11.908  -0.018  0.00  0.00     0.008 A 
ATOM      9  C   UNL d   1      13.342  12.517  -0.056  0.00  0.00     0.002 A 
ATOM     10  C   UNL d   1      13.812  11.844  -0.032  0.00  0.00     0.001 A 
ENDROOT
BRANCH   2  11
ATOM     11  C   UNL d   1      14.759  14.787  -0.077  0.00  0.00     0.110 C 
BRANCH  11  12
ATOM     12  C   UNL d   1      14.989  15.279  -0.695  0.00  0.00     0.142 C 
BRANCH  12  13
ATOM     13  O   UNL d   1      14.434  15.572  -1.235  0.00  0.00    -0.304 OA
BRANCH  13  14
ATOM     14  C   UNL d   1      14.678  16.041  -1.869  0.00  0.00     0.100 A 
ATOM     15  C   UNL d   1      15.037  16.771  -1.727  0.00  0.00     0.023 A 
ATOM     16  C   UNL d   1      15.152  17.031  -0.950  0.00  0.00     0.002 C 
ATOM     17  C   UNL d   1      15.278  17.236  -2.357  0.00  0.00     0.002 A 
ATOM     18  C   UNL d   1      15.161  16.973  -3.130  0.00  0.00     0.000 A 
ATOM     19  C   UNL d   1      14.801  16.240  -3.268  0.00  0.00     0.002 A 
ATOM     20  C   UNL d   1      14.562  15.779  -2.631  0.00  0.00     0.025 A 
ENDBRANCH  13  14
ENDBRANCH  12  13
ENDBRANCH  11  12
ENDBRANCH   2  11
TORSDOF 4
ENDMDL
MODEL 3
REMARK VINA RESULT:      38.5      1.950      3.625
REMARK  4 active torsions:
REMARK  status: ('A' for Active; 'I' for Inactive)
REMARK    1  A    between atoms: C_9  and  N_2 
REMARK    2  A    between atoms: C_7  and  O_10 
REMARK    3  A    between atoms: C_11  and  C_9 
REMARK    4  A    between atoms: O_10  and  C_11 
ROOT
ATOM      1  C   UNL d   1      14.668  15.759  -2.707  0.00  0.00     0.296 A 
ATOM      2  N   UNL d   1      14.699  15.035  -2.319  0.00  0.00    -0.266 N 
ATOM      3  S   UNL d   1      14.847  16.356  -2.147  0.00  0.00    -0.025 SA
ATOM      4  C   UNL d   1      14.894  15.176  -1.525  0.00  0.00     0.074 A 
ATOM      5  C   UNL d   1      14.985  15.985  -1.420  0.00  0.00     0.050 A 
ATOM      6  O   UNL d   1      14.494  15.881  -3.500  0.00  0.00    -0.259 OA
ATOM      7  C   UNL d   1      15.000  14.657  -0.889  0.00  0.00     0.018 A 
ATOM      8  C   UNL d   1      15.183  16.294  -0.676  0.00  0.00     0.008 A 
ATOM      9  C   UNL d   1      15.197  14.962  -0.146  0.00  0.00     0.002 A 
ATOM     10  C   UNL d   1      15.288  15.771  -0.041  0.00  0.00     0.001 A 
ENDROOT
BRANCH   2  11
ATOM     11  C   UNL d   1      14.560  14.296  -2.658  0.00  0.00     0.110 C 
BRANCH  11  12
ATOM     12  C   UNL d   1      13.866  14.156  -3.079  0.00  0.00     0.142 C 
BRANCH  12  13
ATOM     13  O   UNL d   1      13.472  13.430  -3.021  0.00  0.00    -0.304 OA
BRANCH  13  14
ATOM     14  C   UNL d   1      13.256  13.018  -3.702  0.00  0.00     0.100 A 
ATOM     15  C   UNL d   1      13.250  12.192  -3.698  0.00  0.00     0.023 A 
ATOM     16  C   UNL d   1      13.458  11.780  -3.012  0.00  0.00     0.002 C 
ATOM     17  C   UNL d   1      13.035  11.783  -4.375  0.00  0.00     0.002 A 
ATOM     18  C   UNL d   1      12.827  12.199  -5.057  0.00  0.00     0.000 A 
ATOM     19  C   UNL d   1      12.835  13.027  -5.057  0.00  0.00     0.002 A 
ATOM     20  C   UNL d   1      13.052  13.429  -4.374  0.00  0.00     0.025 A 
ENDBRANCH  13  14
ENDBRANCH  12  13
ENDBRANCH  11  12
ENDBRANCH   2  11
TORSDOF 4
ENDMDL
