MODEL 1
REMARK VINA RESULT:      -7.5      0.000      0.000
REMARK  6 active torsions:
REMARK  status: ('A' for Active; 'I' for Inactive)
REMARK    1  A    between atoms: C_3  and  C_1 
REMARK    2  A    between atoms: N_9  and  C_3 
REMARK    3  A    between atoms: C_13  and  C_3 
REMARK    4  A    between atoms: N_4  and  C_10 
REMARK    5  A    between atoms: C_19  and  C_8 
REMARK    6  A    between atoms: C_15  and  N_9 
ROOT
ATOM      1  C   UNL d   1      53.431  31.934  53.410  0.00  0.00     0.125 C 
ENDROOT
BRANCH   1   2
ATOM      2  C   UNL d   1      53.942  32.457  53.824  0.00  0.00     0.161 A 
ATOM      3  C   UNL d   1      54.663  32.673  53.510  0.00  0.00     0.258 A 
ATOM      4  C   UNL d   1      55.160  33.191  53.930  0.00  0.00     0.238 A 
ATOM      5  O   UNL d   1      54.916  32.379  52.763  0.00  0.00    -0.281 OA
ATOM      6  O   UNL d   1      55.881  33.407  53.616  0.00  0.00    -0.283 OA
ATOM      7  C   UNL d   1      54.923  33.486  54.664  0.00  0.00     0.073 A 
ATOM      8  C   UNL d   1      54.201  33.270  54.978  0.00  0.00     0.146 A 
ATOM      9  O   UNL d   1      53.706  32.756  54.564  0.00  0.00    -0.299 OA
BRANCH   8  10
ATOM     10  C   UNL d   1      53.966  33.569  55.717  0.00  0.00     0.259 C 
ATOM     11  O   UNL d   1      53.684  34.336  55.795  0.00  0.00    -0.281 OA
ENDBRANCH   8  10
ENDBRANCH   1   2
BRANCH   1  12
ATOM     12  N   UNL d   1      52.970  32.203  52.792  0.00  0.00    -0.242 NA
BRANCH  12  13
ATOM     13  C   UNL d   1      52.246  32.541  52.933  0.00  0.00     0.083 A 
ATOM     14  C   UNL d   1      52.136  33.351  52.783  0.00  0.00     0.043 A 
ATOM     15  C   UNL d   1      51.400  33.705  52.924  0.00  0.00     0.128 A 
ATOM     16  C   UNL d   1      50.781  33.258  53.210  0.00  0.00     0.024 A 
ATOM     17  C   UNL d   1      50.888  32.450  53.360  0.00  0.00     0.003 A 
ATOM     18  C   UNL d   1      51.626  32.093  53.220  0.00  0.00     0.019 A 
BRANCH  15  19
ATOM     19  N   UNL d   1      51.282  34.509  52.778  0.00  0.00    -0.114 N 
ATOM     20  O   UNL d   1      51.615  35.121  53.239  0.00  0.00    -0.532 OA
ATOM     21  O   UNL d   1      50.825  34.806  52.166  0.00  0.00    -0.532 OA
ENDBRANCH  15  19
ENDBRANCH  12  13
ENDBRANCH   1  12
BRANCH   1  22
ATOM     22  C   UNL d   1      53.399  31.137  53.635  0.00  0.00     0.101 A 
ATOM     23  N   UNL d   1      53.263  30.933  54.429  0.00  0.00    -0.242 NA
ATOM     24  C   UNL d   1      53.231  30.138  54.651  0.00  0.00     0.099 A 
ATOM     25  C   UNL d   1      53.333  29.553  54.092  0.00  0.00     0.021 A 
ATOM     26  C   UNL d   1      53.465  29.766  53.316  0.00  0.00     0.003 A 
ATOM     27  C   UNL d   1      53.498  30.541  53.086  0.00  0.00     0.021 A 
ENDBRANCH   1  22
TORSDOF 6
ENDMDL
MODEL 2
REMARK VINA RESULT:      -6.9      1.285      2.669
REMARK  6 active torsions:
REMARK  status: ('A' for Active; 'I' for Inactive)
REMARK    1  A    between atoms: C_3  and  C_1 
REMARK    2  A    between atoms: N_9  and  C_3 
REMARK    3  A    between atoms: C_13  and  C_3 
REMARK    4  A    between atoms: N_4  and  C_10 
REMARK    5  A    between atoms: C_19  and  C_8 
REMARK    6  A    between atoms: C_15  and  N_9 
ROOT
ATOM      1  C   UNL d   1      53.276  31.961  53.358  0.00  0.00     0.125 C 
ENDROOT
BRANCH   1   2
ATOM      2  C   UNL d   1      53.207  31.130  53.457  0.00  0.00     0.161 A 
ATOM      3  C   UNL d   1      53.194  30.632  52.811  0.00  0.00     0.258 A 
ATOM      4  C   UNL d   1      53.126  29.810  52.923  0.00  0.00     0.238 A 
ATOM      5  O   UNL d   1      53.248  30.935  52.028  0.00  0.00    -0.281 OA
ATOM      6  O   UNL d   1      53.112  29.312  52.277  0.00  0.00    -0.283 OA
ATOM      7  C   UNL d   1      53.072  29.500  53.686  0.00  0.00     0.073 A 
ATOM      8  C   UNL d   1      53.085  29.998  54.332  0.00  0.00     0.146 A 
ATOM      9  O   UNL d   1      53.153  30.814  54.225  0.00  0.00    -0.299 OA
BRANCH   8  10
ATOM     10  C   UNL d   1      53.030  29.683  55.100  0.00  0.00     0.259 C 
ATOM     11  O   UNL d   1      53.180  28.888  55.243  0.00  0.00    -0.281 OA
ENDBRANCH   8  10
ENDBRANCH   1   2
BRANCH   1  12
ATOM     12  N   UNL d   1      52.821  32.355  52.808  0.00  0.00    -0.242 NA
BRANCH  12  13
ATOM     13  C   UNL d   1      52.142  32.739  53.030  0.00  0.00     0.083 A 
ATOM     14  C   UNL d   1      52.121  33.571  53.024  0.00  0.00     0.043 A 
ATOM     15  C   UNL d   1      51.432  33.972  53.249  0.00  0.00     0.128 A 
ATOM     16  C   UNL d   1      50.772  33.551  53.479  0.00  0.00     0.024 A 
ATOM     17  C   UNL d   1      50.791  32.722  53.486  0.00  0.00     0.003 A 
ATOM     18  C   UNL d   1      51.481  32.318  53.260  0.00  0.00     0.019 A 
BRANCH  15  19
ATOM     19  N   UNL d   1      51.402  34.797  53.246  0.00  0.00    -0.114 N 
ATOM     20  O   UNL d   1      51.993  35.287  53.576  0.00  0.00    -0.532 OA
ATOM     21  O   UNL d   1      50.791  35.236  52.921  0.00  0.00    -0.532 OA
ENDBRANCH  15  19
ENDBRANCH  12  13
ENDBRANCH   1  12
BRANCH   1  22
ATOM     22  C   UNL d   1      53.814  32.381  53.828  0.00  0.00     0.101 A 
ATOM     23  N   UNL d   1      53.666  32.487  54.640  0.00  0.00    -0.242 NA
ATOM     24  C   UNL d   1      54.203  32.906  55.106  0.00  0.00     0.099 A 
ATOM     25  C   UNL d   1      54.879  33.217  54.772  0.00  0.00     0.021 A 
ATOM     26  C   UNL d   1      55.013  33.107  53.975  0.00  0.00     0.003 A 
ATOM     27  C   UNL d   1      54.494  32.698  53.508  0.00  0.00     0.021 A 
ENDBRANCH   1  22
TORSDOF 6
ENDMDL
MODEL 3
REMARK VINA RESULT:      -6.8      1.304      3.157
REMARK  6 active torsions:
REMARK  status: ('A' for Active; 'I' for Inactive)
REMARK    1  A    between atoms: C_3  and  C_1 
REMARK    2  A    between atoms: N_9  and  C_3 
REMARK    3  A    between atoms: C_13  and  C_3 
REMARK    4  A    between atoms: N_4  and  C_10 
REMARK    5  A    between atoms: C_19  and  C_8 
REMARK    6  A    between atoms: C_15  and  N_9 
ROOT
ATOM      1  C   UNL d   1      52.982  32.681  53.118  0.00  0.00     0.125 C 
ENDROOT
BRANCH   1   2
ATOM      2  C   UNL d   1      53.623  32.868  53.627  0.00  0.00     0.161 A 
ATOM      3  C   UNL d   1      54.352  33.072  53.324  0.00  0.00     0.258 A 
ATOM      4  C   UNL d   1      54.979  33.256  53.840  0.00  0.00     0.238 A 
ATOM      5  O   UNL d   1      54.484  33.101  52.493  0.00  0.00    -0.281 OA
ATOM      6  O   UNL d   1      55.708  33.460  53.536  0.00  0.00    -0.283 OA
ATOM      7  C   UNL d   1      54.862  33.232  54.656  0.00  0.00     0.073 A 
ATOM      8  C   UNL d   1      54.133  33.028  54.960  0.00  0.00     0.146 A 
ATOM      9  O   UNL d   1      53.509  32.845  54.451  0.00  0.00    -0.299 OA
BRANCH   8  10
ATOM     10  C   UNL d   1      54.019  33.004  55.783  0.00  0.00     0.259 C 
ATOM     11  O   UNL d   1      54.098  32.303  56.203  0.00  0.00    -0.281 OA
ENDBRANCH   8  10
ENDBRANCH   1   2
BRANCH   1  12
ATOM     12  N   UNL d   1      52.982  31.990  52.684  0.00  0.00    -0.242 NA
BRANCH  12  13
ATOM     13  C   UNL d   1      52.714  31.296  53.009  0.00  0.00     0.083 A 
ATOM     14  C   UNL d   1      53.262  30.733  53.281  0.00  0.00     0.043 A 
ATOM     15  C   UNL d   1      52.998  30.022  53.615  0.00  0.00     0.128 A 
ATOM     16  C   UNL d   1      52.198  29.873  53.677  0.00  0.00     0.024 A 
ATOM     17  C   UNL d   1      51.650  30.434  53.406  0.00  0.00     0.003 A 
ATOM     18  C   UNL d   1      51.914  31.147  53.071  0.00  0.00     0.019 A 
BRANCH  15  19
ATOM     19  N   UNL d   1      53.534  29.457  53.887  0.00  0.00    -0.114 N 
ATOM     20  O   UNL d   1      53.334  28.840  54.414  0.00  0.00    -0.532 OA
ATOM     21  O   UNL d   1      54.326  29.431  53.677  0.00  0.00    -0.532 OA
ENDBRANCH  15  19
ENDBRANCH  12  13
ENDBRANCH   1  12
BRANCH   1  22
ATOM     22  C   UNL d   1      52.345  33.207  53.059  0.00  0.00     0.101 A 
ATOM     23  N   UNL d   1      51.831  33.315  53.704  0.00  0.00    -0.242 NA
ATOM     24  C   UNL d   1      51.197  33.839  53.644  0.00  0.00     0.099 A 
ATOM     25  C   UNL d   1      51.072  34.253  52.952  0.00  0.00     0.021 A 
ATOM     26  C   UNL d   1      51.582  34.138  52.325  0.00  0.00     0.003 A 
ATOM     27  C   UNL d   1      52.208  33.627  52.373  0.00  0.00     0.021 A 
ENDBRANCH   1  22
TORSDOF 6
ENDMDL
MODEL 4
REMARK VINA RESULT:      -6.8      1.434      3.530
REMARK  6 active torsions:
REMARK  status: ('A' for Active; 'I' for Inactive)
REMARK    1  A    between atoms: C_3  and  C_1 
REMARK    2  A    between atoms: N_9  and  C_3 
REMARK    3  A    between atoms: C_13  and  C_3 
REMARK    4  A    between atoms: N_4  and  C_10 
REMARK    5  A    between atoms: C_19  and  C_8 
REMARK    6  A    between atoms: C_15  and  N_9 
ROOT
ATOM      1  C   UNL d   1      53.562  32.744  53.555  0.00  0.00     0.125 C 
ENDROOT
BRANCH   1   2
ATOM      2  C   UNL d   1      52.914  33.210  53.294  0.00  0.00     0.161 A 
ATOM      3  C   UNL d   1      53.004  33.748  52.687  0.00  0.00     0.258 A 
ATOM      4  C   UNL d   1      52.353  34.203  52.438  0.00  0.00     0.238 A 
ATOM      5  O   UNL d   1      53.747  33.852  52.305  0.00  0.00    -0.281 OA
ATOM      6  O   UNL d   1      52.443  34.742  51.831  0.00  0.00    -0.283 OA
ATOM      7  C   UNL d   1      51.619  34.111  52.804  0.00  0.00     0.073 A 
ATOM      8  C   UNL d   1      51.530  33.573  53.411  0.00  0.00     0.146 A 
ATOM      9  O   UNL d   1      52.173  33.119  53.660  0.00  0.00    -0.299 OA
BRANCH   8  10
ATOM     10  C   UNL d   1      50.789  33.482  53.777  0.00  0.00     0.259 C 
ATOM     11  O   UNL d   1      50.162  33.127  53.384  0.00  0.00    -0.281 OA
ENDBRANCH   8  10
ENDBRANCH   1   2
BRANCH   1  12
ATOM     12  N   UNL d   1      53.810  32.096  53.126  0.00  0.00    -0.242 NA
BRANCH  12  13
ATOM     13  C   UNL d   1      53.417  31.388  53.181  0.00  0.00     0.083 A 
ATOM     14  C   UNL d   1      53.591  30.872  53.809  0.00  0.00     0.043 A 
ATOM     15  C   UNL d   1      53.195  30.146  53.874  0.00  0.00     0.128 A 
ATOM     16  C   UNL d   1      52.633  29.938  53.321  0.00  0.00     0.024 A 
ATOM     17  C   UNL d   1      52.458  30.452  52.694  0.00  0.00     0.003 A 
ATOM     18  C   UNL d   1      52.855  31.180  52.628  0.00  0.00     0.019 A 
BRANCH  15  19
ATOM     19  N   UNL d   1      53.361  29.627  54.494  0.00  0.00    -0.114 N 
ATOM     20  O   UNL d   1      53.647  28.849  54.387  0.00  0.00    -0.532 OA
ATOM     21  O   UNL d   1      53.266  29.808  55.287  0.00  0.00    -0.532 OA
ENDBRANCH  15  19
ENDBRANCH  12  13
ENDBRANCH   1  12
BRANCH   1  22
ATOM     22  C   UNL d   1      53.951  32.950  54.257  0.00  0.00     0.101 A 
ATOM     23  N   UNL d   1      53.540  32.942  54.980  0.00  0.00    -0.242 NA
ATOM     24  C   UNL d   1      53.930  33.147  55.678  0.00  0.00     0.099 A 
ATOM     25  C   UNL d   1      54.718  33.358  55.661  0.00  0.00     0.021 A 
ATOM     26  C   UNL d   1      55.110  33.362  54.946  0.00  0.00     0.003 A 
ATOM     27  C   UNL d   1      54.739  33.163  54.255  0.00  0.00     0.021 A 
ENDBRANCH   1  22
TORSDOF 6
ENDMDL
MODEL 5
REMARK VINA RESULT:      -6.7      1.367      3.524
REMARK  6 active torsions:
REMARK  status: ('A' for Active; 'I' for Inactive)
REMARK    1  A    between atoms: C_3  and  C_1 
REMARK    2  A    between atoms: N_9  and  C_3 
REMARK    3  A    between atoms: C_13  and  C_3 
REMARK    4  A    between atoms: N_4  and  C_10 
REMARK    5  A    between atoms: C_19  and  C_8 
REMARK    6  A    between atoms: C_15  and  N_9 
ROOT
ATOM      1  C   UNL d   1      52.885  32.884  53.827  0.00  0.00     0.125 C 
ENDROOT
BRANCH   1   2
ATOM      2  C   UNL d   1      53.665  33.117  54.031  0.00  0.00     0.161 A 
ATOM      3  C   UNL d   1      53.842  33.370  54.786  0.00  0.00     0.258 A 
ATOM      4  C   UNL d   1      54.620  33.599  54.975  0.00  0.00     0.238 A 
ATOM      5  O   UNL d   1      53.250  33.404  55.383  0.00  0.00    -0.281 OA
ATOM      6  O   UNL d   1      54.797  33.852  55.730  0.00  0.00    -0.283 OA
ATOM      7  C   UNL d   1      55.211  33.570  54.399  0.00  0.00     0.073 A 
ATOM      8  C   UNL d   1      55.033  33.317  53.643  0.00  0.00     0.146 A 
ATOM      9  O   UNL d   1      54.263  33.090  53.453  0.00  0.00    -0.299 OA
BRANCH   8  10
ATOM     10  C   UNL d   1      55.631  33.289  53.065  0.00  0.00     0.259 C 
ATOM     11  O   UNL d   1      55.939  32.573  52.808  0.00  0.00    -0.281 OA
ENDBRANCH   8  10
ENDBRANCH   1   2
BRANCH   1  12
ATOM     12  N   UNL d   1      52.584  32.168  54.079  0.00  0.00    -0.242 NA
BRANCH  12  13
ATOM     13  C   UNL d   1      52.742  31.486  53.668  0.00  0.00     0.083 A 
ATOM     14  C   UNL d   1      53.036  30.823  54.075  0.00  0.00     0.043 A 
ATOM     15  C   UNL d   1      53.200  30.122  53.664  0.00  0.00     0.128 A 
ATOM     16  C   UNL d   1      53.072  30.081  52.859  0.00  0.00     0.024 A 
ATOM     17  C   UNL d   1      52.779  30.741  52.453  0.00  0.00     0.003 A 
ATOM     18  C   UNL d   1      52.614  31.445  52.863  0.00  0.00     0.019 A 
BRANCH  15  19
ATOM     19  N   UNL d   1      53.492  29.458  54.059  0.00  0.00    -0.114 N 
ATOM     20  O   UNL d   1      53.021  28.941  54.514  0.00  0.00    -0.532 OA
ATOM     21  O   UNL d   1      54.278  29.225  54.053  0.00  0.00    -0.532 OA
ENDBRANCH  15  19
ENDBRANCH  12  13
ENDBRANCH   1  12
BRANCH   1  22
ATOM     22  C   UNL d   1      52.419  33.390  53.366  0.00  0.00     0.101 A 
ATOM     23  N   UNL d   1      52.680  33.628  52.613  0.00  0.00    -0.242 NA
ATOM     24  C   UNL d   1      52.214  34.132  52.155  0.00  0.00     0.099 A 
ATOM     25  C   UNL d   1      51.496  34.398  52.439  0.00  0.00     0.021 A 
ATOM     26  C   UNL d   1      51.251  34.157  53.179  0.00  0.00     0.003 A 
ATOM     27  C   UNL d   1      51.699  33.663  53.637  0.00  0.00     0.021 A 
ENDBRANCH   1  22
TORSDOF 6
ENDMDL
MODEL 6
REMARK VINA RESULT:      -6.4      1.482      3.362
REMARK  6 active torsions:
REMARK  status: ('A' for Active; 'I' for Inactive)
REMARK    1  A    between atoms: C_3  and  C_1 
REMARK    2  A    between atoms: N_9  and  C_3 
REMARK    3  A    between atoms: C_13  and  C_3 
REMARK    4  A    between atoms: N_4  and  C_10 
REMARK    5  A    between atoms: C_19  and  C_8 
REMARK    6  A    between atoms: C_15  and  N_9 
ROOT
ATOM      1  C   UNL d   1      52.916  32.416  53.161  0.00  0.00     0.125 C 
ENDROOT
BRANCH   1   2
ATOM      2  C   UNL d   1      52.953  31.582  53.251  0.00  0.00     0.161 A 
ATOM      3  C   UNL d   1      52.997  31.093  52.599  0.00  0.00     0.258 A 
ATOM      4  C   UNL d   1      53.034  30.268  52.702  0.00  0.00     0.238 A 
ATOM      5  O   UNL d   1      53.008  31.409  51.819  0.00  0.00    -0.281 OA
ATOM      6  O   UNL d   1      53.078  29.779  52.051  0.00  0.00    -0.283 OA
ATOM      7  C   UNL d   1      53.024  29.946  53.462  0.00  0.00     0.073 A 
ATOM      8  C   UNL d   1      52.980  30.435  54.114  0.00  0.00     0.146 A 
ATOM      9  O   UNL d   1      52.944  31.253  54.016  0.00  0.00    -0.299 OA
BRANCH   8  10
ATOM     10  C   UNL d   1      52.970  30.107  54.878  0.00  0.00     0.259 C 
ATOM     11  O   UNL d   1      53.063  29.299  54.994  0.00  0.00    -0.281 OA
ENDBRANCH   8  10
ENDBRANCH   1   2
BRANCH   1  12
ATOM     12  N   UNL d   1      53.598  32.862  53.110  0.00  0.00    -0.242 NA
BRANCH  12  13
ATOM     13  C   UNL d   1      53.920  33.203  53.771  0.00  0.00     0.083 A 
ATOM     14  C   UNL d   1      53.598  33.912  54.063  0.00  0.00     0.043 A 
ATOM     15  C   UNL d   1      53.921  34.269  54.738  0.00  0.00     0.128 A 
ATOM     16  C   UNL d   1      54.555  33.924  55.118  0.00  0.00     0.024 A 
ATOM     17  C   UNL d   1      54.877  33.217  54.828  0.00  0.00     0.003 A 
ATOM     18  C   UNL d   1      54.555  32.858  54.151  0.00  0.00     0.019 A 
BRANCH  15  19
ATOM     19  N   UNL d   1      53.608  34.973  55.036  0.00  0.00    -0.114 N 
ATOM     20  O   UNL d   1      53.594  35.693  54.613  0.00  0.00    -0.532 OA
ATOM     21  O   UNL d   1      53.275  35.053  55.780  0.00  0.00    -0.532 OA
ENDBRANCH  15  19
ENDBRANCH  12  13
ENDBRANCH   1  12
BRANCH   1  22
ATOM     22  C   UNL d   1      52.175  32.787  53.125  0.00  0.00     0.101 A 
ATOM     23  N   UNL d   1      51.607  32.644  53.715  0.00  0.00    -0.242 NA
ATOM     24  C   UNL d   1      50.871  33.014  53.678  0.00  0.00     0.099 A 
ATOM     25  C   UNL d   1      50.698  33.520  53.062  0.00  0.00     0.021 A 
ATOM     26  C   UNL d   1      51.264  33.653  52.489  0.00  0.00     0.003 A 
ATOM     27  C   UNL d   1      51.989  33.296  52.515  0.00  0.00     0.021 A 
ENDBRANCH   1  22
TORSDOF 6
ENDMDL
MODEL 7
REMARK VINA RESULT:      -6.3      1.393      3.041
REMARK  6 active torsions:
REMARK  status: ('A' for Active; 'I' for Inactive)
REMARK    1  A    between atoms: C_3  and  C_1 
REMARK    2  A    between atoms: N_9  and  C_3 
REMARK    3  A    between atoms: C_13  and  C_3 
REMARK    4  A    between atoms: N_4  and  C_10 
REMARK    5  A    between atoms: C_19  and  C_8 
REMARK    6  A    between atoms: C_15  and  N_9 
ROOT
ATOM      1  C   UNL d   1      53.633  32.840  54.337  0.00  0.00     0.125 C 
ENDROOT
BRANCH   1   2
ATOM      2  C   UNL d   1      53.523  32.035  54.126  0.00  0.00     0.161 A 
ATOM      3  C   UNL d   1      53.469  31.456  54.699  0.00  0.00     0.258 A 
ATOM      4  C   UNL d   1      53.361  30.662  54.477  0.00  0.00     0.238 A 
ATOM      5  O   UNL d   1      53.522  31.649  55.517  0.00  0.00    -0.281 OA
ATOM      6  O   UNL d   1      53.307  30.083  55.050  0.00  0.00    -0.283 OA
ATOM      7  C   UNL d   1      53.307  30.460  53.678  0.00  0.00     0.073 A 
ATOM      8  C   UNL d   1      53.361  31.038  53.105  0.00  0.00     0.146 A 
ATOM      9  O   UNL d   1      53.469  31.827  53.322  0.00  0.00    -0.299 OA
BRANCH   8  10
ATOM     10  C   UNL d   1      53.307  30.831  52.302  0.00  0.00     0.259 C 
ATOM     11  O   UNL d   1      52.845  30.198  52.057  0.00  0.00    -0.281 OA
ENDBRANCH   8  10
ENDBRANCH   1   2
BRANCH   1  12
ATOM     12  N   UNL d   1      52.996  33.311  54.531  0.00  0.00    -0.242 NA
BRANCH  12  13
ATOM     13  C   UNL d   1      52.598  33.727  53.959  0.00  0.00     0.083 A 
ATOM     14  C   UNL d   1      51.810  33.528  53.783  0.00  0.00     0.043 A 
ATOM     15  C   UNL d   1      51.395  33.946  53.200  0.00  0.00     0.128 A 
ATOM     16  C   UNL d   1      51.761  34.554  52.797  0.00  0.00     0.024 A 
ATOM     17  C   UNL d   1      52.546  34.753  52.971  0.00  0.00     0.003 A 
ATOM     18  C   UNL d   1      52.963  34.334  53.555  0.00  0.00     0.019 A 
BRANCH  15  19
ATOM     19  N   UNL d   1      50.612  33.757  53.019  0.00  0.00    -0.114 N 
ATOM     20  O   UNL d   1      50.040  34.317  52.779  0.00  0.00    -0.532 OA
ATOM     21  O   UNL d   1      50.300  33.000  53.051  0.00  0.00    -0.532 OA
ENDBRANCH  15  19
ENDBRANCH  12  13
ENDBRANCH   1  12
BRANCH   1  22
ATOM     22  C   UNL d   1      54.399  33.155  54.346  0.00  0.00     0.101 A 
ATOM     23  N   UNL d   1      54.871  33.125  53.662  0.00  0.00    -0.242 NA
ATOM     24  C   UNL d   1      55.634  33.440  53.673  0.00  0.00     0.099 A 
ATOM     25  C   UNL d   1      55.927  33.780  54.354  0.00  0.00     0.021 A 
ATOM     26  C   UNL d   1      55.454  33.803  55.019  0.00  0.00     0.003 A 
ATOM     27  C   UNL d   1      54.705  33.498  55.020  0.00  0.00     0.021 A 
ENDBRANCH   1  22
TORSDOF 6
ENDMDL
MODEL 8
REMARK VINA RESULT:      -5.6      1.474      3.066
REMARK  6 active torsions:
REMARK  status: ('A' for Active; 'I' for Inactive)
REMARK    1  A    between atoms: C_3  and  C_1 
REMARK    2  A    between atoms: N_9  and  C_3 
REMARK    3  A    between atoms: C_13  and  C_3 
REMARK    4  A    between atoms: N_4  and  C_10 
REMARK    5  A    between atoms: C_19  and  C_8 
REMARK    6  A    between atoms: C_15  and  N_9 
ROOT
ATOM      1  C   UNL d   1      52.782  32.621  53.035  0.00  0.00     0.125 C 
ENDROOT
BRANCH   1   2
ATOM      2  C   UNL d   1      52.120  33.103  52.852  0.00  0.00     0.161 A 
ATOM      3  C   UNL d   1      52.096  33.534  52.159  0.00  0.00     0.258 A 
ATOM      4  C   UNL d   1      51.434  34.009  51.990  0.00  0.00     0.238 A 
ATOM      5  O   UNL d   1      52.733  33.508  51.610  0.00  0.00    -0.281 OA
ATOM      6  O   UNL d   1      51.410  34.439  51.297  0.00  0.00    -0.283 OA
ATOM      7  C   UNL d   1      50.803  34.043  52.520  0.00  0.00     0.073 A 
ATOM      8  C   UNL d   1      50.827  33.612  53.213  0.00  0.00     0.146 A 
ATOM      9  O   UNL d   1      51.482  33.141  53.385  0.00  0.00    -0.299 OA
BRANCH   8  10
ATOM     10  C   UNL d   1      50.190  33.649  53.746  0.00  0.00     0.259 C 
ATOM     11  O   UNL d   1      49.756  34.339  53.841  0.00  0.00    -0.281 OA
ENDBRANCH   8  10
ENDBRANCH   1   2
BRANCH   1  12
ATOM     12  N   UNL d   1      53.514  32.952  53.180  0.00  0.00    -0.242 NA
BRANCH  12  13
ATOM     13  C   UNL d   1      53.718  33.196  53.926  0.00  0.00     0.083 A 
ATOM     14  C   UNL d   1      53.505  33.959  54.180  0.00  0.00     0.043 A 
ATOM     15  C   UNL d   1      53.709  34.217  54.941  0.00  0.00     0.128 A 
ATOM     16  C   UNL d   1      54.120  33.722  55.443  0.00  0.00     0.024 A 
ATOM     17  C   UNL d   1      54.332  32.962  55.191  0.00  0.00     0.003 A 
ATOM     18  C   UNL d   1      54.129  32.701  54.428  0.00  0.00     0.019 A 
BRANCH  15  19
ATOM     19  N   UNL d   1      53.502  34.973  55.201  0.00  0.00    -0.114 N 
ATOM     20  O   UNL d   1      53.531  35.656  54.722  0.00  0.00    -0.532 OA
ATOM     21  O   UNL d   1      53.244  35.146  55.960  0.00  0.00    -0.532 OA
ENDBRANCH  15  19
ENDBRANCH  12  13
ENDBRANCH   1  12
BRANCH   1  22
ATOM     22  C   UNL d   1      52.687  31.798  53.069  0.00  0.00     0.101 A 
ATOM     23  N   UNL d   1      52.109  31.465  53.566  0.00  0.00    -0.242 NA
ATOM     24  C   UNL d   1      52.015  30.646  53.598  0.00  0.00     0.099 A 
ATOM     25  C   UNL d   1      52.489  30.161  53.143  0.00  0.00     0.021 A 
ATOM     26  C   UNL d   1      53.052  30.500  52.660  0.00  0.00     0.003 A 
ATOM     27  C   UNL d   1      53.153  31.302  52.620  0.00  0.00     0.021 A 
ENDBRANCH   1  22
TORSDOF 6
ENDMDL
