MODEL 1
REMARK VINA RESULT:      -6.0      0.000      0.000
REMARK  2 active torsions:
REMARK  status: ('A' for Active; 'I' for Inactive)
REMARK    1  A    between atoms: C_3  and  C_1 
REMARK       I    between atoms: C_2  and  N_4 
REMARK    2  A    between atoms: N_4  and  C_12 
ROOT
ATOM      1  C   UNL d   1     -42.044-122.186 -54.924  0.00  0.00     0.072 A 
ATOM      2  C   UNL d   1     -41.395-122.685 -54.813  0.00  0.00     0.005 A 
ATOM      3  C   UNL d   1     -42.540-122.005 -54.289  0.00  0.00     0.005 A 
ATOM      4  C   UNL d   1     -41.740-122.820 -53.431  0.00  0.00     0.100 A 
ATOM      5  C   UNL d   1     -41.244-123.001 -54.066  0.00  0.00     0.020 A 
ATOM      6  C   UNL d   1     -42.388-122.322 -53.542  0.00  0.00     0.020 A 
ENDROOT
BRANCH   1   7
ATOM      7  C   UNL d   1     -42.198-121.867 -55.673  0.00  0.00     0.419 C 
ATOM      8  F   UNL d   1     -42.336-121.577 -56.353  0.00  0.00    -0.166 F 
ATOM      9  F   UNL d   1     -42.760-122.128 -56.277  0.00  0.00    -0.166 F 
ATOM     10  F   UNL d   1     -41.838-121.184 -56.059  0.00  0.00    -0.166 F 
ENDBRANCH   1   7
BRANCH   4  11
ATOM     11  N   UNL d   1     -41.592-123.135 -52.681  0.00  0.00    -0.056 NA
ATOM     12  C   UNL d   1     -41.289-122.655 -52.077  0.00  0.00     0.787 C 
ATOM     13  N   UNL d   1     -41.140-122.966 -51.328  0.00  0.00     0.064 N 
ATOM     14  N   UNL d   1     -41.137-121.858 -52.233  0.00  0.00     0.064 N 
ENDBRANCH   4  11
TORSDOF 2
ENDMDL
MODEL 2
REMARK VINA RESULT:      -4.5      0.998      1.470
REMARK  2 active torsions:
REMARK  status: ('A' for Active; 'I' for Inactive)
REMARK    1  A    between atoms: C_3  and  C_1 
REMARK       I    between atoms: C_2  and  N_4 
REMARK    2  A    between atoms: N_4  and  C_12 
ROOT
ATOM      1  C   UNL d   1     -41.543-122.574 -53.890  0.00  0.00     0.072 A 
ATOM      2  C   UNL d   1     -41.546-121.930 -53.373  0.00  0.00     0.005 A 
ATOM      3  C   UNL d   1     -41.400-123.335 -53.603  0.00  0.00     0.005 A 
ATOM      4  C   UNL d   1     -41.263-122.810 -52.281  0.00  0.00     0.100 A 
ATOM      5  C   UNL d   1     -41.406-122.049 -52.568  0.00  0.00     0.020 A 
ATOM      6  C   UNL d   1     -41.260-123.453 -52.798  0.00  0.00     0.020 A 
ENDROOT
BRANCH   1   7
ATOM      7  C   UNL d   1     -41.683-122.456 -54.699  0.00  0.00     0.419 C 
ATOM      8  F   UNL d   1     -41.810-122.349 -55.432  0.00  0.00    -0.166 F 
ATOM      9  F   UNL d   1     -42.427-122.499 -55.139  0.00  0.00    -0.166 F 
ATOM     10  F   UNL d   1     -41.124-122.257 -55.325  0.00  0.00    -0.166 F 
ENDBRANCH   1   7
BRANCH   4  11
ATOM     11  N   UNL d   1     -41.123-122.933 -51.476  0.00  0.00    -0.056 NA
ATOM     12  C   UNL d   1     -41.667-122.667 -50.910  0.00  0.00     0.787 C 
ATOM     13  N   UNL d   1     -41.531-122.788 -50.105  0.00  0.00     0.064 N 
ATOM     14  N   UNL d   1     -42.352-122.276 -51.160  0.00  0.00     0.064 N 
ENDBRANCH   4  11
TORSDOF 2
ENDMDL
MODEL 3
REMARK VINA RESULT:      -4.5      2.999      3.716
REMARK  2 active torsions:
REMARK  status: ('A' for Active; 'I' for Inactive)
REMARK    1  A    between atoms: C_3  and  C_1 
REMARK       I    between atoms: C_2  and  N_4 
REMARK    2  A    between atoms: N_4  and  C_12 
ROOT
ATOM      1  C   UNL d   1     -41.379-122.949 -52.073  0.00  0.00     0.072 A 
ATOM      2  C   UNL d   1     -41.211-122.175 -52.308  0.00  0.00     0.005 A 
ATOM      3  C   UNL d   1     -41.492-123.539 -52.640  0.00  0.00     0.005 A 
ATOM      4  C   UNL d   1     -41.269-122.583 -53.678  0.00  0.00     0.100 A 
ATOM      5  C   UNL d   1     -41.156-121.993 -53.111  0.00  0.00     0.020 A 
ATOM      6  C   UNL d   1     -41.437-123.355 -53.443  0.00  0.00     0.020 A 
ENDROOT
BRANCH   1   7
ATOM      7  C   UNL d   1     -41.435-123.134 -51.267  0.00  0.00     0.419 C 
ATOM      8  F   UNL d   1     -41.485-123.302 -50.536  0.00  0.00    -0.166 F 
ATOM      9  F   UNL d   1     -41.820-122.696 -50.628  0.00  0.00    -0.166 F 
ATOM     10  F   UNL d   1     -41.123-123.817 -50.842  0.00  0.00    -0.166 F 
ENDBRANCH   1   7
BRANCH   4  11
ATOM     11  N   UNL d   1     -41.215-122.404 -54.484  0.00  0.00    -0.056 NA
ATOM     12  C   UNL d   1     -41.872-122.106 -54.892  0.00  0.00     0.787 C 
ATOM     13  N   UNL d   1     -41.822-121.926 -55.695  0.00  0.00     0.064 N 
ATOM     14  N   UNL d   1     -42.582-121.989 -54.484  0.00  0.00     0.064 N 
ENDBRANCH   4  11
TORSDOF 2
ENDMDL
MODEL 4
REMARK VINA RESULT:      -4.3      4.570      5.533
REMARK  2 active torsions:
REMARK  status: ('A' for Active; 'I' for Inactive)
REMARK    1  A    between atoms: C_3  and  C_1 
REMARK       I    between atoms: C_2  and  N_4 
REMARK    2  A    between atoms: N_4  and  C_12 
ROOT
ATOM      1  C   UNL d   1     -42.259-123.071 -48.945  0.00  0.00     0.072 A 
ATOM      2  C   UNL d   1     -41.566-123.410 -49.240  0.00  0.00     0.005 A 
ATOM      3  C   UNL d   1     -42.787-122.696 -49.458  0.00  0.00     0.005 A 
ATOM      4  C   UNL d   1     -41.931-122.999 -50.561  0.00  0.00     0.100 A 
ATOM      5  C   UNL d   1     -41.403-123.374 -50.049  0.00  0.00     0.020 A 
ATOM      6  C   UNL d   1     -42.623-122.660 -50.266  0.00  0.00     0.020 A 
ENDROOT
BRANCH   1   7
ATOM      7  C   UNL d   1     -42.424-123.106 -48.134  0.00  0.00     0.419 C 
ATOM      8  F   UNL d   1     -42.575-123.139 -47.398  0.00  0.00    -0.166 F 
ATOM      9  F   UNL d   1     -42.094-122.638 -47.485  0.00  0.00    -0.166 F 
ATOM     10  F   UNL d   1     -42.973-123.622 -47.711  0.00  0.00    -0.166 F 
ENDBRANCH   1   7
BRANCH   4  11
ATOM     11  N   UNL d   1     -41.771-122.960 -51.371  0.00  0.00    -0.056 NA
ATOM     12  C   UNL d   1     -41.366-122.310 -51.688  0.00  0.00     0.787 C 
ATOM     13  N   UNL d   1     -41.204-122.268 -52.495  0.00  0.00     0.064 N 
ATOM     14  N   UNL d   1     -41.123-121.701 -51.184  0.00  0.00     0.064 N 
ENDBRANCH   4  11
TORSDOF 2
ENDMDL
MODEL 5
REMARK VINA RESULT:      -4.3      1.707      2.487
REMARK  2 active torsions:
REMARK  status: ('A' for Active; 'I' for Inactive)
REMARK    1  A    between atoms: C_3  and  C_1 
REMARK       I    between atoms: C_2  and  N_4 
REMARK    2  A    between atoms: N_4  and  C_12 
ROOT
ATOM      1  C   UNL d   1     -41.415-122.690 -52.741  0.00  0.00     0.072 A 
ATOM      2  C   UNL d   1     -41.300-122.082 -52.193  0.00  0.00     0.005 A 
ATOM      3  C   UNL d   1     -41.434-123.476 -52.490  0.00  0.00     0.005 A 
ATOM      4  C   UNL d   1     -41.222-123.050 -51.142  0.00  0.00     0.100 A 
ATOM      5  C   UNL d   1     -41.203-122.264 -51.394  0.00  0.00     0.020 A 
ATOM      6  C   UNL d   1     -41.338-123.656 -51.690  0.00  0.00     0.020 A 
ENDROOT
BRANCH   1   7
ATOM      7  C   UNL d   1     -41.512-122.510 -53.545  0.00  0.00     0.419 C 
ATOM      8  F   UNL d   1     -41.600-122.347 -54.273  0.00  0.00    -0.166 F 
ATOM      9  F   UNL d   1     -42.030-121.925 -53.918  0.00  0.00    -0.166 F 
ATOM     10  F   UNL d   1     -41.123-122.857 -54.232  0.00  0.00    -0.166 F 
ENDBRANCH   1   7
BRANCH   4  11
ATOM     11  N   UNL d   1     -41.126-123.235 -50.343  0.00  0.00    -0.056 NA
ATOM     12  C   UNL d   1     -41.730-123.071 -49.799  0.00  0.00     0.787 C 
ATOM     13  N   UNL d   1     -41.638-123.255 -49.000  0.00  0.00     0.064 N 
ATOM     14  N   UNL d   1     -42.430-122.720 -50.066  0.00  0.00     0.064 N 
ENDBRANCH   4  11
TORSDOF 2
ENDMDL
