MODEL 1
REMARK VINA RESULT:     107.2      0.000      0.000
REMARK  1 active torsions:
REMARK  status: ('A' for Active; 'I' for Inactive)
REMARK    1  A    between atoms: C_9  and  C_3 
REMARK       I    between atoms: C_10  and  N_4 
ROOT
ATOM      1  N   UNL d   1     -55.584-100.148 -42.899  0.00  0.00    -0.047 N 
ATOM      2  N   UNL d   1     -55.685-100.080 -43.708  0.00  0.00    -0.188 N 
ATOM      3  C   UNL d   1     -56.039 -99.360 -43.901  0.00  0.00     0.194 A 
ATOM      4  N   UNL d   1     -55.255-100.816 -42.720  0.00  0.00    -0.172 N 
ATOM      5  N   UNL d   1     -56.176 -98.940 -43.188  0.00  0.00    -0.083 NA
ATOM      6  C   UNL d   1     -55.396-100.753 -44.024  0.00  0.00     0.104 A 
ATOM      7  O   UNL d   1     -55.888 -99.438 -42.559  0.00  0.00    -0.089 OA
ATOM      8  C   UNL d   1     -55.122-101.223 -43.403  0.00  0.00     0.106 A 
ATOM      9  C   UNL d   1     -55.071-101.064 -41.930  0.00  0.00     0.282 C 
ATOM     10  O   UNL d   1     -55.244-100.582 -41.296  0.00  0.00    -0.265 OA
ATOM     11  C   UNL d   1     -55.338-101.020 -44.812  0.00  0.00     0.021 A 
ATOM     12  C   UNL d   1     -54.794-101.953 -43.571  0.00  0.00     0.021 A 
ATOM     13  C   UNL d   1     -54.712-101.804 -41.795  0.00  0.00     0.068 C 
ATOM     14  C   UNL d   1     -54.726-102.234 -44.323  0.00  0.00     0.002 A 
ATOM     15  C   UNL d   1     -55.001-101.766 -44.970  0.00  0.00     0.002 A 
ENDROOT
BRANCH   3  16
ATOM     16  C   UNL d   1     -56.197 -99.165 -44.676  0.00  0.00     0.038 A 
ATOM     17  C   UNL d   1     -55.606 -99.076 -45.205  0.00  0.00     0.003 A 
ATOM     18  C   UNL d   1     -55.795 -98.873 -46.004  0.00  0.00     0.000 A 
ATOM     19  C   UNL d   1     -54.813 -99.176 -44.999  0.00  0.00     0.000 C 
ATOM     20  C   UNL d   1     -55.206 -98.775 -46.575  0.00  0.00     0.000 C 
ATOM     21  C   UNL d   1     -56.550 -98.776 -46.209  0.00  0.00     0.000 A 
ATOM     22  C   UNL d   1     -57.141 -98.865 -45.680  0.00  0.00     0.000 A 
ATOM     23  C   UNL d   1     -56.983 -99.060 -44.904  0.00  0.00     0.003 A 
ATOM     24  C   UNL d   1     -57.965 -98.758 -45.909  0.00  0.00     0.000 C 
ATOM     25  C   UNL d   1     -57.594 -99.152 -44.357  0.00  0.00     0.000 C 
ENDBRANCH   3  16
TORSDOF 1
ENDMDL
