MODEL 1
REMARK VINA RESULT:       5.3      0.000      0.000
REMARK  4 active torsions:
REMARK  status: ('A' for Active; 'I' for Inactive)
REMARK    1  A    between atoms: C_9  and  N_1 
REMARK    2  A    between atoms: C_6  and  C_2 
REMARK       I    between atoms: N_8  and  C_6 
REMARK    3  A    between atoms: C_15  and  N_8 
REMARK    4  A    between atoms: C_13  and  C_9 
ROOT
ATOM      1  N   UNL d   1     -41.384-122.046 -52.398  0.00  0.00    -0.258 N 
ATOM      2  C   UNL d   1     -41.874-122.011 -51.136  0.00  0.00     0.114 A 
ATOM      3  C   UNL d   1     -41.631-122.424 -51.755  0.00  0.00     0.270 A 
ATOM      4  C   UNL d   1     -41.380-121.265 -52.422  0.00  0.00     0.150 A 
ATOM      5  C   UNL d   1     -41.872-121.229 -51.156  0.00  0.00     0.013 A 
ATOM      6  C   UNL d   1     -41.625-120.860 -51.799  0.00  0.00     0.035 A 
ATOM      7  N   UNL d   1     -41.137-120.899 -53.055  0.00  0.00    -0.227 NA
ATOM      8  O   UNL d   1     -41.729-123.062 -51.489  0.00  0.00    -0.266 OA
ATOM      9  C   UNL d   1     -41.624-120.075 -51.816  0.00  0.00     0.005 A 
ATOM     10  C   UNL d   1     -41.132-120.126 -53.083  0.00  0.00     0.101 A 
ATOM     11  C   UNL d   1     -41.376-119.714 -52.463  0.00  0.00     0.021 A 
ENDROOT
BRANCH   2  12
ATOM     12  C   UNL d   1     -42.122-122.384 -50.491  0.00  0.00     0.284 C 
ATOM     13  N   UNL d   1     -41.721-122.710 -49.838  0.00  0.00    -0.208 NA
ATOM     14  O   UNL d   1     -42.725-122.345 -50.648  0.00  0.00    -0.265 OA
BRANCH  13  15
ATOM     15  C   UNL d   1     -42.158-123.085 -49.215  0.00  0.00     0.085 A 
ATOM     16  C   UNL d   1     -41.784-123.293 -48.504  0.00  0.00     0.019 A 
ATOM     17  C   UNL d   1     -42.222-123.658 -47.906  0.00  0.00     0.002 A 
ATOM     18  C   UNL d   1     -43.024-123.814 -48.015  0.00  0.00     0.000 A 
ATOM     19  C   UNL d   1     -43.411-123.613 -48.719  0.00  0.00     0.002 A 
ATOM     20  C   UNL d   1     -42.968-123.244 -49.323  0.00  0.00     0.019 A 
ENDBRANCH  13  15
ENDBRANCH   2  12
BRANCH   1  21
ATOM     21  C   UNL d   1     -41.123-122.482 -53.061  0.00  0.00     0.084 C 
BRANCH  21  22
ATOM     22  C   UNL d   1     -41.550-122.672 -53.503  0.00  0.00     0.018 A 
ATOM     23  C   UNL d   1     -41.767-123.509 -53.502  0.00  0.00     0.004 A 
ATOM     24  C   UNL d   1     -42.338-123.811 -54.080  0.00  0.00     0.030 A 
ATOM     25  C   UNL d   1     -42.688-123.276 -54.654  0.00  0.00     0.140 A 
ATOM     26  C   UNL d   1     -42.479-122.442 -54.665  0.00  0.00     0.030 A 
ATOM     27  F   UNL d   1     -43.244-123.570 -55.218  0.00  0.00    -0.204 F 
ATOM     28  C   UNL d   1     -41.904-122.134 -54.084  0.00  0.00     0.004 A 
ENDBRANCH  21  22
ENDBRANCH   1  21
TORSDOF 4
ENDMDL
