MODEL 1
REMARK VINA RESULT:      -3.7      0.000      0.000
REMARK  4 active torsions:
REMARK  status: ('A' for Active; 'I' for Inactive)
REMARK    1  A    between atoms: N_5  and  C_1 
REMARK    2  A    between atoms: C_9  and  C_4 
REMARK    3  A    between atoms: C_8  and  N_5 
REMARK    4  A    between atoms: O_12  and  C_9 
ROOT
ATOM      1  N   UNL d   1     -41.910-122.721 -52.315  0.00  0.00    -0.222 NA
ENDROOT
BRANCH   1   2
ATOM      2  C   UNL d   1     -41.992-122.466 -53.106  0.00  0.00     0.186 A 
ATOM      3  O   UNL d   1     -42.356-121.779 -53.362  0.00  0.00    -0.255 OA
ATOM      4  C   UNL d   1     -42.328-121.722 -54.167  0.00  0.00     0.301 A 
ATOM      5  O   UNL d   1     -42.642-121.095 -54.633  0.00  0.00    -0.259 OA
ATOM      6  C   UNL d   1     -41.933-122.392 -54.445  0.00  0.00     0.067 A 
ATOM      7  C   UNL d   1     -41.726-122.853 -53.788  0.00  0.00     0.046 A 
ATOM      8  C   UNL d   1     -41.734-122.648 -55.202  0.00  0.00     0.005 A 
ATOM      9  C   UNL d   1     -41.321-123.564 -53.895  0.00  0.00     0.004 A 
ATOM     10  C   UNL d   1     -41.123-123.817 -54.655  0.00  0.00     0.000 A 
ATOM     11  C   UNL d   1     -41.331-123.356 -55.312  0.00  0.00     0.000 A 
ENDBRANCH   1   2
BRANCH   1  12
ATOM     12  C   UNL d   1     -41.643-122.200 -51.696  0.00  0.00     0.089 A 
ATOM     13  C   UNL d   1     -41.639-122.427 -50.949  0.00  0.00     0.081 A 
ATOM     14  C   UNL d   1     -41.380-121.915 -50.359  0.00  0.00     0.007 A 
ATOM     15  C   UNL d   1     -41.123-121.150 -50.573  0.00  0.00     0.000 A 
ATOM     16  C   UNL d   1     -41.133-120.927 -51.364  0.00  0.00     0.002 A 
ATOM     17  C   UNL d   1     -41.393-121.446 -51.937  0.00  0.00     0.019 A 
BRANCH  13  18
ATOM     18  C   UNL d   1     -41.903-123.192 -50.782  0.00  0.00     0.297 C 
ATOM     19  O   UNL d   1     -41.373-123.816 -50.772  0.00  0.00    -0.259 OA
BRANCH  18  20
ATOM     20  O   UNL d   1     -42.704-123.319 -50.627  0.00  0.00    -0.296 OA
ATOM     21  C   UNL d   1     -42.915-123.769 -49.957  0.00  0.00     0.185 C 
ENDBRANCH  18  20
ENDBRANCH  13  18
ENDBRANCH   1  12
TORSDOF 4
ENDMDL
MODEL 2
REMARK VINA RESULT:      -1.3      0.730      4.031
REMARK  4 active torsions:
REMARK  status: ('A' for Active; 'I' for Inactive)
REMARK    1  A    between atoms: N_5  and  C_1 
REMARK    2  A    between atoms: C_9  and  C_4 
REMARK    3  A    between atoms: C_8  and  N_5 
REMARK    4  A    between atoms: O_12  and  C_9 
ROOT
ATOM      1  N   UNL d   1     -41.861-122.097 -53.198  0.00  0.00    -0.222 NA
ENDROOT
BRANCH   1   2
ATOM      2  C   UNL d   1     -41.749-122.345 -52.409  0.00  0.00     0.186 A 
ATOM      3  O   UNL d   1     -41.833-123.107 -52.120  0.00  0.00    -0.255 OA
ATOM      4  C   UNL d   1     -41.680-123.132 -51.328  0.00  0.00     0.301 A 
ATOM      5  O   UNL d   1     -41.708-123.815 -50.836  0.00  0.00    -0.259 OA
ATOM      6  C   UNL d   1     -41.491-122.364 -51.092  0.00  0.00     0.067 A 
ATOM      7  C   UNL d   1     -41.534-121.877 -51.761  0.00  0.00     0.046 A 
ATOM      8  C   UNL d   1     -41.285-122.039 -50.363  0.00  0.00     0.005 A 
ATOM      9  C   UNL d   1     -41.371-121.070 -51.695  0.00  0.00     0.004 A 
ATOM     10  C   UNL d   1     -41.166-120.748 -50.964  0.00  0.00     0.000 A 
ATOM     11  C   UNL d   1     -41.123-121.235 -50.294  0.00  0.00     0.000 A 
ENDBRANCH   1   2
BRANCH   1  12
ATOM     12  C   UNL d   1     -41.692-122.604 -53.861  0.00  0.00     0.089 A 
ATOM     13  C   UNL d   1     -41.901-122.405 -54.587  0.00  0.00     0.081 A 
ATOM     14  C   UNL d   1     -41.733-122.903 -55.220  0.00  0.00     0.007 A 
ATOM     15  C   UNL d   1     -41.336-123.623 -55.073  0.00  0.00     0.000 A 
ATOM     16  C   UNL d   1     -41.124-123.817 -54.304  0.00  0.00     0.002 A 
ATOM     17  C   UNL d   1     -41.297-123.313 -53.687  0.00  0.00     0.019 A 
BRANCH  13  18
ATOM     18  C   UNL d   1     -42.291-121.684 -54.686  0.00  0.00     0.297 C 
ATOM     19  O   UNL d   1     -43.095-121.628 -54.542  0.00  0.00    -0.259 OA
BRANCH  18  20
ATOM     20  O   UNL d   1     -41.862-121.023 -54.932  0.00  0.00    -0.296 OA
ATOM     21  C   UNL d   1     -42.225-120.481 -55.452  0.00  0.00     0.185 C 
ENDBRANCH  18  20
ENDBRANCH  13  18
ENDBRANCH   1  12
TORSDOF 4
ENDMDL
MODEL 3
REMARK VINA RESULT:      -0.8      1.432      4.142
REMARK  4 active torsions:
REMARK  status: ('A' for Active; 'I' for Inactive)
REMARK    1  A    between atoms: N_5  and  C_1 
REMARK    2  A    between atoms: C_9  and  C_4 
REMARK    3  A    between atoms: C_8  and  N_5 
REMARK    4  A    between atoms: O_12  and  C_9 
ROOT
ATOM      1  N   UNL d   1     -42.347-122.754 -50.852  0.00  0.00    -0.222 NA
ENDROOT
BRANCH   1   2
ATOM      2  C   UNL d   1     -42.242-122.871 -50.032  0.00  0.00     0.186 A 
ATOM      3  O   UNL d   1     -41.579-122.676 -49.592  0.00  0.00    -0.255 OA
ATOM      4  C   UNL d   1     -41.681-122.873 -48.816  0.00  0.00     0.301 A 
ATOM      5  O   UNL d   1     -41.123-122.758 -48.195  0.00  0.00    -0.259 OA
ATOM      6  C   UNL d   1     -42.433-123.208 -48.747  0.00  0.00     0.067 A 
ATOM      7  C   UNL d   1     -42.779-123.206 -49.500  0.00  0.00     0.046 A 
ATOM      8  C   UNL d   1     -42.850-123.513 -48.106  0.00  0.00     0.005 A 
ATOM      9  C   UNL d   1     -43.540-123.511 -49.604  0.00  0.00     0.004 A 
ATOM     10  C   UNL d   1     -43.955-123.815 -48.959  0.00  0.00     0.000 A 
ATOM     11  C   UNL d   1     -43.608-123.817 -48.207  0.00  0.00     0.000 A 
ENDBRANCH   1   2
BRANCH   1  12
ATOM     12  C   UNL d   1     -41.923-122.154 -51.283  0.00  0.00     0.089 A 
ATOM     13  C   UNL d   1     -41.620-122.299 -51.988  0.00  0.00     0.081 A 
ATOM     14  C   UNL d   1     -41.212-121.712 -52.395  0.00  0.00     0.007 A 
ATOM     15  C   UNL d   1     -41.128-120.960 -52.042  0.00  0.00     0.000 A 
ATOM     16  C   UNL d   1     -41.453-120.823 -51.299  0.00  0.00     0.002 A 
ATOM     17  C   UNL d   1     -41.854-121.416 -50.909  0.00  0.00     0.019 A 
BRANCH  13  18
ATOM     18  C   UNL d   1     -41.726-123.057 -52.299  0.00  0.00     0.297 C 
ATOM     19  O   UNL d   1     -41.257-123.676 -52.042  0.00  0.00    -0.259 OA
BRANCH  18  20
ATOM     20  O   UNL d   1     -42.310-123.180 -52.870  0.00  0.00    -0.296 OA
ATOM     21  C   UNL d   1     -42.210-123.803 -53.416  0.00  0.00     0.185 C 
ENDBRANCH  18  20
ENDBRANCH  13  18
ENDBRANCH   1  12
TORSDOF 4
ENDMDL
