MODEL 1
REMARK VINA RESULT:      16.5      0.000      0.000
REMARK  8 active torsions:
REMARK  status: ('A' for Active; 'I' for Inactive)
REMARK    1  A    between atoms: S_3  and  C_1 
REMARK    2  A    between atoms: C_7  and  C_2 
REMARK    3  A    between atoms: N_9  and  S_3 
REMARK    4  A    between atoms: C_8  and  C_6 
REMARK    5  A    between atoms: O_21  and  C_7 
REMARK    6  A    between atoms: O_22  and  C_8 
REMARK    7  A    between atoms: C_14  and  N_9 
REMARK    8  A    between atoms: C_10  and  C_14 
ROOT
ATOM      1  C   UNL d   1      46.076 -18.134  43.020  0.00  0.00     0.140 A 
ATOM      2  C   UNL d   1      46.240 -18.874  43.330  0.00  0.00     0.082 A 
ATOM      3  C   UNL d   1      46.356 -19.400  42.701  0.00  0.00     0.018 A 
ATOM      4  S   UNL d   1      46.093 -18.211  42.203  0.00  0.00    -0.069 SA
ATOM      5  C   UNL d   1      46.264 -18.985  42.027  0.00  0.00     0.093 A 
ATOM      6  C   UNL d   1      46.531 -20.190  42.734  0.00  0.00     0.001 C 
ENDROOT
BRANCH   1   7
ATOM      7  S   UNL d   1      45.940 -17.516  43.526  0.00  0.00     0.291 S 
ATOM      8  O   UNL d   1      46.646 -17.698  43.940  0.00  0.00    -0.198 OA
ATOM      9  O   UNL d   1      45.261 -17.327  43.141  0.00  0.00    -0.198 OA
BRANCH   7  10
ATOM     10  N   UNL d   1      45.813 -16.889  44.047  0.00  0.00    -0.156 NA
BRANCH  10  11
ATOM     11  C   UNL d   1      45.920 -16.105  43.804  0.00  0.00     0.119 C 
BRANCH  11  12
ATOM     12  C   UNL d   1      45.600 -15.489  44.249  0.00  0.00     0.049 A 
ATOM     13  S   UNL d   1      45.969 -14.787  44.491  0.00  0.00    -0.085 SA
ATOM     14  C   UNL d   1      45.436 -14.343  44.921  0.00  0.00     0.035 A 
ATOM     15  C   UNL d   1      44.725 -14.761  44.954  0.00  0.00     0.007 A 
ATOM     16  C   UNL d   1      44.832 -15.470  44.536  0.00  0.00     0.009 A 
ENDBRANCH  11  12
ENDBRANCH  10  11
ENDBRANCH   7  10
ENDBRANCH   1   7
BRANCH   2  17
ATOM     17  C   UNL d   1      46.286 -19.082  44.135  0.00  0.00     0.297 C 
ATOM     18  O   UNL d   1      45.995 -18.571  44.709  0.00  0.00    -0.259 OA
BRANCH  17  19
ATOM     19  O   UNL d   1      46.628 -19.805  44.348  0.00  0.00    -0.296 OA
ATOM     20  C   UNL d   1      46.305 -20.249  44.954  0.00  0.00     0.185 C 
ENDBRANCH  17  19
ENDBRANCH   2  17
BRANCH   5  21
ATOM     21  C   UNL d   1      46.337 -19.316  41.248  0.00  0.00     0.302 C 
ATOM     22  O   UNL d   1      46.644 -20.064  41.176  0.00  0.00    -0.259 OA
BRANCH  21  23
ATOM     23  O   UNL d   1      46.098 -18.881  40.583  0.00  0.00    -0.295 OA
ATOM     24  C   UNL d   1      46.623 -18.736  39.963  0.00  0.00     0.185 C 
ENDBRANCH  21  23
ENDBRANCH   5  21
TORSDOF 8
ENDMDL
