MODEL 1
REMARK VINA RESULT:      62.3      0.000      0.000
REMARK  5 active torsions:
REMARK  status: ('A' for Active; 'I' for Inactive)
REMARK    1  A    between atoms: N_2  and  S_1 
REMARK    2  A    between atoms: C_5  and  S_1 
REMARK    3  A    between atoms: S_8  and  C_3 
REMARK    4  A    between atoms: C_18  and  S_8 
REMARK    5  A    between atoms: C_17  and  C_18 
ROOT
ATOM      1  N   UNL d   1     -55.222-100.328 -43.259  0.00  0.00    -0.208 N 
ATOM      2  C   UNL d   1     -55.658 -99.722 -43.630  0.00  0.00     0.189 A 
ATOM      3  N   UNL d   1     -55.441 -98.999 -43.285  0.00  0.00    -0.219 NA
ATOM      4  C   UNL d   1     -54.735 -99.975 -42.682  0.00  0.00     0.114 A 
ATOM      5  C   UNL d   1     -54.872 -99.160 -42.701  0.00  0.00     0.121 A 
ENDROOT
BRANCH   1   6
ATOM      6  S   UNL d   1     -55.270-101.138 -43.437  0.00  0.00     0.273 S 
ATOM      7  O   UNL d   1     -55.358-101.855 -43.847  0.00  0.00    -0.200 OA
ATOM      8  O   UNL d   1     -55.410-100.923 -44.216  0.00  0.00    -0.200 OA
BRANCH   6   9
ATOM      9  C   UNL d   1     -55.130-101.375 -42.655  0.00  0.00     0.104 A 
ATOM     10  C   UNL d   1     -54.870-100.816 -42.106  0.00  0.00     0.014 A 
ATOM     11  C   UNL d   1     -54.733-101.061 -41.329  0.00  0.00     0.012 A 
ATOM     12  C   UNL d   1     -54.853-101.847 -41.108  0.00  0.00     0.058 A 
ATOM     13  C   UNL d   1     -55.113-102.400 -41.661  0.00  0.00     0.012 A 
ATOM     14 CL   UNL d   1     -54.714-102.083 -40.327  0.00  0.00    -0.082 Cl
ATOM     15  C   UNL d   1     -55.250-102.152 -42.442  0.00  0.00     0.014 A 
ENDBRANCH   6   9
ENDBRANCH   1   6
BRANCH   2  16
ATOM     16  S   UNL d   1     -56.215 -99.825 -44.242  0.00  0.00    -0.049 SA
BRANCH  16  17
ATOM     17  C   UNL d   1     -56.646 -99.176 -44.520  0.00  0.00     0.038 C 
BRANCH  17  18
ATOM     18  C   UNL d   1     -57.455 -99.137 -44.389  0.00  0.00     0.007 A 
ATOM     19  C   UNL d   1     -57.977 -98.969 -45.009  0.00  0.00     0.013 A 
ATOM     20  C   UNL d   1     -58.786 -98.931 -44.875  0.00  0.00     0.068 A 
ATOM     21 CL   UNL d   1     -59.287 -98.763 -45.504  0.00  0.00    -0.082 Cl
ATOM     22  C   UNL d   1     -59.079 -99.062 -44.115  0.00  0.00     0.068 A 
ATOM     23  C   UNL d   1     -58.579 -99.229 -43.494  0.00  0.00     0.012 A 
ATOM     24 CL   UNL d   1     -59.893 -99.022 -43.989  0.00  0.00    -0.082 Cl
ATOM     25  C   UNL d   1     -57.756 -99.268 -43.630  0.00  0.00     0.001 A 
ENDBRANCH  17  18
ENDBRANCH  16  17
ENDBRANCH   2  16
TORSDOF 5
ENDMDL
