MODEL 1
REMARK VINA RESULT:      -0.5      0.000      0.000
REMARK  5 active torsions:
REMARK  status: ('A' for Active; 'I' for Inactive)
REMARK    1  A    between atoms: C_5  and  C_1 
REMARK    2  A    between atoms: C_4  and  C_9 
REMARK    3  A    between atoms: N_7  and  C_5 
REMARK    4  A    between atoms: C_10  and  C_5 
REMARK    5  A    between atoms: C_12  and  N_7 
ROOT
ATOM      1  C   UNL d   1      31.543  17.144 -24.412  0.00  0.00     0.086 C 
ENDROOT
BRANCH   1   2
ATOM      2  C   UNL d   1      30.740  17.247 -24.249  0.00  0.00     0.058 A 
ATOM      3  C   UNL d   1      30.264  16.589 -24.101  0.00  0.00     0.214 A 
ATOM      4  C   UNL d   1      29.458  16.699 -23.938  0.00  0.00     0.120 A 
ATOM      5  O   UNL d   1      30.569  15.836 -24.111  0.00  0.00    -0.285 OA
ATOM      6  N   UNL d   1      28.971  16.045 -23.788  0.00  0.00    -0.242 NA
ATOM      7  C   UNL d   1      29.137  17.458 -23.925  0.00  0.00     0.021 A 
ATOM      8  C   UNL d   1      28.171  16.149 -23.626  0.00  0.00     0.082 A 
ATOM      9  C   UNL d   1      27.688  15.496 -23.477  0.00  0.00     0.021 C 
ATOM     10  C   UNL d   1      27.847  16.915 -23.613  0.00  0.00     0.019 A 
ATOM     11  C   UNL d   1      28.337  17.571 -23.764  0.00  0.00     0.003 A 
ATOM     12  C   UNL d   1      29.616  18.118 -24.074  0.00  0.00     0.002 A 
ATOM     13  C   UNL d   1      30.416  18.013 -24.236  0.00  0.00     0.005 A 
ENDBRANCH   1   2
BRANCH   1  14
ATOM     14  N   UNL d   1      31.853  17.731 -24.902  0.00  0.00    -0.245 NA
BRANCH  14  15
ATOM     15  C   UNL d   1      32.305  18.330 -24.597  0.00  0.00     0.081 A 
ATOM     16  C   UNL d   1      32.311  18.472 -23.795  0.00  0.00     0.023 A 
ATOM     17  C   UNL d   1      32.773  19.086 -23.479  0.00  0.00     0.073 A 
ATOM     18  C   UNL d   1      33.232  19.555 -23.989  0.00  0.00     0.004 A 
ATOM     19  C   UNL d   1      33.223  19.407 -24.798  0.00  0.00     0.002 A 
ATOM     20  C   UNL d   1      32.759  18.795 -25.096  0.00  0.00     0.019 A 
BRANCH  17  21
ATOM     21  C   UNL d   1      32.773  19.222 -22.668  0.00  0.00     0.419 C 
ATOM     22  F   UNL d   1      32.780  19.339 -21.926  0.00  0.00    -0.166 F 
ATOM     23  F   UNL d   1      33.241  18.837 -22.064  0.00  0.00    -0.166 F 
ATOM     24  F   UNL d   1      32.313  19.777 -22.209  0.00  0.00    -0.166 F 
ENDBRANCH  17  21
ENDBRANCH  14  15
ENDBRANCH   1  14
BRANCH   1  25
ATOM     25  C   UNL d   1      32.110  16.589 -24.197  0.00  0.00     0.037 A 
ATOM     26  C   UNL d   1      32.212  16.392 -23.395  0.00  0.00     0.100 A 
ATOM     27  N   UNL d   1      32.785  15.832 -23.191  0.00  0.00    -0.242 NA
ATOM     28  C   UNL d   1      33.241  15.478 -23.760  0.00  0.00     0.099 A 
ATOM     29  C   UNL d   1      33.140  15.672 -24.551  0.00  0.00     0.021 A 
ATOM     30  C   UNL d   1      32.577  16.225 -24.773  0.00  0.00     0.005 A 
ENDBRANCH   1  25
TORSDOF 5
ENDMDL
MODEL 2
REMARK VINA RESULT:       2.0      3.598      5.675
REMARK  5 active torsions:
REMARK  status: ('A' for Active; 'I' for Inactive)
REMARK    1  A    between atoms: C_5  and  C_1 
REMARK    2  A    between atoms: C_4  and  C_9 
REMARK    3  A    between atoms: N_7  and  C_5 
REMARK    4  A    between atoms: C_10  and  C_5 
REMARK    5  A    between atoms: C_12  and  N_7 
ROOT
ATOM      1  C   UNL d   1      32.985  22.229 -23.149  0.00  0.00     0.086 C 
ENDROOT
BRANCH   1   2
ATOM      2  C   UNL d   1      33.034  21.422 -22.982  0.00  0.00     0.058 A 
ATOM      3  C   UNL d   1      33.065  20.875 -23.601  0.00  0.00     0.214 A 
ATOM      4  C   UNL d   1      33.114  20.066 -23.426  0.00  0.00     0.120 A 
ATOM      5  O   UNL d   1      33.048  21.116 -24.376  0.00  0.00    -0.285 OA
ATOM      6  N   UNL d   1      33.146  19.509 -24.040  0.00  0.00    -0.242 NA
ATOM      7  C   UNL d   1      33.132  19.811 -22.643  0.00  0.00     0.021 A 
ATOM      8  C   UNL d   1      33.194  18.706 -23.872  0.00  0.00     0.082 A 
ATOM      9  C   UNL d   1      33.226  18.154 -24.485  0.00  0.00     0.021 C 
ATOM     10  C   UNL d   1      33.212  18.448 -23.082  0.00  0.00     0.019 A 
ATOM     11  C   UNL d   1      33.181  19.008 -22.465  0.00  0.00     0.003 A 
ATOM     12  C   UNL d   1      33.101  20.360 -22.022  0.00  0.00     0.002 A 
ATOM     13  C   UNL d   1      33.052  21.164 -22.191  0.00  0.00     0.005 A 
ENDBRANCH   1   2
BRANCH   1  14
ATOM     14  N   UNL d   1      33.241  22.705 -22.526  0.00  0.00    -0.245 NA
BRANCH  14  15
ATOM     15  C   UNL d   1      32.715  22.991 -21.979  0.00  0.00     0.081 A 
ATOM     16  C   UNL d   1      32.847  22.875 -21.183  0.00  0.00     0.023 A 
ATOM     17  C   UNL d   1      32.310  23.166 -20.621  0.00  0.00     0.073 A 
ATOM     18  C   UNL d   1      31.635  23.578 -20.876  0.00  0.00     0.004 A 
ATOM     19  C   UNL d   1      31.506  23.692 -21.680  0.00  0.00     0.002 A 
ATOM     20  C   UNL d   1      32.048  23.397 -22.226  0.00  0.00     0.019 A 
BRANCH  17  21
ATOM     21  C   UNL d   1      32.451  23.044 -19.820  0.00  0.00     0.419 C 
ATOM     22  F   UNL d   1      32.577  22.923 -19.089  0.00  0.00    -0.166 F 
ATOM     23  F   UNL d   1      32.322  22.335 -19.359  0.00  0.00    -0.166 F 
ATOM     24  F   UNL d   1      32.761  23.583 -19.233  0.00  0.00    -0.166 F 
ENDBRANCH  17  21
ENDBRANCH  14  15
ENDBRANCH   1  14
BRANCH   1  25
ATOM     25  C   UNL d   1      32.739  22.671 -23.797  0.00  0.00     0.037 A 
ATOM     26  C   UNL d   1      31.984  22.542 -24.121  0.00  0.00     0.100 A 
ATOM     27  N   UNL d   1      31.747  22.993 -24.773  0.00  0.00    -0.242 NA
ATOM     28  C   UNL d   1      32.241  23.552 -25.093  0.00  0.00     0.099 A 
ATOM     29  C   UNL d   1      32.985  23.678 -24.773  0.00  0.00     0.021 A 
ATOM     30  C   UNL d   1      33.238  23.241 -24.127  0.00  0.00     0.005 A 
ENDBRANCH   1  25
TORSDOF 5
ENDMDL
