MODEL 1
REMARK VINA RESULT:      43.9      0.000      0.000
REMARK  4 active torsions:
REMARK  status: ('A' for Active; 'I' for Inactive)
REMARK    1  A    between atoms: C_2  and  C_1 
REMARK       I    between atoms: N_7  and  C_2 
REMARK    2  A    between atoms: C_9  and  N_7 
REMARK    3  A    between atoms: O_16  and  C_10 
REMARK    4  A    between atoms: C_18  and  O_16 
ROOT
ATOM      1  C   UNL d   1     -54.941 -99.349 -43.164  0.00  0.00     0.280 C 
ATOM      2  N   UNL d   1     -54.717-100.116 -42.966  0.00  0.00    -0.208 NA
ATOM      3  O   UNL d   1     -54.908 -98.755 -42.591  0.00  0.00    -0.265 OA
ENDROOT
BRANCH   1   4
ATOM      4  C   UNL d   1     -55.195 -99.177 -43.929  0.00  0.00     0.065 A 
ATOM      5  C   UNL d   1     -55.979 -99.056 -44.162  0.00  0.00     0.011 A 
ATOM      6  C   UNL d   1     -55.973 -98.901 -44.968  0.00  0.00     0.030 A 
ATOM      7  C   UNL d   1     -56.693 -99.068 -43.745  0.00  0.00     0.001 A 
ATOM      8  C   UNL d   1     -56.685 -98.755 -45.367  0.00  0.00     0.006 A 
ATOM      9  S   UNL d   1     -55.193 -98.925 -45.233  0.00  0.00    -0.086 SA
ATOM     10  C   UNL d   1     -57.381 -98.767 -44.960  0.00  0.00     0.001 A 
ATOM     11  C   UNL d   1     -57.393 -98.923 -44.148  0.00  0.00     0.000 A 
ATOM     12  C   UNL d   1     -54.715 -99.097 -44.580  0.00  0.00     0.040 A 
ENDBRANCH   1   4
BRANCH   2  13
ATOM     13  C   UNL d   1     -54.749-100.718 -43.542  0.00  0.00     0.085 A 
ATOM     14  C   UNL d   1     -54.818-101.504 -43.307  0.00  0.00     0.021 A 
ATOM     15  C   UNL d   1     -54.850-102.100 -43.875  0.00  0.00     0.026 A 
ATOM     16  C   UNL d   1     -54.813-101.912 -44.685  0.00  0.00     0.100 A 
ATOM     17  C   UNL d   1     -54.744-101.123 -44.912  0.00  0.00     0.026 A 
ATOM     18  C   UNL d   1     -54.712-100.523 -44.339  0.00  0.00     0.021 A 
BRANCH  16  19
ATOM     19  O   UNL d   1     -54.844-102.502 -45.268  0.00  0.00    -0.305 OA
BRANCH  19  20
ATOM     20  C   UNL d   1     -55.569-102.820 -45.499  0.00  0.00     0.123 C 
ATOM     21  C   UNL d   1     -55.791-102.814 -46.296  0.00  0.00     0.029 C 
ENDBRANCH  19  20
ENDBRANCH  16  19
ENDBRANCH   2  13
TORSDOF 4
ENDMDL
MODEL 2
REMARK VINA RESULT:      44.8      1.409      2.111
REMARK  4 active torsions:
REMARK  status: ('A' for Active; 'I' for Inactive)
REMARK    1  A    between atoms: C_2  and  C_1 
REMARK       I    between atoms: N_7  and  C_2 
REMARK    2  A    between atoms: C_9  and  N_7 
REMARK    3  A    between atoms: O_16  and  C_10 
REMARK    4  A    between atoms: C_18  and  O_16 
ROOT
ATOM      1  C   UNL d   1     -55.453 -99.295 -45.329  0.00  0.00     0.280 C 
ATOM      2  N   UNL d   1     -55.019 -99.993 -45.388  0.00  0.00    -0.208 NA
ATOM      3  O   UNL d   1     -55.447 -98.759 -45.958  0.00  0.00    -0.265 OA
ENDROOT
BRANCH   1   4
ATOM      4  C   UNL d   1     -55.890 -99.135 -44.648  0.00  0.00     0.065 A 
ATOM      5  C   UNL d   1     -56.708 -99.032 -44.613  0.00  0.00     0.011 A 
ATOM      6  C   UNL d   1     -56.902 -98.884 -43.829  0.00  0.00     0.030 A 
ATOM      7  C   UNL d   1     -57.300 -99.053 -45.191  0.00  0.00     0.001 A 
ATOM      8  C   UNL d   1     -57.692 -98.756 -43.615  0.00  0.00     0.006 A 
ATOM      9  S   UNL d   1     -56.210 -98.896 -43.382  0.00  0.00    -0.086 SA
ATOM     10  C   UNL d   1     -58.269 -98.776 -44.178  0.00  0.00     0.001 A 
ATOM     11  C   UNL d   1     -58.079 -98.925 -44.970  0.00  0.00     0.000 A 
ATOM     12  C   UNL d   1     -55.584 -99.053 -43.900  0.00  0.00     0.040 A 
ENDBRANCH   1   4
BRANCH   2  13
ATOM     13  C   UNL d   1     -55.024-100.536 -44.756  0.00  0.00     0.085 A 
ATOM     14  C   UNL d   1     -54.724-101.295 -44.869  0.00  0.00     0.021 A 
ATOM     15  C   UNL d   1     -54.728-101.833 -44.245  0.00  0.00     0.026 A 
ATOM     16  C   UNL d   1     -55.032-101.615 -43.502  0.00  0.00     0.100 A 
ATOM     17  C   UNL d   1     -55.329-100.853 -43.397  0.00  0.00     0.026 A 
ATOM     18  C   UNL d   1     -55.326-100.312 -44.026  0.00  0.00     0.021 A 
BRANCH  16  19
ATOM     19  O   UNL d   1     -55.041-102.147 -42.865  0.00  0.00    -0.305 OA
BRANCH  19  20
ATOM     20  C   UNL d   1     -55.003-101.868 -42.090  0.00  0.00     0.123 C 
ATOM     21  C   UNL d   1     -54.714-102.355 -41.487  0.00  0.00     0.029 C 
ENDBRANCH  19  20
ENDBRANCH  16  19
ENDBRANCH   2  13
TORSDOF 4
ENDMDL
