MODEL 1
REMARK VINA RESULT:      30.8      0.000      0.000
REMARK  4 active torsions:
REMARK  status: ('A' for Active; 'I' for Inactive)
REMARK    1  A    between atoms: C_6  and  C_1 
REMARK    2  A    between atoms: C_9  and  N_3 
REMARK    3  A    between atoms: C_17  and  C_9 
REMARK    4  A    between atoms: O_15  and  C_10 
ROOT
ATOM      1  C   UNL d   1     -51.667  25.587  33.451  0.00  0.00     0.148 A 
ATOM      2  N   UNL d   1     -52.518  25.593  33.512  0.00  0.00    -0.227 NA
ATOM      3  N   UNL d   1     -51.436  24.794  33.373  0.00  0.00    -0.289 N 
ATOM      4  C   UNL d   1     -52.092  24.321  33.384  0.00  0.00     0.083 A 
ATOM      5  C   UNL d   1     -52.776  24.825  33.472  0.00  0.00     0.099 A 
ATOM      6  C   UNL d   1     -52.192  23.502  33.328  0.00  0.00     0.019 A 
ATOM      7  C   UNL d   1     -53.530  24.453  33.497  0.00  0.00     0.021 A 
ATOM      8  C   UNL d   1     -52.932  23.188  33.357  0.00  0.00     0.002 A 
ATOM      9  C   UNL d   1     -53.592  23.676  33.442  0.00  0.00     0.002 A 
ENDROOT
BRANCH   1  10
ATOM     10  C   UNL d   1     -51.192  26.268  33.469  0.00  0.00     0.035 A 
ATOM     11  C   UNL d   1     -51.506  27.004  33.314  0.00  0.00     0.005 A 
ATOM     12  C   UNL d   1     -51.050  27.698  33.326  0.00  0.00     0.024 A 
ATOM     13  C   UNL d   1     -50.280  27.655  33.494  0.00  0.00     0.094 A 
ATOM     14  C   UNL d   1     -49.940  26.900  33.657  0.00  0.00     0.024 A 
ATOM     15  C   UNL d   1     -50.396  26.207  33.644  0.00  0.00     0.005 A 
BRANCH  13  16
ATOM     16  O   UNL d   1     -49.549  28.033  33.602  0.00  0.00    -0.328 OA
ATOM     17  C   UNL d   1     -49.443  28.815  33.343  0.00  0.00     0.181 C 
ENDBRANCH  13  16
ENDBRANCH   1  10
BRANCH   3  18
ATOM     18  C   UNL d   1     -50.651  24.699  33.310  0.00  0.00     0.082 C 
BRANCH  18  19
ATOM     19  C   UNL d   1     -50.270  24.036  33.596  0.00  0.00     0.019 C 
ATOM     20  C   UNL d   1     -49.452  23.977  33.656  0.00  0.00     0.002 C 
ENDBRANCH  18  19
ENDBRANCH   3  18
TORSDOF 4
ENDMDL
MODEL 2
REMARK VINA RESULT:      32.4      1.634      4.140
REMARK  4 active torsions:
REMARK  status: ('A' for Active; 'I' for Inactive)
REMARK    1  A    between atoms: C_6  and  C_1 
REMARK    2  A    between atoms: C_9  and  N_3 
REMARK    3  A    between atoms: C_17  and  C_9 
REMARK    4  A    between atoms: O_15  and  C_10 
ROOT
ATOM      1  C   UNL d   1     -51.173  25.545  33.352  0.00  0.00     0.148 A 
ATOM      2  N   UNL d   1     -50.321  25.500  33.362  0.00  0.00    -0.227 NA
ATOM      3  N   UNL d   1     -51.373  26.351  33.345  0.00  0.00    -0.289 N 
ATOM      4  C   UNL d   1     -50.696  26.795  33.349  0.00  0.00     0.083 A 
ATOM      5  C   UNL d   1     -50.032  26.258  33.360  0.00  0.00     0.099 A 
ATOM      6  C   UNL d   1     -50.563  27.611  33.346  0.00  0.00     0.019 A 
ATOM      7  C   UNL d   1     -49.261  26.596  33.366  0.00  0.00     0.021 A 
ATOM      8  C   UNL d   1     -49.809  27.891  33.352  0.00  0.00     0.002 A 
ATOM      9  C   UNL d   1     -49.167  27.372  33.362  0.00  0.00     0.002 A 
ENDROOT
BRANCH   1  10
ATOM     10  C   UNL d   1     -51.676  24.885  33.351  0.00  0.00     0.035 A 
ATOM     11  C   UNL d   1     -51.377  24.128  33.394  0.00  0.00     0.005 A 
ATOM     12  C   UNL d   1     -51.861  23.454  33.394  0.00  0.00     0.024 A 
ATOM     13  C   UNL d   1     -52.644  23.536  33.351  0.00  0.00     0.094 A 
ATOM     14  C   UNL d   1     -52.970  24.313  33.306  0.00  0.00     0.024 A 
ATOM     15  C   UNL d   1     -52.486  24.988  33.306  0.00  0.00     0.005 A 
BRANCH  13  16
ATOM     16  O   UNL d   1     -53.400  23.193  33.325  0.00  0.00    -0.328 OA
ATOM     17  C   UNL d   1     -53.878  23.190  34.004  0.00  0.00     0.181 C 
ENDBRANCH  13  16
ENDBRANCH   1  10
BRANCH   3  18
ATOM     18  C   UNL d   1     -52.154  26.482  33.336  0.00  0.00     0.082 C 
BRANCH  18  19
ATOM     19  C   UNL d   1     -52.467  27.236  33.306  0.00  0.00     0.019 C 
ATOM     20  C   UNL d   1     -53.165  27.449  33.684  0.00  0.00     0.002 C 
ENDBRANCH  18  19
ENDBRANCH   3  18
TORSDOF 4
ENDMDL
