MODEL 1
REMARK VINA RESULT:      41.3      0.000      0.000
REMARK  6 active torsions:
REMARK  status: ('A' for Active; 'I' for Inactive)
REMARK    1  A    between atoms: C_5  and  C_1 
REMARK    2  A    between atoms: N_8  and  C_5 
REMARK    3  A    between atoms: C_9  and  C_5 
REMARK    4  A    between atoms: C_19  and  C_7 
REMARK    5  A    between atoms: C_10  and  N_8 
REMARK    6  A    between atoms: O_20  and  C_16 
ROOT
ATOM      1  C   UNL d   1      46.106 -18.132  43.064  0.00  0.00     0.109 C 
ENDROOT
BRANCH   1   2
ATOM      2  C   UNL d   1      45.803 -18.859  43.314  0.00  0.00     0.160 A 
ATOM      3  C   UNL d   1      46.072 -19.224  44.011  0.00  0.00     0.258 A 
ATOM      4  C   UNL d   1      45.744 -19.964  44.239  0.00  0.00     0.238 A 
ATOM      5  O   UNL d   1      46.646 -18.867  44.466  0.00  0.00    -0.281 OA
ATOM      6  O   UNL d   1      46.013 -20.330  44.938  0.00  0.00    -0.283 OA
ATOM      7  C   UNL d   1      45.168 -20.322  43.784  0.00  0.00     0.073 A 
ATOM      8  C   UNL d   1      44.900 -19.957  43.087  0.00  0.00     0.146 A 
ATOM      9  O   UNL d   1      45.210 -19.238  42.853  0.00  0.00    -0.299 OA
BRANCH   8  10
ATOM     10  C   UNL d   1      44.311 -20.330  42.627  0.00  0.00     0.259 C 
ATOM     11  O   UNL d   1      43.583 -19.945  42.455  0.00  0.00    -0.281 OA
ENDBRANCH   8  10
ENDBRANCH   1   2
BRANCH   1  12
ATOM     12  N   UNL d   1      46.646 -18.081  42.438  0.00  0.00    -0.225 NA
BRANCH  12  13
ATOM     13  C   UNL d   1      46.402 -18.222  41.667  0.00  0.00     0.163 A 
ATOM     14  N   UNL d   1      45.914 -17.681  41.281  0.00  0.00    -0.225 NA
ATOM     15  C   UNL d   1      45.671 -17.822  40.514  0.00  0.00     0.101 A 
ATOM     16  C   UNL d   1      45.914 -18.505  40.126  0.00  0.00     0.021 A 
ATOM     17  C   UNL d   1      46.402 -19.059  40.496  0.00  0.00     0.005 A 
ATOM     18  C   UNL d   1      46.647 -18.918  41.267  0.00  0.00     0.039 A 
ENDBRANCH  12  13
ENDBRANCH   1  12
BRANCH   1  19
ATOM     19  C   UNL d   1      45.859 -17.436  43.454  0.00  0.00     0.020 A 
ATOM     20  C   UNL d   1      45.096 -17.145  43.339  0.00  0.00     0.004 A 
ATOM     21  C   UNL d   1      44.859 -16.460  43.726  0.00  0.00     0.024 A 
ATOM     22  C   UNL d   1      45.381 -16.065  44.227  0.00  0.00     0.094 A 
ATOM     23  C   UNL d   1      46.145 -16.351  44.346  0.00  0.00     0.024 A 
ATOM     24  C   UNL d   1      46.380 -17.041  43.955  0.00  0.00     0.004 A 
BRANCH  22  25
ATOM     25  O   UNL d   1      45.137 -15.366  44.620  0.00  0.00    -0.328 OA
ATOM     26  C   UNL d   1      45.393 -14.601  44.355  0.00  0.00     0.181 C 
ENDBRANCH  22  25
ENDBRANCH   1  19
TORSDOF 6
ENDMDL
