MODEL 1
REMARK VINA RESULT:      33.4      0.000      0.000
REMARK  3 active torsions:
REMARK  status: ('A' for Active; 'I' for Inactive)
REMARK    1  A    between atoms: C_15  and  C_4 
REMARK    2  A    between atoms: C_8  and  S_16 
REMARK    3  A    between atoms: S_16  and  C_15 
ROOT
ATOM      1  N   UNL d   1      15.359  13.998  -0.220  0.00  0.00    -0.133 N 
ATOM      2  C   UNL d   1      14.666  14.420  -0.337  0.00  0.00     0.736 A 
ATOM      3  C   UNL d   1      15.164  13.202  -0.143  0.00  0.00     0.135 A 
ATOM      4  C   UNL d   1      14.345  13.128  -0.212  0.00  0.00     0.129 A 
ATOM      5  N   UNL d   1      14.038  13.887  -0.333  0.00  0.00    -0.058 NA
ATOM      6  C   UNL d   1      16.077  14.385  -0.198  0.00  0.00     0.084 A 
ATOM      7  N   UNL d   1      14.685  15.233  -0.433  0.00  0.00    -0.060 NA
ATOM      8  C   UNL d   1      16.109  15.209  -0.294  0.00  0.00     0.038 A 
ATOM      9  C   UNL d   1      15.416  15.631  -0.411  0.00  0.00     0.101 A 
ATOM     10 BR   UNL d   1      15.699  12.556  -0.014  0.00  0.00    -0.028 Br
ATOM     11  C   UNL d   1      16.784  13.955  -0.079  0.00  0.00     0.020 C 
ATOM     12  C   UNL d   1      15.478  16.466  -0.506  0.00  0.00     0.021 C 
ENDROOT
BRANCH   4  13
ATOM     13  C   UNL d   1      13.926  12.421  -0.167  0.00  0.00     0.059 C 
BRANCH  13  14
ATOM     14  S   UNL d   1      14.089  11.779  -0.658  0.00  0.00    -0.059 SA
BRANCH  14  15
ATOM     15  C   UNL d   1      13.991  11.829  -1.471  0.00  0.00     0.141 A 
ATOM     16  N   UNL d   1      14.521  11.892  -2.107  0.00  0.00    -0.232 NA
ATOM     17  C   UNL d   1      14.105  11.920  -2.787  0.00  0.00     0.088 A 
ATOM     18  C   UNL d   1      14.368  11.981  -3.563  0.00  0.00     0.020 A 
ATOM     19  C   UNL d   1      13.321  11.878  -2.633  0.00  0.00     0.049 A 
ATOM     20  C   UNL d   1      13.820  12.000  -4.187  0.00  0.00     0.002 A 
ATOM     21  C   UNL d   1      13.031  11.958  -4.036  0.00  0.00     0.001 A 
ATOM     22  C   UNL d   1      12.769  11.897  -3.255  0.00  0.00     0.008 A 
ATOM     23  S   UNL d   1      13.241  11.820  -1.799  0.00  0.00    -0.060 SA
ENDBRANCH  14  15
ENDBRANCH  13  14
ENDBRANCH   4  13
TORSDOF 3
ENDMDL
MODEL 2
REMARK VINA RESULT:      34.3      2.039      3.165
REMARK  3 active torsions:
REMARK  status: ('A' for Active; 'I' for Inactive)
REMARK    1  A    between atoms: C_15  and  C_4 
REMARK    2  A    between atoms: C_8  and  S_16 
REMARK    3  A    between atoms: S_16  and  C_15 
ROOT
ATOM      1  N   UNL d   1      14.199  12.055  -1.323  0.00  0.00    -0.133 N 
ATOM      2  C   UNL d   1      14.910  12.145  -1.721  0.00  0.00     0.736 A 
ATOM      3  C   UNL d   1      13.610  11.909  -1.881  0.00  0.00     0.135 A 
ATOM      4  C   UNL d   1      13.958  11.907  -2.629  0.00  0.00     0.129 A 
ATOM      5  N   UNL d   1      14.766  12.054  -2.527  0.00  0.00    -0.058 NA
ATOM      6  C   UNL d   1      14.172  12.117  -0.510  0.00  0.00     0.084 A 
ATOM      7  N   UNL d   1      15.601  12.297  -1.309  0.00  0.00    -0.060 NA
ATOM      8  C   UNL d   1      14.866  12.271  -0.082  0.00  0.00     0.038 A 
ATOM      9  C   UNL d   1      15.578  12.360  -0.480  0.00  0.00     0.101 A 
ATOM     10 BR   UNL d   1      12.786  11.780  -1.729  0.00  0.00    -0.028 Br
ATOM     11  C   UNL d   1      13.447  12.026  -0.105  0.00  0.00     0.020 C 
ATOM     12  C   UNL d   1      16.266  12.516  -0.020  0.00  0.00     0.021 C 
ENDROOT
BRANCH   4  13
ATOM     13  C   UNL d   1      13.559  11.781  -3.338  0.00  0.00     0.059 C 
BRANCH  13  14
ATOM     14  S   UNL d   1      12.929  12.255  -3.580  0.00  0.00    -0.059 SA
BRANCH  14  15
ATOM     15  C   UNL d   1      13.053  12.934  -4.023  0.00  0.00     0.141 A 
ATOM     16  N   UNL d   1      13.364  13.072  -4.780  0.00  0.00    -0.232 NA
ATOM     17  C   UNL d   1      13.351  13.856  -4.925  0.00  0.00     0.088 A 
ATOM     18  C   UNL d   1      13.595  14.274  -5.590  0.00  0.00     0.020 A 
ATOM     19  C   UNL d   1      13.045  14.247  -4.298  0.00  0.00     0.049 A 
ATOM     20  C   UNL d   1      13.524  15.101  -5.610  0.00  0.00     0.002 A 
ATOM     21  C   UNL d   1      13.217  15.498  -4.980  0.00  0.00     0.001 A 
ATOM     22  C   UNL d   1      12.973  15.076  -4.314  0.00  0.00     0.008 A 
ATOM     23  S   UNL d   1      12.854  13.668  -3.721  0.00  0.00    -0.060 SA
ENDBRANCH  14  15
ENDBRANCH  13  14
ENDBRANCH   4  13
TORSDOF 3
ENDMDL
