MODEL 1
REMARK VINA RESULT:      35.9      0.000      0.000
REMARK  4 active torsions:
REMARK  status: ('A' for Active; 'I' for Inactive)
REMARK    1  A    between atoms: C_6  and  C_2 
REMARK    2  A    between atoms: O_7  and  C_6 
REMARK    3  A    between atoms: C_8  and  O_7 
REMARK    4  A    between atoms: O_14  and  C_9 
ROOT
ATOM      1  C   UNL d   1      58.977  49.197  51.367  0.00  0.00     0.161 C 
ENDROOT
BRANCH   1   2
ATOM      2  C   UNL d   1      58.263  49.277  50.985  0.00  0.00     0.188 A 
ATOM      3  N   UNL d   1      58.414  49.424  50.213  0.00  0.00    -0.224 NA
ATOM      4  C   UNL d   1      57.627  49.503  49.837  0.00  0.00     0.101 A 
ATOM      5  C   UNL d   1      57.062  49.401  50.403  0.00  0.00     0.101 A 
ATOM      6  C   UNL d   1      57.444  49.664  49.008  0.00  0.00     0.021 A 
ATOM      7  C   UNL d   1      56.275  49.451  50.180  0.00  0.00     0.021 A 
ATOM      8  N   UNL d   1      57.481  49.254  51.148  0.00  0.00    -0.224 NA
ATOM      9  C   UNL d   1      56.033  49.601  49.413  0.00  0.00     0.002 A 
ATOM     10  C   UNL d   1      56.598  49.703  48.847  0.00  0.00     0.002 A 
ENDBRANCH   1   2
BRANCH   1  11
ATOM     11  O   UNL d   1      59.618  49.707  51.184  0.00  0.00    -0.302 OA
BRANCH  11  12
ATOM     12  C   UNL d   1      60.330  49.679  51.621  0.00  0.00     0.100 A 
ATOM     13  C   UNL d   1      60.304  49.682  52.447  0.00  0.00     0.027 A 
ATOM     14  C   UNL d   1      60.990  49.655  52.897  0.00  0.00     0.026 A 
ATOM     15  C   UNL d   1      61.714  49.624  52.492  0.00  0.00     0.094 A 
ATOM     16  C   UNL d   1      61.741  49.621  51.666  0.00  0.00     0.026 A 
ATOM     17  C   UNL d   1      61.046  49.648  51.213  0.00  0.00     0.027 A 
BRANCH  15  18
ATOM     18  O   UNL d   1      62.426  49.596  52.929  0.00  0.00    -0.328 OA
ATOM     19  C   UNL d   1      63.114  49.705  53.603  0.00  0.00     0.181 C 
ENDBRANCH  15  18
ENDBRANCH  11  12
ENDBRANCH   1  11
TORSDOF 4
ENDMDL
MODEL 2
REMARK VINA RESULT:      38.8      1.567      2.023
REMARK  4 active torsions:
REMARK  status: ('A' for Active; 'I' for Inactive)
REMARK    1  A    between atoms: C_6  and  C_2 
REMARK    2  A    between atoms: O_7  and  C_6 
REMARK    3  A    between atoms: C_8  and  O_7 
REMARK    4  A    between atoms: O_14  and  C_9 
ROOT
ATOM      1  C   UNL d   1      59.339  49.698  51.430  0.00  0.00     0.161 C 
ENDROOT
BRANCH   1   2
ATOM      2  C   UNL d   1      58.700  49.700  50.927  0.00  0.00     0.188 A 
ATOM      3  N   UNL d   1      58.037  49.702  51.375  0.00  0.00    -0.224 NA
ATOM      4  C   UNL d   1      57.374  49.704  50.802  0.00  0.00     0.101 A 
ATOM      5  C   UNL d   1      57.680  49.703  50.057  0.00  0.00     0.101 A 
ATOM      6  C   UNL d   1      56.526  49.707  50.966  0.00  0.00     0.021 A 
ATOM      7  C   UNL d   1      57.160  49.705  49.422  0.00  0.00     0.021 A 
ATOM      8  N   UNL d   1      58.543  49.700  50.144  0.00  0.00    -0.224 NA
ATOM      9  C   UNL d   1      56.347  49.707  49.508  0.00  0.00     0.002 A 
ATOM     10  C   UNL d   1      56.040  49.708  50.254  0.00  0.00     0.002 A 
ENDBRANCH   1   2
BRANCH   1  11
ATOM     11  O   UNL d   1      60.121  49.708  51.126  0.00  0.00    -0.302 OA
BRANCH  11  12
ATOM     12  C   UNL d   1      60.530  48.997  50.965  0.00  0.00     0.100 A 
ATOM     13  C   UNL d   1      60.512  48.380  51.514  0.00  0.00     0.027 A 
ATOM     14  C   UNL d   1      60.906  47.673  51.378  0.00  0.00     0.026 A 
ATOM     15  C   UNL d   1      61.326  47.599  50.666  0.00  0.00     0.094 A 
ATOM     16  C   UNL d   1      61.345  48.215  50.116  0.00  0.00     0.026 A 
ATOM     17  C   UNL d   1      60.946  48.929  50.256  0.00  0.00     0.027 A 
BRANCH  15  18
ATOM     18  O   UNL d   1      61.735  46.888  50.505  0.00  0.00    -0.328 OA
ATOM     19  C   UNL d   1      62.232  46.170  50.084  0.00  0.00     0.181 C 
ENDBRANCH  15  18
ENDBRANCH  11  12
ENDBRANCH   1  11
TORSDOF 4
ENDMDL
