MODEL 1
REMARK VINA RESULT:      45.8      0.000      0.000
REMARK  1 active torsions:
REMARK  status: ('A' for Active; 'I' for Inactive)
REMARK    1  A    between atoms: N_13  and  C_2 
ROOT
ATOM      1  C   UNL d   1      58.530  49.704  51.286  0.00  0.00     0.024 A 
ATOM      2  C   UNL d   1      58.633  49.703  52.106  0.00  0.00     0.138 A 
ATOM      3  C   UNL d   1      59.395  49.703  52.426  0.00  0.00     0.282 A 
ATOM      4  C   UNL d   1      59.186  49.704  50.789  0.00  0.00     0.021 A 
ATOM      5  N   UNL d   1      60.046  49.703  51.922  0.00  0.00    -0.271 N 
ATOM      6  C   UNL d   1      59.947  49.704  51.103  0.00  0.00     0.067 A 
ATOM      7  C   UNL d   1      57.772  49.704  50.969  0.00  0.00     0.005 A 
ATOM      8  C   UNL d   1      59.074  49.705  49.964  0.00  0.00     0.040 A 
ATOM      9  C   UNL d   1      58.311  49.705  49.647  0.00  0.00     0.196 A 
ATOM     10  C   UNL d   1      57.661  49.705  50.152  0.00  0.00     0.039 A 
ATOM     11  O   UNL d   1      59.506  49.702  53.243  0.00  0.00    -0.265 OA
ATOM     12  O   UNL d   1      58.200  49.706  48.829  0.00  0.00    -0.287 OA
ATOM     13  C   UNL d   1      60.809  49.703  52.247  0.00  0.00     0.102 C 
ATOM     14  C   UNL d   1      60.600  49.704  50.610  0.00  0.00     0.018 A 
ATOM     15  C   UNL d   1      59.733  49.705  49.467  0.00  0.00     0.003 A 
ATOM     16  C   UNL d   1      57.117  49.704  51.474  0.00  0.00     0.000 A 
ATOM     17  C   UNL d   1      56.895  49.706  49.839  0.00  0.00     0.003 A 
ATOM     18  C   UNL d   1      60.499  49.705  49.778  0.00  0.00     0.002 A 
ATOM     19  C   UNL d   1      56.355  49.705  51.161  0.00  0.00     0.000 A 
ATOM     20  C   UNL d   1      56.244  49.705  50.344  0.00  0.00     0.000 A 
ENDROOT
BRANCH   2  21
ATOM     21  N   UNL d   1      57.981  49.703  52.606  0.00  0.00    -0.238 NA
ATOM     22  C   UNL d   1      58.088  49.703  53.424  0.00  0.00     0.120 C 
ENDBRANCH   2  21
TORSDOF 1
ENDMDL
