MODEL 1
REMARK VINA RESULT:      34.8      0.000      0.000
REMARK  3 active torsions:
REMARK  status: ('A' for Active; 'I' for Inactive)
REMARK    1  A    between atoms: C_9  and  C_5 
REMARK    2  A    between atoms: C_10  and  C_6 
REMARK    3  A    between atoms: O_16  and  C_13 
ROOT
ATOM      1  N   UNL d   1      14.570  13.059  -1.019  0.00  0.00    -0.205 N 
ATOM      2  C   UNL d   1      14.886  12.995  -0.259  0.00  0.00     0.197 A 
ATOM      3  N   UNL d   1      15.149  13.747  -0.027  0.00  0.00    -0.200 NA
ATOM      4  N   UNL d   1      14.636  13.846  -1.257  0.00  0.00    -0.144 NA
ATOM      5  C   UNL d   1      14.992  14.270  -0.647  0.00  0.00     0.184 A 
ATOM      6  C   UNL d   1      14.305  12.310  -1.257  0.00  0.00     0.092 A 
ATOM      7  S   UNL d   1      14.817  12.199  -0.024  0.00  0.00    -0.046 SA
ATOM      8  C   UNL d   1      14.457  11.779  -0.646  0.00  0.00     0.058 A 
ENDROOT
BRANCH   5   9
ATOM      9  C   UNL d   1      15.163  15.070  -0.648  0.00  0.00     0.038 A 
ATOM     10  C   UNL d   1      14.832  15.561  -1.216  0.00  0.00     0.005 A 
ATOM     11  C   UNL d   1      15.004  16.369  -1.219  0.00  0.00     0.024 A 
ATOM     12  C   UNL d   1      15.507  16.682  -0.654  0.00  0.00     0.094 A 
ATOM     13  C   UNL d   1      15.846  16.190  -0.076  0.00  0.00     0.024 A 
ATOM     14  C   UNL d   1      15.671  15.385  -0.077  0.00  0.00     0.005 A 
BRANCH  12  15
ATOM     15  O   UNL d   1      15.679  17.491  -0.657  0.00  0.00    -0.328 OA
ATOM     16  C   UNL d   1      15.383  17.973  -1.265  0.00  0.00     0.181 C 
ENDBRANCH  12  15
ENDBRANCH   5   9
BRANCH   6  17
ATOM     17  C   UNL d   1      13.951  12.133  -1.986  0.00  0.00     0.018 A 
ATOM     18  C   UNL d   1      14.400  12.109  -2.676  0.00  0.00     0.002 A 
ATOM     19  C   UNL d   1      14.044  11.933  -3.398  0.00  0.00     0.000 A 
ATOM     20  C   UNL d   1      13.228  11.779  -3.435  0.00  0.00     0.000 A 
ATOM     21  C   UNL d   1      12.779  11.804  -2.746  0.00  0.00     0.000 A 
ATOM     22  C   UNL d   1      13.131  11.979  -2.021  0.00  0.00     0.002 A 
ENDBRANCH   6  17
TORSDOF 3
ENDMDL
