MODEL 1
REMARK VINA RESULT:       3.3      0.000      0.000
REMARK  5 active torsions:
REMARK  status: ('A' for Active; 'I' for Inactive)
REMARK    1  A    between atoms: C_10  and  N_6 
REMARK    2  A    between atoms: N_13  and  C_9 
REMARK    3  A    between atoms: C_14  and  C_10 
REMARK    4  A    between atoms: C_21  and  N_13 
REMARK    5  A    between atoms: C_24  and  C_21 
ROOT
ATOM      1  C   UNL d   1     -41.661-121.799 -53.666  0.00  0.00     0.176 A 
ATOM      2  C   UNL d   1     -41.636-122.597 -53.669  0.00  0.00     0.159 A 
ATOM      3  N   UNL d   1     -41.491-121.382 -53.003  0.00  0.00    -0.181 NA
ATOM      4  N   UNL d   1     -41.860-121.395 -54.340  0.00  0.00    -0.240 N 
ATOM      5  N   UNL d   1     -42.006-122.602 -55.014  0.00  0.00    -0.223 N 
ATOM      6  N   UNL d   1     -41.268-122.592 -52.337  0.00  0.00    -0.258 N 
ATOM      7  C   UNL d   1     -42.032-121.791 -55.010  0.00  0.00     0.343 A 
ATOM      8  C   UNL d   1     -41.810-122.998 -54.348  0.00  0.00     0.287 A 
ATOM      9  C   UNL d   1     -41.297-121.768 -52.345  0.00  0.00     0.292 A 
ATOM     10  O   UNL d   1     -42.231-121.393 -55.685  0.00  0.00    -0.245 OA
ATOM     11  O   UNL d   1     -41.784-123.817 -54.352  0.00  0.00    -0.265 OA
ATOM     12  C   UNL d   1     -41.885-120.589 -54.337  0.00  0.00     0.105 C 
ATOM     13  C   UNL d   1     -42.185-123.024 -55.713  0.00  0.00     0.107 C 
ENDROOT
BRANCH   6  14
ATOM     14  C   UNL d   1     -41.135-123.300 -51.936  0.00  0.00     0.084 C 
BRANCH  14  15
ATOM     15  C   UNL d   1     -41.547-123.473 -51.234  0.00  0.00     0.018 A 
ATOM     16  C   UNL d   1     -41.127-123.508 -50.525  0.00  0.00     0.002 A 
ATOM     17  C   UNL d   1     -41.540-123.681 -49.822  0.00  0.00     0.000 A 
ATOM     18  C   UNL d   1     -41.323-123.764 -49.018  0.00  0.00     0.000 C 
ATOM     19  C   UNL d   1     -42.366-123.817 -49.840  0.00  0.00     0.000 A 
ATOM     20  C   UNL d   1     -42.762-123.776 -50.564  0.00  0.00     0.000 A 
ATOM     21  C   UNL d   1     -42.354-123.605 -51.259  0.00  0.00     0.002 A 
ENDBRANCH  14  15
ENDBRANCH   6  14
BRANCH   9  22
ATOM     22  N   UNL d   1     -41.125-121.373 -51.675  0.00  0.00    -0.365 NA
BRANCH  22  23
ATOM     23  C   UNL d   1     -41.125-120.835 -51.037  0.00  0.00     0.164 C 
BRANCH  23  24
ATOM     24  C   UNL d   1     -41.379-120.045 -51.155  0.00  0.00     0.035 C 
ATOM     25  C   UNL d   1     -41.145-119.442 -50.628  0.00  0.00     0.003 C 
ENDBRANCH  23  24
ENDBRANCH  22  23
ENDBRANCH   9  22
TORSDOF 5
ENDMDL
