MODEL 1
REMARK VINA RESULT:      64.9      0.000      0.000
REMARK  3 active torsions:
REMARK  status: ('A' for Active; 'I' for Inactive)
REMARK    1  A    between atoms: N_2  and  C_1 
REMARK    2  A    between atoms: N_3  and  C_1 
REMARK       I    between atoms: C_4  and  N_3 
REMARK    3  A    between atoms: C_7  and  C_4 
ROOT
ATOM      1  C   UNL d   1     -55.397 -99.225 -44.451  0.00  0.00     0.209 C 
ATOM      2  S   UNL d   1     -54.829 -98.795 -44.882  0.00  0.00    -0.038 SA
ENDROOT
BRANCH   1   3
ATOM      3  N   UNL d   1     -55.169 -99.850 -43.971  0.00  0.00    -0.282 N 
ATOM      4  C   UNL d   1     -55.058 -99.725 -43.157  0.00  0.00     0.066 A 
ATOM      5  C   UNL d   1     -54.830-100.350 -42.677  0.00  0.00     0.016 A 
ATOM      6  C   UNL d   1     -55.174 -98.983 -42.832  0.00  0.00     0.018 A 
ATOM      7  C   UNL d   1     -54.719-100.235 -41.874  0.00  0.00     0.001 A 
ATOM      8  C   UNL d   1     -54.712-101.099 -42.998  0.00  0.00     0.003 A 
ATOM      9  C   UNL d   1     -54.836 -99.490 -41.549  0.00  0.00     0.000 A 
ATOM     10  C   UNL d   1     -55.063 -98.862 -42.021  0.00  0.00     0.002 A 
ATOM     11  C   UNL d   1     -54.823-101.220 -43.808  0.00  0.00     0.019 A 
ATOM     12  C   UNL d   1     -55.052-100.596 -44.292  0.00  0.00     0.082 A 
ENDBRANCH   1   3
BRANCH   1  13
ATOM     13  N   UNL d   1     -56.199 -99.017 -44.510  0.00  0.00    -0.180 NA
ATOM     14  C   UNL d   1     -56.750 -99.584 -44.770  0.00  0.00     0.281 C 
ATOM     15  O   UNL d   1     -56.506-100.343 -44.969  0.00  0.00    -0.265 OA
BRANCH  14  16
ATOM     16  C   UNL d   1     -57.560 -99.375 -44.830  0.00  0.00     0.058 A 
ATOM     17  C   UNL d   1     -58.077 -99.570 -44.210  0.00  0.00     0.005 A 
ATOM     18  C   UNL d   1     -58.880 -99.362 -44.269  0.00  0.00     0.007 A 
ATOM     19  C   UNL d   1     -59.158 -98.966 -44.939  0.00  0.00     0.035 A 
ATOM     20  C   UNL d   1     -58.628 -98.774 -45.559  0.00  0.00     0.007 A 
ATOM     21 BR   UNL d   1     -59.960 -98.759 -44.998  0.00  0.00    -0.049 Br
ATOM     22  C   UNL d   1     -57.833 -98.979 -45.500  0.00  0.00     0.005 A 
ENDBRANCH  14  16
ENDBRANCH   1  13
TORSDOF 3
ENDMDL
