MODEL 1
REMARK VINA RESULT:      56.5      0.000      0.000
REMARK  5 active torsions:
REMARK  status: ('A' for Active; 'I' for Inactive)
REMARK    1  A    between atoms: C_2  and  S_1 
REMARK    2  A    between atoms: N_3  and  C_14 
REMARK    3  A    between atoms: C_9  and  N_3 
REMARK    4  A    between atoms: N_8  and  C_7 
REMARK    5  A    between atoms: C_15  and  C_9 
ROOT
ATOM      1  N   UNL d   1      57.650  49.612  51.064  0.00  0.00    -0.244 NA
ENDROOT
BRANCH   1   2
ATOM      2  C   UNL d   1      58.480  49.613  51.082  0.00  0.00     0.082 A 
ATOM      3  C   UNL d   1      58.858  49.707  51.810  0.00  0.00     0.020 A 
ATOM      4  C   UNL d   1      59.683  49.708  51.825  0.00  0.00     0.015 A 
ATOM      5  C   UNL d   1      60.113  49.619  51.141  0.00  0.00     0.107 A 
ATOM      6  C   UNL d   1      59.735  49.525  50.414  0.00  0.00     0.015 A 
ATOM      7  C   UNL d   1      58.910  49.524  50.398  0.00  0.00     0.020 A 
BRANCH   5   8
ATOM      8  S   UNL d   1      60.947  49.620  51.163  0.00  0.00     0.302 S 
ATOM      9  O   UNL d   1      60.965  49.675  50.335  0.00  0.00    -0.197 OA
ATOM     10  O   UNL d   1      61.775  49.623  51.173  0.00  0.00    -0.197 OA
ATOM     11  N   UNL d   1      60.927  49.566  51.982  0.00  0.00    -0.043 N 
ENDBRANCH   5   8
ENDBRANCH   1   2
BRANCH   1  12
ATOM     12  C   UNL d   1      57.251  49.456  50.373  0.00  0.00     0.099 C 
BRANCH  12  13
ATOM     13  C   UNL d   1      57.026  48.686  50.173  0.00  0.00     0.019 A 
ATOM     14  C   UNL d   1      57.093  48.056  50.725  0.00  0.00     0.003 A 
ATOM     15  C   UNL d   1      56.861  47.303  50.496  0.00  0.00     0.018 A 
ATOM     16  C   UNL d   1      56.570  47.149  49.754  0.00  0.00     0.064 A 
ATOM     17  C   UNL d   1      56.502  47.779  49.202  0.00  0.00     0.018 A 
ATOM     18  C   UNL d   1      56.728  48.550  49.403  0.00  0.00     0.003 A 
BRANCH  16  19
ATOM     19  N   UNL d   1      56.349  46.377  49.570  0.00  0.00    -0.301 N 
ATOM     20  C   UNL d   1      56.445  45.772  50.135  0.00  0.00     0.100 C 
ATOM     21  C   UNL d   1      56.040  46.228  48.830  0.00  0.00     0.100 C 
ENDBRANCH  16  19
ENDBRANCH  12  13
ENDBRANCH   1  12
TORSDOF 5
ENDMDL
