MODEL 1
REMARK VINA RESULT:      13.5      0.000      0.000
REMARK  7 active torsions:
REMARK  status: ('A' for Active; 'I' for Inactive)
REMARK    1  A    between atoms: C_2  and  C_1 
REMARK    2  A    between atoms: O_12  and  C_1 
REMARK       I    between atoms: C_3  and  N_4 
REMARK    3  A    between atoms: C_11  and  C_3 
REMARK    4  A    between atoms: N_4  and  C_7 
REMARK    5  A    between atoms: C_5  and  C_13 
REMARK    6  A    between atoms: O_14  and  C_5 
REMARK    7  A    between atoms: C_13  and  C_11 
ROOT
ATOM      1  C   UNL d   1      13.517  12.366  -3.030  0.00  0.00     0.063 A 
ATOM      2  C   UNL d   1      14.220  12.265  -2.612  0.00  0.00     0.023 A 
ATOM      3  C   UNL d   1      14.223  11.972  -1.841  0.00  0.00     0.059 A 
ATOM      4  C   UNL d   1      12.788  12.168  -2.669  0.00  0.00     0.006 A 
ATOM      5  C   UNL d   1      12.790  11.872  -1.892  0.00  0.00     0.002 A 
ATOM      6  C   UNL d   1      13.510  11.779  -1.489  0.00  0.00     0.017 A 
ENDROOT
BRANCH   3   7
ATOM      7  N   UNL d   1      14.949  11.873  -1.421  0.00  0.00    -0.321 N 
ATOM      8  C   UNL d   1      15.187  12.449  -0.882  0.00  0.00     0.258 C 
ATOM      9  O   UNL d   1      15.902  12.352  -0.468  0.00  0.00    -0.267 OA
ATOM     10  H   UNL d   1      15.408  11.200  -1.557  0.00  0.00     0.169 HD
BRANCH   8  11
ATOM     11  C   UNL d   1      14.736  13.127  -0.736  0.00  0.00     0.067 C 
BRANCH  11  12
ATOM     12  C   UNL d   1      14.941  13.667  -0.164  0.00  0.00     0.072 C 
BRANCH  12  13
ATOM     13  C   UNL d   1      14.610  14.415  -0.170  0.00  0.00     0.178 C 
ATOM     14  O   UNL d   1      13.803  14.495  -0.022  0.00  0.00    -0.646 OA
BRANCH  13  15
ATOM     15  O   UNL d   1      15.069  15.073  -0.318  0.00  0.00    -0.773 OA
ATOM     16  H   UNL d   1      15.611  15.066  -0.916  0.00  0.00     0.167 HD
ENDBRANCH  13  15
ENDBRANCH  12  13
ENDBRANCH  11  12
ENDBRANCH   8  11
ENDBRANCH   3   7
BRANCH   1  17
ATOM     17  C   UNL d   1      13.532  12.660  -3.801  0.00  0.00     0.178 C 
ATOM     18  O   UNL d   1      13.433  12.135  -4.435  0.00  0.00    -0.646 OA
BRANCH  17  19
ATOM     19  O   UNL d   1      13.642  13.454  -3.934  0.00  0.00    -0.773 OA
ATOM     20  H   UNL d   1      13.069  14.006  -3.710  0.00  0.00     0.167 HD
ENDBRANCH  17  19
ENDBRANCH   1  17
TORSDOF 7
ENDMDL
