MODEL 1
REMARK VINA RESULT:       7.6      0.000      0.000
REMARK  1 active torsions:
REMARK  status: ('A' for Active; 'I' for Inactive)
REMARK    1  A    between atoms: C_6  and  C_1 
ROOT
ATOM      1  C   UNL d   1     -51.056  24.744  33.320  0.00  0.00     0.085 A 
ATOM      2  C   UNL d   1     -50.560  24.081  33.311  0.00  0.00     0.137 A 
ATOM      3  C   UNL d   1     -51.825  24.496  33.321  0.00  0.00     0.013 A 
ATOM      4  C   UNL d   1     -51.810  23.676  33.312  0.00  0.00     0.031 A 
ATOM      5  S   UNL d   1     -51.021  23.432  33.306  0.00  0.00    -0.066 SA
ATOM      6  C   UNL d   1     -52.545  24.901  33.328  0.00  0.00     0.001 A 
ATOM      7  C   UNL d   1     -52.499  23.261  33.310  0.00  0.00     0.006 A 
ATOM      8  N   UNL d   1     -49.696  24.079  33.307  0.00  0.00    -0.141 N 
ATOM      9  C   UNL d   1     -53.238  24.498  33.327  0.00  0.00     0.000 A 
ATOM     10  C   UNL d   1     -53.212  23.644  33.317  0.00  0.00     0.001 A 
ATOM     11  C   UNL d   1     -53.954  23.192  33.316  0.00  0.00     0.000 C 
ENDROOT
BRANCH   1  12
ATOM     12  C   UNL d   1     -50.783  25.542  33.328  0.00  0.00     0.299 C 
ATOM     13  O   UNL d   1     -51.322  26.160  33.343  0.00  0.00    -0.264 OA
ATOM     14  N   UNL d   1     -49.952  25.716  33.320  0.00  0.00    -0.102 N 
ENDBRANCH   1  12
TORSDOF 1
ENDMDL
