MODEL 1
REMARK VINA RESULT:       2.0      0.000      0.000
REMARK  6 active torsions:
REMARK  status: ('A' for Active; 'I' for Inactive)
REMARK    1  A    between atoms: C_5  and  C_1 
REMARK    2  A    between atoms: N_6  and  C_5 
REMARK    3  A    between atoms: C_9  and  C_5 
REMARK    4  A    between atoms: C_8  and  C_11 
REMARK    5  A    between atoms: O_18  and  C_8 
REMARK    6  A    between atoms: C_23  and  O_18 
ROOT
ATOM      1  C   UNL d   1     -41.852-122.177 -51.960  0.00  0.00     0.083 C 
ENDROOT
BRANCH   1   2
ATOM      2  C   UNL d   1     -41.784-122.633 -52.656  0.00  0.00     0.037 A 
ATOM      3  C   UNL d   1     -41.449-123.386 -52.708  0.00  0.00     0.083 A 
ATOM      4  N   UNL d   1     -41.482-123.648 -53.471  0.00  0.00    -0.245 NA
ATOM      5  C   UNL d   1     -41.123-123.812 -52.057  0.00  0.00     0.021 C 
ATOM      6  C   UNL d   1     -41.836-123.072 -53.916  0.00  0.00     0.081 A 
ATOM      7  C   UNL d   1     -42.022-122.446 -53.413  0.00  0.00     0.021 A 
ATOM      8  C   UNL d   1     -42.020-123.023 -54.718  0.00  0.00     0.019 A 
ATOM      9  C   UNL d   1     -42.391-121.772 -53.715  0.00  0.00     0.002 A 
ATOM     10  C   UNL d   1     -42.575-121.723 -54.518  0.00  0.00     0.000 A 
ATOM     11  C   UNL d   1     -42.389-122.350 -55.021  0.00  0.00     0.002 A 
ENDBRANCH   1   2
BRANCH   1  12
ATOM     12  N   UNL d   1     -42.167-122.519 -51.261  0.00  0.00    -0.302 N 
ATOM     13  C   UNL d   1     -41.663-122.839 -50.708  0.00  0.00     0.080 A 
ATOM     14  C   UNL d   1     -41.974-123.175 -50.023  0.00  0.00     0.024 A 
ATOM     15  C   UNL d   1     -42.795-123.178 -49.913  0.00  0.00     0.067 A 
ATOM     16  C   UNL d   1     -43.298-122.857 -50.469  0.00  0.00     0.024 A 
ATOM     17  C   UNL d   1     -42.986-122.521 -51.155  0.00  0.00     0.080 A 
BRANCH  15  18
ATOM     18  C   UNL d   1     -43.124-123.517 -49.220  0.00  0.00     0.300 C 
ATOM     19  O   UNL d   1     -43.946-123.596 -49.143  0.00  0.00    -0.259 OA
BRANCH  18  20
ATOM     20  O   UNL d   1     -42.621-123.764 -48.627  0.00  0.00    -0.271 OA
BRANCH  20  21
ATOM     21  C   UNL d   1     -42.895-123.808 -47.852  0.00  0.00     0.126 C 
ATOM     22  C   UNL d   1     -42.368-123.741 -47.237  0.00  0.00     0.029 C 
ENDBRANCH  20  21
ENDBRANCH  18  20
ENDBRANCH  15  18
ENDBRANCH   1  12
BRANCH   1  23
ATOM     23  C   UNL d   1     -41.605-121.375 -51.962  0.00  0.00     0.098 A 
ATOM     24  N   UNL d   1     -41.560-120.960 -52.662  0.00  0.00    -0.243 NA
ATOM     25  C   UNL d   1     -41.320-120.181 -52.668  0.00  0.00     0.099 A 
ATOM     26  C   UNL d   1     -41.123-119.811 -51.964  0.00  0.00     0.021 A 
ATOM     27  C   UNL d   1     -41.163-120.216 -51.252  0.00  0.00     0.003 A 
ATOM     28  C   UNL d   1     -41.404-121.006 -51.232  0.00  0.00     0.021 A 
ENDBRANCH   1  23
TORSDOF 6
ENDMDL
MODEL 2
REMARK VINA RESULT:       2.6      1.950      4.167
REMARK  6 active torsions:
REMARK  status: ('A' for Active; 'I' for Inactive)
REMARK    1  A    between atoms: C_5  and  C_1 
REMARK    2  A    between atoms: N_6  and  C_5 
REMARK    3  A    between atoms: C_9  and  C_5 
REMARK    4  A    between atoms: C_8  and  C_11 
REMARK    5  A    between atoms: O_18  and  C_8 
REMARK    6  A    between atoms: C_23  and  O_18 
ROOT
ATOM      1  C   UNL d   1     -41.988-122.137 -51.770  0.00  0.00     0.083 C 
ENDROOT
BRANCH   1   2
ATOM      2  C   UNL d   1     -42.226-122.705 -51.207  0.00  0.00     0.037 A 
ATOM      3  C   UNL d   1     -41.834-123.412 -51.039  0.00  0.00     0.083 A 
ATOM      4  N   UNL d   1     -42.230-123.816 -50.464  0.00  0.00    -0.245 NA
ATOM      5  C   UNL d   1     -41.124-123.668 -51.418  0.00  0.00     0.021 C 
ATOM      6  C   UNL d   1     -42.878-123.378 -50.255  0.00  0.00     0.081 A 
ATOM      7  C   UNL d   1     -42.876-122.693 -50.714  0.00  0.00     0.021 A 
ATOM      8  C   UNL d   1     -43.480-123.503 -49.706  0.00  0.00     0.019 A 
ATOM      9  C   UNL d   1     -43.476-122.134 -50.622  0.00  0.00     0.002 A 
ATOM     10  C   UNL d   1     -44.079-122.259 -50.072  0.00  0.00     0.000 A 
ATOM     11  C   UNL d   1     -44.081-122.945 -49.613  0.00  0.00     0.002 A 
ENDBRANCH   1   2
BRANCH   1  12
ATOM     12  N   UNL d   1     -42.036-122.309 -52.590  0.00  0.00    -0.302 N 
ATOM     13  C   UNL d   1     -42.533-121.873 -53.064  0.00  0.00     0.080 A 
ATOM     14  C   UNL d   1     -42.579-122.043 -53.869  0.00  0.00     0.024 A 
ATOM     15  C   UNL d   1     -42.117-122.658 -54.177  0.00  0.00     0.067 A 
ATOM     16  C   UNL d   1     -41.620-123.094 -53.700  0.00  0.00     0.024 A 
ATOM     17  C   UNL d   1     -41.574-122.922 -52.895  0.00  0.00     0.080 A 
BRANCH  15  18
ATOM     18  C   UNL d   1     -42.155-122.841 -54.994  0.00  0.00     0.300 C 
ATOM     19  O   UNL d   1     -42.561-123.517 -55.252  0.00  0.00    -0.259 OA
BRANCH  18  20
ATOM     20  O   UNL d   1     -41.787-122.344 -55.526  0.00  0.00    -0.271 OA
BRANCH  20  21
ATOM     21  C   UNL d   1     -42.241-121.892 -56.043  0.00  0.00     0.126 C 
ATOM     22  C   UNL d   1     -41.872-121.424 -56.595  0.00  0.00     0.029 C 
ENDBRANCH  20  21
ENDBRANCH  18  20
ENDBRANCH  15  18
ENDBRANCH   1  12
BRANCH   1  23
ATOM     23  C   UNL d   1     -41.699-121.392 -51.512  0.00  0.00     0.098 A 
ATOM     24  N   UNL d   1     -41.706-120.751 -52.017  0.00  0.00    -0.243 NA
ATOM     25  C   UNL d   1     -41.427-120.026 -51.770  0.00  0.00     0.099 A 
ATOM     26  C   UNL d   1     -41.136-119.940 -51.007  0.00  0.00     0.021 A 
ATOM     27  C   UNL d   1     -41.124-120.576 -50.490  0.00  0.00     0.003 A 
ATOM     28  C   UNL d   1     -41.403-121.316 -50.728  0.00  0.00     0.021 A 
ENDBRANCH   1  23
TORSDOF 6
ENDMDL
