MODEL 1
REMARK VINA RESULT:       2.0      0.000      0.000
REMARK  7 active torsions:
REMARK  status: ('A' for Active; 'I' for Inactive)
REMARK    1  A    between atoms: C_19  and  N_5 
REMARK    2  A    between atoms: C_12  and  C_6 
REMARK       I    between atoms: N_20  and  C_12 
REMARK    3  A    between atoms: C_21  and  C_19 
REMARK    4  A    between atoms: C_26  and  N_20 
REMARK    5  A    between atoms: C_23  and  C_26 
REMARK    6  A    between atoms: C_27  and  C_23 
REMARK    7  A    between atoms: O_24  and  C_27 
ROOT
ATOM      1  C   UNL d   1     -41.671-121.903 -52.686  0.00  0.00     0.155 A 
ATOM      2  C   UNL d   1     -41.954-122.675 -52.745  0.00  0.00     0.091 A 
ATOM      3  N   UNL d   1     -41.637-121.423 -53.354  0.00  0.00    -0.210 NA
ATOM      4  N   UNL d   1     -42.176-122.500 -54.142  0.00  0.00    -0.258 N 
ATOM      5  N   UNL d   1     -41.420-121.609 -51.958  0.00  0.00    -0.274 N 
ATOM      6  C   UNL d   1     -41.732-122.855 -51.336  0.00  0.00     0.094 A 
ATOM      7  C   UNL d   1     -42.209-122.980 -53.473  0.00  0.00     0.269 A 
ATOM      8  C   UNL d   1     -41.449-122.082 -51.282  0.00  0.00     0.175 A 
ATOM      9  C   UNL d   1     -41.888-121.716 -54.086  0.00  0.00     0.152 A 
ATOM     10  C   UNL d   1     -41.987-123.159 -52.065  0.00  0.00     0.016 A 
ATOM     11  C   UNL d   1     -42.427-122.793 -54.874  0.00  0.00     0.084 A 
ATOM     12  C   UNL d   1     -41.857-121.240 -54.755  0.00  0.00     0.038 A 
ATOM     13  N   UNL d   1     -41.197-121.786 -50.549  0.00  0.00    -0.128 N 
ATOM     14  C   UNL d   1     -42.393-122.313 -55.542  0.00  0.00     0.018 A 
ATOM     15  C   UNL d   1     -42.105-121.529 -55.482  0.00  0.00     0.005 A 
ATOM     16  O   UNL d   1     -42.492-123.753 -53.524  0.00  0.00    -0.266 OA
ATOM     17  C   UNL d   1     -42.642-122.597 -56.277  0.00  0.00     0.002 C 
ENDROOT
BRANCH   6  18
ATOM     18  C   UNL d   1     -41.764-123.331 -50.668  0.00  0.00     0.282 C 
ATOM     19  O   UNL d   1     -41.126-123.814 -50.468  0.00  0.00    -0.265 OA
ATOM     20  N   UNL d   1     -42.437-123.329 -50.191  0.00  0.00    -0.206 NA
BRANCH  20  21
ATOM     21  C   UNL d   1     -42.481-123.803 -49.518  0.00  0.00     0.104 C 
BRANCH  21  22
ATOM     22  C   UNL d   1     -43.057-123.672 -48.946  0.00  0.00     0.047 C 
BRANCH  22  23
ATOM     23  C   UNL d   1     -42.869-123.770 -48.149  0.00  0.00     0.118 C 
BRANCH  23  24
ATOM     24  O   UNL d   1     -43.018-123.165 -47.605  0.00  0.00    -0.326 OA
ATOM     25  C   UNL d   1     -43.157-123.341 -46.811  0.00  0.00     0.181 C 
ENDBRANCH  23  24
ENDBRANCH  22  23
ENDBRANCH  21  22
ENDBRANCH  20  21
ENDBRANCH   6  18
BRANCH   5  26
ATOM     26  C   UNL d   1     -41.136-120.837 -51.899  0.00  0.00     0.083 C 
BRANCH  26  27
ATOM     27  C   UNL d   1     -41.563-120.263 -51.483  0.00  0.00     0.019 C 
ATOM     28  C   UNL d   1     -41.207-119.547 -51.279  0.00  0.00     0.002 C 
ENDBRANCH  26  27
ENDBRANCH   5  26
TORSDOF 7
ENDMDL
