MODEL 1
REMARK VINA RESULT:      43.4      0.000      0.000
REMARK  3 active torsions:
REMARK  status: ('A' for Active; 'I' for Inactive)
REMARK    1  A    between atoms: C_2  and  C_1 
REMARK    2  A    between atoms: C_3  and  C_2 
REMARK       I    between atoms: N_5  and  C_3 
REMARK    3  A    between atoms: C_10  and  N_8 
ROOT
ATOM      1  C   UNL d   1      15.002  12.516  -0.853  0.00  0.00     0.304 C 
ATOM      2  N   UNL d   1      15.043  13.338  -0.871  0.00  0.00    -0.266 N 
ATOM      3  N   UNL d   1      15.125  14.989  -0.902  0.00  0.00    -0.301 N 
ATOM      4  O   UNL d   1      15.064  12.117  -0.136  0.00  0.00    -0.263 OA
ATOM      5  C   UNL d   1      15.145  13.760  -0.171  0.00  0.00     0.102 A 
ATOM      6  C   UNL d   1      14.980  13.731  -1.589  0.00  0.00     0.102 A 
ATOM      7  C   UNL d   1      15.021  14.554  -1.603  0.00  0.00     0.100 A 
ATOM      8  C   UNL d   1      15.186  14.580  -0.183  0.00  0.00     0.100 A 
ENDROOT
BRANCH   1   9
ATOM      9  C   UNL d   1      14.899  12.089  -1.559  0.00  0.00     0.253 C 
ATOM     10  O   UNL d   1      15.557  11.780  -1.951  0.00  0.00    -0.281 OA
BRANCH   9  11
ATOM     11  C   UNL d   1      14.145  11.978  -1.862  0.00  0.00     0.064 A 
ATOM     12  C   UNL d   1      13.447  11.870  -1.433  0.00  0.00     0.102 A 
ATOM     13  N   UNL d   1      12.820  11.779  -1.957  0.00  0.00    -0.244 NA
ATOM     14  C   UNL d   1      13.126  11.830  -2.722  0.00  0.00     0.082 A 
ATOM     15  C   UNL d   1      13.943  11.952  -2.663  0.00  0.00     0.022 A 
ATOM     16  C   UNL d   1      12.769  11.781  -3.462  0.00  0.00     0.019 A 
ATOM     17  C   UNL d   1      14.397  12.025  -3.346  0.00  0.00     0.002 A 
ATOM     18  C   UNL d   1      14.034  11.975  -4.094  0.00  0.00     0.000 A 
ATOM     19  C   UNL d   1      13.224  11.853  -4.144  0.00  0.00     0.002 A 
ENDBRANCH   9  11
ENDBRANCH   1   9
BRANCH   3  20
ATOM     20  C   UNL d   1      15.166  15.806  -0.911  0.00  0.00     0.064 A 
ATOM     21  C   UNL d   1      14.959  16.228  -1.587  0.00  0.00     0.020 A 
ATOM     22  C   UNL d   1      15.005  17.056  -1.584  0.00  0.00     0.031 A 
ATOM     23  C   UNL d   1      15.257  17.459  -0.906  0.00  0.00     0.140 A 
ATOM     24  C   UNL d   1      15.466  17.031  -0.224  0.00  0.00     0.031 A 
ATOM     25  F   UNL d   1      15.301  18.282  -0.910  0.00  0.00    -0.204 F 
ATOM     26  C   UNL d   1      15.419  16.211  -0.231  0.00  0.00     0.020 A 
ENDBRANCH   3  20
TORSDOF 3
ENDMDL
