MODEL 1
REMARK VINA RESULT:      34.5      0.000      0.000
REMARK  2 active torsions:
REMARK  status: ('A' for Active; 'I' for Inactive)
REMARK       I    between atoms: N_2  and  C_1 
REMARK       I    between atoms: N_3  and  C_1 
REMARK    1  A    between atoms: C_12  and  N_3 
REMARK    2  A    between atoms: C_5  and  N_4 
ROOT
ATOM      1  C   UNL d   1     -54.728-102.136 -40.477  0.00  0.00     0.339 C 
ATOM      2  N   UNL d   1     -54.733-102.142 -39.652  0.00  0.00    -0.254 N 
ATOM      3  N   UNL d   1     -54.736-101.419 -40.889  0.00  0.00    -0.257 N 
ATOM      4  N   UNL d   1     -54.743-102.155 -37.989  0.00  0.00    -0.286 N 
ATOM      5  O   UNL d   1     -54.715-102.857 -40.887  0.00  0.00    -0.245 OA
ATOM      6  C   UNL d   1     -54.725-102.857 -39.237  0.00  0.00     0.104 A 
ATOM      7  C   UNL d   1     -54.746-101.424 -39.226  0.00  0.00     0.104 A 
ATOM      8  C   UNL d   1     -54.730-102.863 -38.412  0.00  0.00     0.101 A 
ATOM      9  C   UNL d   1     -54.751-101.430 -38.397  0.00  0.00     0.101 A 
ATOM     10  C   UNL d   1     -54.748-100.711 -40.478  0.00  0.00     0.104 C 
ENDROOT
BRANCH   3  11
ATOM     11  C   UNL d   1     -54.731-101.417 -41.722  0.00  0.00     0.068 A 
ATOM     12  C   UNL d   1     -54.735-102.135 -42.139  0.00  0.00     0.018 A 
ATOM     13  C   UNL d   1     -54.730-102.120 -42.964  0.00  0.00     0.002 A 
ATOM     14  C   UNL d   1     -54.720-101.400 -43.372  0.00  0.00     0.000 A 
ATOM     15  C   UNL d   1     -54.716-100.692 -42.941  0.00  0.00     0.002 A 
ATOM     16  C   UNL d   1     -54.721-100.702 -42.116  0.00  0.00     0.018 A 
ENDBRANCH   3  11
BRANCH   4  17
ATOM     17  C   UNL d   1     -54.748-102.161 -37.164  0.00  0.00     0.148 A 
ATOM     18  N   UNL d   1     -54.713-101.452 -36.759  0.00  0.00    -0.227 NA
ATOM     19  C   UNL d   1     -54.718-101.458 -35.938  0.00  0.00     0.101 A 
ATOM     20  C   UNL d   1     -54.758-102.160 -35.531  0.00  0.00     0.021 A 
ATOM     21  C   UNL d   1     -54.793-102.869 -35.949  0.00  0.00     0.005 A 
ATOM     22  C   UNL d   1     -54.788-102.863 -36.762  0.00  0.00     0.037 A 
ENDBRANCH   4  17
TORSDOF 2
ENDMDL
