MODEL 1
REMARK VINA RESULT:      15.0      0.000      0.000
REMARK  0 active torsions:
REMARK  status: ('A' for Active; 'I' for Inactive)
ROOT
ATOM      1  C   UNL d   1      44.129 -16.055  36.530  0.00  0.00     0.180 A 
ATOM      2  C   UNL d   1      43.746 -15.336  36.698  0.00  0.00     0.118 A 
ATOM      3  N   UNL d   1      44.181 -14.667  36.883  0.00  0.00    -0.241 NA
ATOM      4  N   UNL d   1      43.551 -16.621  36.366  0.00  0.00    -0.225 NA
ATOM      5  N   UNL d   1      44.952 -16.088  36.550  0.00  0.00    -0.224 NA
ATOM      6  C   UNL d   1      42.931 -15.468  36.636  0.00  0.00     0.038 A 
ATOM      7  C   UNL d   1      42.808 -16.259  36.432  0.00  0.00     0.085 A 
ATOM      8  C   UNL d   1      45.002 -14.709  36.901  0.00  0.00     0.099 A 
ATOM      9  C   UNL d   1      45.386 -15.419  36.735  0.00  0.00     0.101 A 
ATOM     10  C   UNL d   1      42.284 -14.962  36.742  0.00  0.00     0.003 A 
ATOM     11  C   UNL d   1      42.035 -16.553  36.330  0.00  0.00     0.019 A 
ATOM     12  C   UNL d   1      45.445 -14.041  37.086  0.00  0.00     0.021 A 
ATOM     13  C   UNL d   1      46.204 -15.456  36.754  0.00  0.00     0.021 A 
ATOM     14  C   UNL d   1      41.515 -15.256  36.640  0.00  0.00     0.000 A 
ATOM     15  C   UNL d   1      41.391 -16.047  36.436  0.00  0.00     0.002 A 
ATOM     16  C   UNL d   1      46.264 -14.078  37.105  0.00  0.00     0.002 A 
ATOM     17  C   UNL d   1      46.647 -14.788  36.939  0.00  0.00     0.002 A 
ENDROOT
TORSDOF 0
ENDMDL
MODEL 2
REMARK VINA RESULT:      15.2      0.404      3.413
REMARK  0 active torsions:
REMARK  status: ('A' for Active; 'I' for Inactive)
ROOT
ATOM      1  C   UNL d   1      44.386 -15.808  36.529  0.00  0.00     0.180 A 
ATOM      2  C   UNL d   1      44.283 -15.086  36.927  0.00  0.00     0.118 A 
ATOM      3  N   UNL d   1      43.533 -14.823  37.124  0.00  0.00    -0.241 NA
ATOM      4  N   UNL d   1      45.195 -15.922  36.409  0.00  0.00    -0.225 NA
ATOM      5  N   UNL d   1      43.725 -16.259  36.332  0.00  0.00    -0.224 NA
ATOM      6  C   UNL d   1      45.034 -14.760  37.049  0.00  0.00     0.038 A 
ATOM      7  C   UNL d   1      45.599 -15.273  36.731  0.00  0.00     0.085 A 
ATOM      8  C   UNL d   1      42.878 -15.279  36.924  0.00  0.00     0.099 A 
ATOM      9  C   UNL d   1      42.975 -15.996  36.529  0.00  0.00     0.101 A 
ATOM     10  C   UNL d   1      45.275 -14.056  37.413  0.00  0.00     0.003 A 
ATOM     11  C   UNL d   1      46.410 -15.087  36.773  0.00  0.00     0.019 A 
ATOM     12  C   UNL d   1      42.122 -15.021  37.119  0.00  0.00     0.021 A 
ATOM     13  C   UNL d   1      42.320 -16.447  36.332  0.00  0.00     0.021 A 
ATOM     14  C   UNL d   1      46.083 -13.872  37.454  0.00  0.00     0.000 A 
ATOM     15  C   UNL d   1      46.647 -14.385  37.136  0.00  0.00     0.002 A 
ATOM     16  C   UNL d   1      41.466 -15.472  36.922  0.00  0.00     0.002 A 
ATOM     17  C   UNL d   1      41.564 -16.189  36.527  0.00  0.00     0.002 A 
ENDROOT
TORSDOF 0
ENDMDL
MODEL 3
REMARK VINA RESULT:      16.0      6.975      7.659
REMARK  0 active torsions:
REMARK  status: ('A' for Active; 'I' for Inactive)
ROOT
ATOM      1  C   UNL d   1      46.633 -19.850  42.077  0.00  0.00     0.180 A 
ATOM      2  C   UNL d   1      46.632 -19.019  42.111  0.00  0.00     0.118 A 
ATOM      3  N   UNL d   1      46.630 -18.633  42.833  0.00  0.00    -0.241 NA
ATOM      4  N   UNL d   1      46.636 -20.074  41.282  0.00  0.00    -0.225 NA
ATOM      5  N   UNL d   1      46.631 -20.283  42.778  0.00  0.00    -0.224 NA
ATOM      6  C   UNL d   1      46.635 -18.738  41.332  0.00  0.00     0.038 A 
ATOM      7  C   UNL d   1      46.637 -19.386  40.819  0.00  0.00     0.085 A 
ATOM      8  C   UNL d   1      46.628 -19.072  43.529  0.00  0.00     0.099 A 
ATOM      9  C   UNL d   1      46.629 -19.896  43.499  0.00  0.00     0.101 A 
ATOM     10  C   UNL d   1      46.635 -17.969  41.026  0.00  0.00     0.003 A 
ATOM     11  C   UNL d   1      46.640 -19.271  39.994  0.00  0.00     0.019 A 
ATOM     12  C   UNL d   1      46.625 -18.691  44.257  0.00  0.00     0.021 A 
ATOM     13  C   UNL d   1      46.627 -20.330  44.195  0.00  0.00     0.021 A 
ATOM     14  C   UNL d   1      46.638 -17.856  40.204  0.00  0.00     0.000 A 
ATOM     15  C   UNL d   1      46.640 -18.503  39.691  0.00  0.00     0.002 A 
ATOM     16  C   UNL d   1      46.623 -19.125  44.953  0.00  0.00     0.002 A 
ATOM     17  C   UNL d   1      46.624 -19.948  44.923  0.00  0.00     0.002 A 
ENDROOT
TORSDOF 0
ENDMDL
