MODEL 1
REMARK VINA RESULT:      40.5      0.000      0.000
REMARK  6 active torsions:
REMARK  status: ('A' for Active; 'I' for Inactive)
REMARK       I    between atoms: C_2  and  N_1 
REMARK    1  A    between atoms: O_20  and  C_2 
REMARK       I    between atoms: C_5  and  N_3 
REMARK    2  A    between atoms: C_16  and  C_5 
REMARK    3  A    between atoms: C_9  and  C_7 
REMARK    4  A    between atoms: C_8  and  S_14 
REMARK    5  A    between atoms: S_14  and  C_16 
REMARK    6  A    between atoms: C_25  and  O_20 
ROOT
ATOM      1  C   UNL d   1      46.311 -18.092  40.386  0.00  0.00     0.098 C 
ENDROOT
BRANCH   1   2
ATOM      2  S   UNL d   1      46.536 -17.937  39.612  0.00  0.00    -0.061 SA
BRANCH   2   3
ATOM      3  C   UNL d   1      46.051 -17.485  39.120  0.00  0.00     0.133 A 
ATOM      4  N   UNL d   1      45.265 -17.686  39.010  0.00  0.00    -0.141 NA
ATOM      5  N   UNL d   1      44.781 -17.235  38.517  0.00  0.00    -0.148 NA
ATOM      6  C   UNL d   1      45.088 -16.570  38.128  0.00  0.00     0.104 A 
ATOM      7  C   UNL d   1      45.882 -16.365  38.237  0.00  0.00     0.023 A 
ATOM      8  C   UNL d   1      46.362 -16.817  38.729  0.00  0.00     0.029 A 
BRANCH   6   9
ATOM      9  C   UNL d   1      44.604 -16.119  37.636  0.00  0.00     0.039 A 
ATOM     10  C   UNL d   1      44.905 -15.816  36.943  0.00  0.00     0.101 A 
ATOM     11  N   UNL d   1      44.428 -15.368  36.451  0.00  0.00    -0.242 NA
ATOM     12  C   UNL d   1      43.636 -15.223  36.663  0.00  0.00     0.099 A 
ATOM     13  C   UNL d   1      43.339 -15.529  37.361  0.00  0.00     0.021 A 
ATOM     14  C   UNL d   1      43.816 -15.982  37.860  0.00  0.00     0.005 A 
ENDBRANCH   6   9
ENDBRANCH   2   3
ENDBRANCH   1   2
BRANCH   1  15
ATOM     15  C   UNL d   1      46.465 -18.835  40.715  0.00  0.00     0.272 C 
ATOM     16  N   UNL d   1      46.472 -18.927  41.532  0.00  0.00    -0.269 N 
ATOM     17  C   UNL d   1      46.324 -18.273  42.020  0.00  0.00     0.102 A 
ATOM     18  C   UNL d   1      46.624 -19.662  41.857  0.00  0.00     0.102 A 
ATOM     19  C   UNL d   1      46.332 -18.373  42.831  0.00  0.00     0.104 A 
ATOM     20  N   UNL d   1      46.484 -19.109  43.166  0.00  0.00    -0.249 N 
ATOM     21  C   UNL d   1      46.493 -19.213  43.979  0.00  0.00     0.378 C 
ATOM     22  C   UNL d   1      46.631 -19.759  42.677  0.00  0.00     0.104 A 
ATOM     23  O   UNL d   1      46.345 -18.562  44.468  0.00  0.00    -0.237 OA
ATOM     24  O   UNL d   1      46.610 -19.476  40.234  0.00  0.00    -0.266 OA
BRANCH  21  25
ATOM     25  O   UNL d   1      46.646 -19.951  44.305  0.00  0.00    -0.257 OA
BRANCH  25  26
ATOM     26  C   UNL d   1      46.223 -20.211  44.955  0.00  0.00     0.128 C 
ATOM     27  C   UNL d   1      45.419 -20.329  44.902  0.00  0.00     0.029 C 
ENDBRANCH  25  26
ENDBRANCH  21  25
ENDBRANCH   1  15
TORSDOF 6
ENDMDL
