MODEL 1
REMARK VINA RESULT:      78.9      0.000      0.000
REMARK  5 active torsions:
REMARK  status: ('A' for Active; 'I' for Inactive)
REMARK    1  A    between atoms: C_3  and  C_1 
REMARK    2  A    between atoms: S_2  and  C_3 
REMARK    3  A    between atoms: C_7  and  S_2 
REMARK    4  A    between atoms: C_9  and  C_3 
REMARK    5  A    between atoms: N_8  and  C_4 
ROOT
ATOM      1  C   UNL d   1     -51.531  25.359  33.696  0.00  0.00     0.128 A 
ATOM      2  C   UNL d   1     -51.098  24.667  33.580  0.00  0.00     0.166 A 
ATOM      3  N   UNL d   1     -52.353  25.338  33.684  0.00  0.00    -0.240 NA
ATOM      4  N   UNL d   1     -51.493  23.949  33.453  0.00  0.00    -0.225 NA
ATOM      5  C   UNL d   1     -52.739  24.627  33.558  0.00  0.00     0.099 A 
ATOM      6  C   UNL d   1     -52.311  23.935  33.443  0.00  0.00     0.101 A 
ATOM      7  C   UNL d   1     -52.709  23.220  33.316  0.00  0.00     0.021 A 
ATOM      8  C   UNL d   1     -53.563  24.608  33.547  0.00  0.00     0.021 A 
ATOM      9  C   UNL d   1     -53.954  23.899  33.421  0.00  0.00     0.002 A 
ATOM     10  C   UNL d   1     -53.528  23.207  33.306  0.00  0.00     0.002 A 
ENDROOT
BRANCH   1  11
ATOM     11  C   UNL d   1     -51.142  26.072  33.823  0.00  0.00     0.129 C 
BRANCH  11  12
ATOM     12  S   UNL d   1     -51.470  26.618  34.448  0.00  0.00     0.213 S 
ATOM     13  O   UNL d   1     -51.570  27.013  33.725  0.00  0.00    -0.217 OA
ATOM     14  O   UNL d   1     -51.802  27.398  34.175  0.00  0.00    -0.217 OA
BRANCH  12  15
ATOM     15  C   UNL d   1     -51.540  26.562  35.275  0.00  0.00     0.088 A 
ATOM     16  C   UNL d   1     -50.906  26.772  35.758  0.00  0.00     0.011 A 
ATOM     17  C   UNL d   1     -50.973  26.718  36.583  0.00  0.00     0.001 A 
ATOM     18  C   UNL d   1     -50.340  26.928  37.066  0.00  0.00     0.000 C 
ATOM     19  C   UNL d   1     -51.682  26.450  36.917  0.00  0.00     0.000 A 
ATOM     20  C   UNL d   1     -52.320  26.238  36.427  0.00  0.00     0.001 A 
ATOM     21  C   UNL d   1     -51.756  26.393  37.732  0.00  0.00     0.000 C 
ATOM     22  C   UNL d   1     -52.247  26.295  35.607  0.00  0.00     0.011 A 
ENDBRANCH  12  15
ENDBRANCH  11  12
BRANCH  11  23
ATOM     23  C   UNL d   1     -50.443  26.399  33.440  0.00  0.00     0.135 C 
ATOM     24  N   UNL d   1     -50.242  27.255  33.306  0.00  0.00    -0.146 N 
ENDBRANCH  11  23
ENDBRANCH   1  11
BRANCH   2  25
ATOM     25  N   UNL d   1     -50.266  24.697  33.594  0.00  0.00    -0.288 N 
ATOM     26  C   UNL d   1     -49.753  24.116  33.307  0.00  0.00     0.082 A 
ATOM     27  C   UNL d   1     -48.969  24.381  33.435  0.00  0.00     0.021 A 
ATOM     28  C   UNL d   1     -49.005  25.130  33.803  0.00  0.00     0.021 A 
ATOM     29  C   UNL d   1     -49.812  25.328  33.902  0.00  0.00     0.082 A 
ENDBRANCH   2  25
TORSDOF 5
ENDMDL
