MODEL 1
REMARK VINA RESULT:      -9.5      0.000      0.000
REMARK  5 active torsions:
REMARK  status: ('A' for Active; 'I' for Inactive)
REMARK    1  A    between atoms: C_8  and  N_1 
REMARK    2  A    between atoms: C_5  and  C_21 
REMARK    3  A    between atoms: C_9  and  C_12 
REMARK       I    between atoms: N_20  and  C_9 
REMARK    4  A    between atoms: C_22  and  N_20 
REMARK    5  A    between atoms: C_21  and  C_22 
ROOT
ATOM      1  C   UNL d   1      50.493  34.004  52.483  0.00  0.00     0.026 C 
ENDROOT
BRANCH   1   2
ATOM      2  C   UNL d   1      49.817  34.460  52.387  0.00  0.00     0.059 A 
ATOM      3  C   UNL d   1      49.451  34.501  51.637  0.00  0.00     0.279 A 
ATOM      4  N   UNL d   1      48.768  34.960  51.536  0.00  0.00    -0.208 NA
ATOM      5  O   UNL d   1      49.768  34.085  50.999  0.00  0.00    -0.265 OA
ATOM      6  C   UNL d   1      48.449  35.381  52.184  0.00  0.00     0.085 A 
ATOM      7  C   UNL d   1      48.818  35.335  52.923  0.00  0.00     0.018 A 
ATOM      8  C   UNL d   1      47.766  35.837  52.074  0.00  0.00     0.019 A 
ATOM      9  C   UNL d   1      49.497  34.879  53.027  0.00  0.00     0.006 A 
ATOM     10  C   UNL d   1      48.495  35.756  53.564  0.00  0.00     0.002 A 
ATOM     11  C   UNL d   1      47.816  36.212  53.461  0.00  0.00     0.000 A 
ATOM     12  C   UNL d   1      47.449  36.253  52.712  0.00  0.00     0.002 A 
ATOM     13  C   UNL d   1      47.495  36.628  54.092  0.00  0.00     0.000 C 
ATOM     14  C   UNL d   1      46.770  36.709  52.609  0.00  0.00     0.000 C 
ENDBRANCH   1   2
BRANCH   1  15
ATOM     15  C   UNL d   1      51.140  34.292  52.898  0.00  0.00     0.102 C 
BRANCH  15  16
ATOM     16  N   UNL d   1      51.752  33.790  53.139  0.00  0.00    -0.206 NA
ATOM     17  C   UNL d   1      52.503  34.095  53.304  0.00  0.00     0.279 C 
ATOM     18  O   UNL d   1      52.649  34.901  53.232  0.00  0.00    -0.265 OA
BRANCH  17  19
ATOM     19  C   UNL d   1      53.110  33.585  53.544  0.00  0.00     0.059 A 
ATOM     20  C   UNL d   1      53.544  33.745  54.209  0.00  0.00     0.028 A 
ATOM     21  C   UNL d   1      54.144  33.258  54.462  0.00  0.00     0.127 A 
ATOM     22  C   UNL d   1      54.315  32.581  54.029  0.00  0.00     0.024 A 
ATOM     23  C   UNL d   1      53.897  32.392  53.355  0.00  0.00     0.002 A 
ATOM     24  C   UNL d   1      53.283  32.909  53.114  0.00  0.00     0.005 A 
BRANCH  21  25
ATOM     25  N   UNL d   1      54.589  33.417  55.140  0.00  0.00    -0.114 N 
ATOM     26  O   UNL d   1      54.438  32.966  55.846  0.00  0.00    -0.532 OA
ATOM     27  O   UNL d   1      55.182  33.999  55.172  0.00  0.00    -0.532 OA
ENDBRANCH  21  25
ENDBRANCH  17  19
ENDBRANCH  15  16
ENDBRANCH   1  15
TORSDOF 5
ENDMDL
MODEL 2
REMARK VINA RESULT:      -9.5      1.479      6.175
REMARK  5 active torsions:
REMARK  status: ('A' for Active; 'I' for Inactive)
REMARK    1  A    between atoms: C_8  and  N_1 
REMARK    2  A    between atoms: C_5  and  C_21 
REMARK    3  A    between atoms: C_9  and  C_12 
REMARK       I    between atoms: N_20  and  C_9 
REMARK    4  A    between atoms: C_22  and  N_20 
REMARK    5  A    between atoms: C_21  and  C_22 
ROOT
ATOM      1  C   UNL d   1      51.367  34.517  52.990  0.00  0.00     0.026 C 
ENDROOT
BRANCH   1   2
ATOM      2  C   UNL d   1      51.946  33.953  53.137  0.00  0.00     0.059 A 
ATOM      3  C   UNL d   1      52.680  34.191  53.458  0.00  0.00     0.279 A 
ATOM      4  N   UNL d   1      53.267  33.625  53.608  0.00  0.00    -0.208 NA
ATOM      5  O   UNL d   1      52.819  34.986  53.626  0.00  0.00    -0.265 OA
ATOM      6  C   UNL d   1      53.123  32.820  53.437  0.00  0.00     0.085 A 
ATOM      7  C   UNL d   1      52.394  32.592  53.119  0.00  0.00     0.018 A 
ATOM      8  C   UNL d   1      53.716  32.261  53.590  0.00  0.00     0.019 A 
ATOM      9  C   UNL d   1      51.808  33.153  52.970  0.00  0.00     0.006 A 
ATOM     10  C   UNL d   1      52.256  31.789  52.952  0.00  0.00     0.002 A 
ATOM     11  C   UNL d   1      52.842  31.228  53.102  0.00  0.00     0.000 A 
ATOM     12  C   UNL d   1      53.576  31.465  53.423  0.00  0.00     0.002 A 
ATOM     13  C   UNL d   1      52.710  30.435  52.937  0.00  0.00     0.000 C 
ATOM     14  C   UNL d   1      54.162  30.904  53.572  0.00  0.00     0.000 C 
ENDBRANCH   1   2
BRANCH   1  15
ATOM     15  C   UNL d   1      50.631  34.298  52.701  0.00  0.00     0.102 C 
BRANCH  15  16
ATOM     16  N   UNL d   1      49.955  34.745  52.870  0.00  0.00    -0.206 NA
ATOM     17  C   UNL d   1      49.351  34.819  52.309  0.00  0.00     0.279 C 
ATOM     18  O   UNL d   1      49.417  34.450  51.578  0.00  0.00    -0.265 OA
BRANCH  17  19
ATOM     19  C   UNL d   1      48.678  35.269  52.487  0.00  0.00     0.059 A 
ATOM     20  C   UNL d   1      48.054  35.297  51.972  0.00  0.00     0.028 A 
ATOM     21  C   UNL d   1      47.384  35.732  52.127  0.00  0.00     0.127 A 
ATOM     22  C   UNL d   1      47.339  36.155  52.829  0.00  0.00     0.024 A 
ATOM     23  C   UNL d   1      47.951  36.147  53.369  0.00  0.00     0.002 A 
ATOM     24  C   UNL d   1      48.631  35.692  53.187  0.00  0.00     0.005 A 
BRANCH  21  25
ATOM     25  N   UNL d   1      46.745  35.764  51.604  0.00  0.00    -0.114 N 
ATOM     26  O   UNL d   1      46.338  36.503  51.498  0.00  0.00    -0.532 OA
ATOM     27  O   UNL d   1      46.474  35.107  51.171  0.00  0.00    -0.532 OA
ENDBRANCH  21  25
ENDBRANCH  17  19
ENDBRANCH  15  16
ENDBRANCH   1  15
TORSDOF 5
ENDMDL
MODEL 3
REMARK VINA RESULT:      -8.9      1.781      5.924
REMARK  5 active torsions:
REMARK  status: ('A' for Active; 'I' for Inactive)
REMARK    1  A    between atoms: C_8  and  N_1 
REMARK    2  A    between atoms: C_5  and  C_21 
REMARK    3  A    between atoms: C_9  and  C_12 
REMARK       I    between atoms: N_20  and  C_9 
REMARK    4  A    between atoms: C_22  and  N_20 
REMARK    5  A    between atoms: C_21  and  C_22 
ROOT
ATOM      1  C   UNL d   1      51.271  33.253  52.730  0.00  0.00     0.026 C 
ENDROOT
BRANCH   1   2
ATOM      2  C   UNL d   1      51.993  33.188  53.115  0.00  0.00     0.059 A 
ATOM      3  C   UNL d   1      52.480  32.525  52.969  0.00  0.00     0.279 A 
ATOM      4  N   UNL d   1      53.210  32.456  53.355  0.00  0.00    -0.208 NA
ATOM      5  O   UNL d   1      52.234  31.941  52.440  0.00  0.00    -0.265 OA
ATOM      6  C   UNL d   1      53.456  33.049  53.890  0.00  0.00     0.085 A 
ATOM      7  C   UNL d   1      52.969  33.702  54.029  0.00  0.00     0.018 A 
ATOM      8  C   UNL d   1      54.188  32.971  54.272  0.00  0.00     0.019 A 
ATOM      9  C   UNL d   1      52.242  33.774  53.646  0.00  0.00     0.006 A 
ATOM     10  C   UNL d   1      53.220  34.289  54.563  0.00  0.00     0.002 A 
ATOM     11  C   UNL d   1      53.947  34.218  54.946  0.00  0.00     0.000 A 
ATOM     12  C   UNL d   1      54.433  33.555  54.800  0.00  0.00     0.002 A 
ATOM     13  C   UNL d   1      54.197  34.796  55.473  0.00  0.00     0.000 C 
ATOM     14  C   UNL d   1      55.160  33.484  55.183  0.00  0.00     0.000 C 
ENDBRANCH   1   2
BRANCH   1  15
ATOM     15  C   UNL d   1      50.792  33.910  52.842  0.00  0.00     0.102 C 
BRANCH  15  16
ATOM     16  N   UNL d   1      50.156  34.068  52.335  0.00  0.00    -0.206 NA
ATOM     17  C   UNL d   1      49.645  34.700  52.490  0.00  0.00     0.279 C 
ATOM     18  O   UNL d   1      49.763  35.177  53.148  0.00  0.00    -0.265 OA
BRANCH  17  19
ATOM     19  C   UNL d   1      49.012  34.850  51.977  0.00  0.00     0.059 A 
ATOM     20  C   UNL d   1      48.376  35.287  52.225  0.00  0.00     0.028 A 
ATOM     21  C   UNL d   1      47.744  35.446  51.738  0.00  0.00     0.127 A 
ATOM     22  C   UNL d   1      47.752  35.155  50.971  0.00  0.00     0.024 A 
ATOM     23  C   UNL d   1      48.377  34.712  50.691  0.00  0.00     0.002 A 
ATOM     24  C   UNL d   1      49.016  34.561  51.211  0.00  0.00     0.005 A 
BRANCH  21  25
ATOM     25  N   UNL d   1      47.094  35.891  51.987  0.00  0.00    -0.114 N 
ATOM     26  O   UNL d   1      47.215  36.700  52.220  0.00  0.00    -0.532 OA
ATOM     27  O   UNL d   1      46.320  35.589  52.023  0.00  0.00    -0.532 OA
ENDBRANCH  21  25
ENDBRANCH  17  19
ENDBRANCH  15  16
ENDBRANCH   1  15
TORSDOF 5
ENDMDL
MODEL 4
REMARK VINA RESULT:      -8.3      2.010      6.065
REMARK  5 active torsions:
REMARK  status: ('A' for Active; 'I' for Inactive)
REMARK    1  A    between atoms: C_8  and  N_1 
REMARK    2  A    between atoms: C_5  and  C_21 
REMARK    3  A    between atoms: C_9  and  C_12 
REMARK       I    between atoms: N_20  and  C_9 
REMARK    4  A    between atoms: C_22  and  N_20 
REMARK    5  A    between atoms: C_21  and  C_22 
ROOT
ATOM      1  C   UNL d   1      50.211  34.343  52.677  0.00  0.00     0.026 C 
ENDROOT
BRANCH   1   2
ATOM      2  C   UNL d   1      50.904  34.091  53.038  0.00  0.00     0.059 A 
ATOM      3  C   UNL d   1      51.023  33.276  53.177  0.00  0.00     0.279 A 
ATOM      4  N   UNL d   1      51.721  33.017  53.541  0.00  0.00    -0.208 NA
ATOM      5  O   UNL d   1      50.447  32.730  52.951  0.00  0.00    -0.265 OA
ATOM      6  C   UNL d   1      52.303  33.572  53.769  0.00  0.00     0.085 A 
ATOM      7  C   UNL d   1      52.177  34.377  53.629  0.00  0.00     0.018 A 
ATOM      8  C   UNL d   1      52.997  33.304  54.133  0.00  0.00     0.019 A 
ATOM      9  C   UNL d   1      51.484  34.637  53.266  0.00  0.00     0.006 A 
ATOM     10  C   UNL d   1      52.760  34.925  53.858  0.00  0.00     0.002 A 
ATOM     11  C   UNL d   1      53.454  34.664  54.221  0.00  0.00     0.000 A 
ATOM     12  C   UNL d   1      53.573  33.850  54.359  0.00  0.00     0.002 A 
ATOM     13  C   UNL d   1      54.031  35.203  54.448  0.00  0.00     0.000 C 
ATOM     14  C   UNL d   1      54.267  33.590  54.722  0.00  0.00     0.000 C 
ENDBRANCH   1   2
BRANCH   1  15
ATOM     15  C   UNL d   1      49.742  34.921  53.023  0.00  0.00     0.102 C 
BRANCH  15  16
ATOM     16  N   UNL d   1      48.978  35.077  52.743  0.00  0.00    -0.206 NA
ATOM     17  C   UNL d   1      48.540  35.706  53.054  0.00  0.00     0.279 C 
ATOM     18  O   UNL d   1      48.857  36.183  53.643  0.00  0.00    -0.265 OA
BRANCH  17  19
ATOM     19  C   UNL d   1      47.776  35.854  52.768  0.00  0.00     0.059 A 
ATOM     20  C   UNL d   1      47.146  35.891  53.276  0.00  0.00     0.028 A 
ATOM     21  C   UNL d   1      46.389  36.036  53.016  0.00  0.00     0.127 A 
ATOM     22  C   UNL d   1      46.260  36.148  52.213  0.00  0.00     0.024 A 
ATOM     23  C   UNL d   1      46.872  36.117  51.676  0.00  0.00     0.002 A 
ATOM     24  C   UNL d   1      47.644  35.966  51.967  0.00  0.00     0.005 A 
BRANCH  21  25
ATOM     25  N   UNL d   1      45.744  36.075  53.531  0.00  0.00    -0.114 N 
ATOM     26  O   UNL d   1      45.164  35.452  53.509  0.00  0.00    -0.532 OA
ATOM     27  O   UNL d   1      45.627  36.693  54.074  0.00  0.00    -0.532 OA
ENDBRANCH  21  25
ENDBRANCH  17  19
ENDBRANCH  15  16
ENDBRANCH   1  15
TORSDOF 5
ENDMDL
MODEL 5
REMARK VINA RESULT:      -8.3      1.773      2.818
REMARK  5 active torsions:
REMARK  status: ('A' for Active; 'I' for Inactive)
REMARK    1  A    between atoms: C_8  and  N_1 
REMARK    2  A    between atoms: C_5  and  C_21 
REMARK    3  A    between atoms: C_9  and  C_12 
REMARK       I    between atoms: N_20  and  C_9 
REMARK    4  A    between atoms: C_22  and  N_20 
REMARK    5  A    between atoms: C_21  and  C_22 
ROOT
ATOM      1  C   UNL d   1      48.834  35.668  53.328  0.00  0.00     0.026 C 
ENDROOT
BRANCH   1   2
ATOM      2  C   UNL d   1      48.068  35.894  53.139  0.00  0.00     0.059 A 
ATOM      3  C   UNL d   1      47.645  36.392  53.659  0.00  0.00     0.279 A 
ATOM      4  N   UNL d   1      46.871  36.623  53.471  0.00  0.00    -0.208 NA
ATOM      5  O   UNL d   1      47.997  36.655  54.357  0.00  0.00    -0.265 OA
ATOM      6  C   UNL d   1      46.517  36.356  52.763  0.00  0.00     0.085 A 
ATOM      7  C   UNL d   1      46.942  35.862  52.253  0.00  0.00     0.018 A 
ATOM      8  C   UNL d   1      45.742  36.591  52.584  0.00  0.00     0.019 A 
ATOM      9  C   UNL d   1      47.712  35.632  52.437  0.00  0.00     0.006 A 
ATOM     10  C   UNL d   1      46.584  35.600  51.550  0.00  0.00     0.002 A 
ATOM     11  C   UNL d   1      45.813  35.830  51.366  0.00  0.00     0.000 A 
ATOM     12  C   UNL d   1      45.391  36.329  51.885  0.00  0.00     0.002 A 
ATOM     13  C   UNL d   1      45.457  35.573  50.672  0.00  0.00     0.000 C 
ATOM     14  C   UNL d   1      44.620  36.559  51.701  0.00  0.00     0.000 C 
ENDBRANCH   1   2
BRANCH   1  15
ATOM     15  C   UNL d   1      49.242  35.131  52.861  0.00  0.00     0.102 C 
BRANCH  15  16
ATOM     16  N   UNL d   1      49.980  34.835  53.094  0.00  0.00    -0.206 NA
ATOM     17  C   UNL d   1      50.471  34.457  52.545  0.00  0.00     0.279 C 
ATOM     18  O   UNL d   1      50.232  34.372  51.763  0.00  0.00    -0.265 OA
BRANCH  17  19
ATOM     19  C   UNL d   1      51.207  34.164  52.787  0.00  0.00     0.059 A 
ATOM     20  C   UNL d   1      51.370  33.372  52.742  0.00  0.00     0.028 A 
ATOM     21  C   UNL d   1      52.086  33.063  52.974  0.00  0.00     0.127 A 
ATOM     22  C   UNL d   1      52.662  33.572  53.263  0.00  0.00     0.024 A 
ATOM     23  C   UNL d   1      52.530  34.375  53.320  0.00  0.00     0.002 A 
ATOM     24  C   UNL d   1      51.784  34.669  53.075  0.00  0.00     0.005 A 
BRANCH  21  25
ATOM     25  N   UNL d   1      52.256  32.256  52.931  0.00  0.00    -0.114 N 
ATOM     26  O   UNL d   1      51.719  31.704  53.292  0.00  0.00    -0.532 OA
ATOM     27  O   UNL d   1      52.929  31.950  52.550  0.00  0.00    -0.532 OA
ENDBRANCH  21  25
ENDBRANCH  17  19
ENDBRANCH  15  16
ENDBRANCH   1  15
TORSDOF 5
ENDMDL
MODEL 6
REMARK VINA RESULT:      -6.7      1.862      2.395
REMARK  5 active torsions:
REMARK  status: ('A' for Active; 'I' for Inactive)
REMARK    1  A    between atoms: C_8  and  N_1 
REMARK    2  A    between atoms: C_5  and  C_21 
REMARK    3  A    between atoms: C_9  and  C_12 
REMARK       I    between atoms: N_20  and  C_9 
REMARK    4  A    between atoms: C_22  and  N_20 
REMARK    5  A    between atoms: C_21  and  C_22 
ROOT
ATOM      1  C   UNL d   1      50.966  34.301  53.253  0.00  0.00     0.026 C 
ENDROOT
BRANCH   1   2
ATOM      2  C   UNL d   1      50.251  34.663  53.075  0.00  0.00     0.059 A 
ATOM      3  C   UNL d   1      49.941  35.240  53.593  0.00  0.00     0.279 A 
ATOM      4  N   UNL d   1      49.219  35.607  53.418  0.00  0.00    -0.208 NA
ATOM      5  O   UNL d   1      50.353  35.443  54.278  0.00  0.00    -0.265 OA
ATOM      6  C   UNL d   1      48.804  35.399  52.723  0.00  0.00     0.085 A 
ATOM      7  C   UNL d   1      49.117  34.827  52.214  0.00  0.00     0.018 A 
ATOM      8  C   UNL d   1      48.083  35.772  52.555  0.00  0.00     0.019 A 
ATOM      9  C   UNL d   1      49.835  34.460  52.387  0.00  0.00     0.006 A 
ATOM     10  C   UNL d   1      48.699  34.624  51.524  0.00  0.00     0.002 A 
ATOM     11  C   UNL d   1      47.981  34.991  51.352  0.00  0.00     0.000 A 
ATOM     12  C   UNL d   1      47.671  35.568  51.870  0.00  0.00     0.002 A 
ATOM     13  C   UNL d   1      47.566  34.793  50.672  0.00  0.00     0.000 C 
ATOM     14  C   UNL d   1      46.953  35.935  51.697  0.00  0.00     0.000 C 
ENDBRANCH   1   2
BRANCH   1  15
ATOM     15  C   UNL d   1      51.246  33.676  52.801  0.00  0.00     0.102 C 
BRANCH  15  16
ATOM     16  N   UNL d   1      51.700  33.072  53.140  0.00  0.00    -0.206 NA
ATOM     17  C   UNL d   1      52.406  32.829  52.782  0.00  0.00     0.279 C 
ATOM     18  O   UNL d   1      52.663  33.185  52.087  0.00  0.00    -0.265 OA
BRANCH  17  19
ATOM     19  C   UNL d   1      52.854  32.224  53.129  0.00  0.00     0.059 A 
ATOM     20  C   UNL d   1      52.684  31.447  52.976  0.00  0.00     0.028 A 
ATOM     21  C   UNL d   1      53.111  30.838  53.305  0.00  0.00     0.127 A 
ATOM     22  C   UNL d   1      53.734  31.018  53.808  0.00  0.00     0.024 A 
ATOM     23  C   UNL d   1      53.931  31.790  53.983  0.00  0.00     0.002 A 
ATOM     24  C   UNL d   1      53.476  32.400  53.632  0.00  0.00     0.005 A 
BRANCH  21  25
ATOM     25  N   UNL d   1      52.942  30.044  53.152  0.00  0.00    -0.114 N 
ATOM     26  O   UNL d   1      53.031  29.752  52.358  0.00  0.00    -0.532 OA
ATOM     27  O   UNL d   1      52.688  29.509  53.735  0.00  0.00    -0.532 OA
ENDBRANCH  21  25
ENDBRANCH  17  19
ENDBRANCH  15  16
ENDBRANCH   1  15
TORSDOF 5
ENDMDL
