MODEL 1
REMARK VINA RESULT:      -7.3      0.000      0.000
REMARK  4 active torsions:
REMARK  status: ('A' for Active; 'I' for Inactive)
REMARK    1  A    between atoms: C_7  and  C_4 
REMARK    2  A    between atoms: C_11  and  C_7 
REMARK    3  A    between atoms: C_9  and  O_16 
REMARK    4  A    between atoms: O_16  and  C_11 
ROOT
ATOM      1  C   UNL d   1      53.444  32.404  53.517  0.00  0.00     0.124 C 
ENDROOT
BRANCH   1   2
ATOM      2  C   UNL d   1      53.742  31.722  53.144  0.00  0.00     0.046 C 
BRANCH   2   3
ATOM      3  C   UNL d   1      53.417  30.984  53.319  0.00  0.00     0.092 A 
ATOM      4  N   UNL d   1      53.697  30.464  53.892  0.00  0.00    -0.219 NA
ATOM      5  C   UNL d   1      53.210  29.797  53.879  0.00  0.00     0.215 A 
ATOM      6  S   UNL d   1      52.639  29.909  53.303  0.00  0.00    -0.045 SA
ATOM      7  N   UNL d   1      53.286  29.132  54.361  0.00  0.00    -0.120 N 
ATOM      8  C   UNL d   1      52.762  30.643  52.953  0.00  0.00     0.058 A 
ENDBRANCH   2   3
ENDBRANCH   1   2
BRANCH   1   9
ATOM      9  O   UNL d   1      53.791  33.130  53.361  0.00  0.00    -0.305 OA
BRANCH   9  10
ATOM     10  C   UNL d   1      53.487  33.813  53.718  0.00  0.00     0.100 A 
ATOM     11  C   UNL d   1      52.992  34.309  53.293  0.00  0.00     0.027 A 
ATOM     12  C   UNL d   1      52.689  34.990  53.649  0.00  0.00     0.032 A 
ATOM     13  C   UNL d   1      52.883  35.174  54.430  0.00  0.00     0.140 A 
ATOM     14  C   UNL d   1      53.381  34.677  54.859  0.00  0.00     0.032 A 
ATOM     15  F   UNL d   1      52.575  35.859  54.782  0.00  0.00    -0.204 F 
ATOM     16  C   UNL d   1      53.683  33.999  54.507  0.00  0.00     0.027 A 
ENDBRANCH   9  10
ENDBRANCH   1   9
TORSDOF 4
ENDMDL
MODEL 2
REMARK VINA RESULT:      -7.2      2.833      4.353
REMARK  4 active torsions:
REMARK  status: ('A' for Active; 'I' for Inactive)
REMARK    1  A    between atoms: C_7  and  C_4 
REMARK    2  A    between atoms: C_11  and  C_7 
REMARK    3  A    between atoms: C_9  and  O_16 
REMARK    4  A    between atoms: O_16  and  C_11 
ROOT
ATOM      1  C   UNL d   1      52.681  32.309  53.062  0.00  0.00     0.124 C 
ENDROOT
BRANCH   1   2
ATOM      2  C   UNL d   1      52.544  33.013  52.640  0.00  0.00     0.046 C 
BRANCH   2   3
ATOM      3  C   UNL d   1      52.420  33.719  53.048  0.00  0.00     0.092 A 
ATOM      4  N   UNL d   1      53.004  34.166  53.416  0.00  0.00    -0.219 NA
ATOM      5  C   UNL d   1      52.637  34.823  53.754  0.00  0.00     0.215 A 
ATOM      6  S   UNL d   1      51.835  34.778  53.593  0.00  0.00    -0.045 SA
ATOM      7  N   UNL d   1      53.011  35.422  54.179  0.00  0.00    -0.120 N 
ATOM      8  C   UNL d   1      51.695  34.096  53.156  0.00  0.00     0.058 A 
ENDBRANCH   2   3
ENDBRANCH   1   2
BRANCH   1   9
ATOM      9  O   UNL d   1      52.882  31.627  52.653  0.00  0.00    -0.305 OA
BRANCH   9  10
ATOM     10  C   UNL d   1      53.012  30.923  53.069  0.00  0.00     0.100 A 
ATOM     11  C   UNL d   1      52.509  30.286  52.959  0.00  0.00     0.027 A 
ATOM     12  C   UNL d   1      52.638  29.583  53.374  0.00  0.00     0.032 A 
ATOM     13  C   UNL d   1      53.271  29.521  53.900  0.00  0.00     0.140 A 
ATOM     14  C   UNL d   1      53.778  30.161  54.013  0.00  0.00     0.032 A 
ATOM     15  F   UNL d   1      53.396  28.814  54.314  0.00  0.00    -0.204 F 
ATOM     16  C   UNL d   1      53.651  30.860  53.601  0.00  0.00     0.027 A 
ENDBRANCH   9  10
ENDBRANCH   1   9
TORSDOF 4
ENDMDL
MODEL 3
REMARK VINA RESULT:      -7.1      2.862      3.507
REMARK  4 active torsions:
REMARK  status: ('A' for Active; 'I' for Inactive)
REMARK    1  A    between atoms: C_7  and  C_4 
REMARK    2  A    between atoms: C_11  and  C_7 
REMARK    3  A    between atoms: C_9  and  O_16 
REMARK    4  A    between atoms: O_16  and  C_11 
ROOT
ATOM      1  C   UNL d   1      52.558  33.279  53.556  0.00  0.00     0.124 C 
ENDROOT
BRANCH   1   2
ATOM      2  C   UNL d   1      51.848  32.999  53.224  0.00  0.00     0.046 C 
BRANCH   2   3
ATOM      3  C   UNL d   1      51.309  33.532  52.898  0.00  0.00     0.092 A 
ATOM      4  N   UNL d   1      50.617  33.791  53.258  0.00  0.00    -0.219 NA
ATOM      5  C   UNL d   1      50.249  34.317  52.738  0.00  0.00     0.215 A 
ATOM      6  S   UNL d   1      50.713  34.377  52.066  0.00  0.00    -0.045 SA
ATOM      7  N   UNL d   1      49.538  34.712  52.872  0.00  0.00    -0.120 N 
ATOM      8  C   UNL d   1      51.371  33.893  52.159  0.00  0.00     0.058 A 
ENDBRANCH   2   3
ENDBRANCH   1   2
BRANCH   1   9
ATOM      9  O   UNL d   1      53.071  32.749  53.913  0.00  0.00    -0.305 OA
BRANCH   9  10
ATOM     10  C   UNL d   1      53.765  33.027  54.270  0.00  0.00     0.100 A 
ATOM     11  C   UNL d   1      54.466  33.032  53.847  0.00  0.00     0.027 A 
ATOM     12  C   UNL d   1      55.159  33.311  54.203  0.00  0.00     0.032 A 
ATOM     13  C   UNL d   1      55.146  33.583  54.981  0.00  0.00     0.140 A 
ATOM     14  C   UNL d   1      54.440  33.579  55.409  0.00  0.00     0.032 A 
ATOM     15  F   UNL d   1      55.843  33.861  55.333  0.00  0.00    -0.204 F 
ATOM     16  C   UNL d   1      53.752  33.303  55.057  0.00  0.00     0.027 A 
ENDBRANCH   9  10
ENDBRANCH   1   9
TORSDOF 4
ENDMDL
MODEL 4
REMARK VINA RESULT:      -6.8      1.668      1.855
REMARK  4 active torsions:
REMARK  status: ('A' for Active; 'I' for Inactive)
REMARK    1  A    between atoms: C_7  and  C_4 
REMARK    2  A    between atoms: C_11  and  C_7 
REMARK    3  A    between atoms: C_9  and  O_16 
REMARK    4  A    between atoms: O_16  and  C_11 
ROOT
ATOM      1  C   UNL d   1      52.566  32.142  53.114  0.00  0.00     0.124 C 
ENDROOT
BRANCH   1   2
ATOM      2  C   UNL d   1      53.256  31.697  53.248  0.00  0.00     0.046 C 
BRANCH   2   3
ATOM      3  C   UNL d   1      53.202  30.885  53.384  0.00  0.00     0.092 A 
ATOM      4  N   UNL d   1      53.415  30.503  54.079  0.00  0.00    -0.219 NA
ATOM      5  C   UNL d   1      53.270  29.697  53.973  0.00  0.00     0.215 A 
ATOM      6  S   UNL d   1      52.971  29.589  53.218  0.00  0.00    -0.045 SA
ATOM      7  N   UNL d   1      53.404  29.103  54.529  0.00  0.00    -0.120 N 
ATOM      8  C   UNL d   1      52.926  30.322  52.848  0.00  0.00     0.058 A 
ENDBRANCH   2   3
ENDBRANCH   1   2
BRANCH   1   9
ATOM      9  O   UNL d   1      52.602  32.961  53.151  0.00  0.00    -0.305 OA
BRANCH   9  10
ATOM     10  C   UNL d   1      51.926  33.408  52.978  0.00  0.00     0.100 A 
ATOM     11  C   UNL d   1      51.929  33.919  52.339  0.00  0.00     0.027 A 
ATOM     12  C   UNL d   1      51.255  34.366  52.166  0.00  0.00     0.032 A 
ATOM     13  C   UNL d   1      50.580  34.298  52.635  0.00  0.00     0.140 A 
ATOM     14  C   UNL d   1      50.574  33.783  53.280  0.00  0.00     0.032 A 
ATOM     15  F   UNL d   1      49.906  34.748  52.458  0.00  0.00    -0.204 F 
ATOM     16  C   UNL d   1      51.243  33.339  53.452  0.00  0.00     0.027 A 
ENDBRANCH   9  10
ENDBRANCH   1   9
TORSDOF 4
ENDMDL
MODEL 5
REMARK VINA RESULT:      -6.5      2.562      3.215
REMARK  4 active torsions:
REMARK  status: ('A' for Active; 'I' for Inactive)
REMARK    1  A    between atoms: C_7  and  C_4 
REMARK    2  A    between atoms: C_11  and  C_7 
REMARK    3  A    between atoms: C_9  and  O_16 
REMARK    4  A    between atoms: O_16  and  C_11 
ROOT
ATOM      1  C   UNL d   1      52.788  33.207  53.600  0.00  0.00     0.124 C 
ENDROOT
BRANCH   1   2
ATOM      2  C   UNL d   1      53.430  32.725  53.820  0.00  0.00     0.046 C 
BRANCH   2   3
ATOM      3  C   UNL d   1      53.977  32.998  54.375  0.00  0.00     0.092 A 
ATOM      4  N   UNL d   1      54.659  33.423  54.202  0.00  0.00    -0.219 NA
ATOM      5  C   UNL d   1      55.040  33.580  54.917  0.00  0.00     0.215 A 
ATOM      6  S   UNL d   1      54.594  33.254  55.521  0.00  0.00    -0.045 SA
ATOM      7  N   UNL d   1      55.748  33.994  55.008  0.00  0.00    -0.120 N 
ATOM      8  C   UNL d   1      53.934  32.892  55.191  0.00  0.00     0.058 A 
ENDBRANCH   2   3
ENDBRANCH   1   2
BRANCH   1   9
ATOM      9  O   UNL d   1      52.247  32.929  53.050  0.00  0.00    -0.305 OA
BRANCH   9  10
ATOM     10  C   UNL d   1      51.594  33.396  52.846  0.00  0.00     0.100 A 
ATOM     11  C   UNL d   1      51.644  33.908  52.209  0.00  0.00     0.027 A 
ATOM     12  C   UNL d   1      50.992  34.374  52.005  0.00  0.00     0.032 A 
ATOM     13  C   UNL d   1      50.293  34.327  52.441  0.00  0.00     0.140 A 
ATOM     14  C   UNL d   1      50.242  33.812  53.083  0.00  0.00     0.032 A 
ATOM     15  F   UNL d   1      49.643  34.797  52.232  0.00  0.00    -0.204 F 
ATOM     16  C   UNL d   1      50.888  33.348  53.287  0.00  0.00     0.027 A 
ENDBRANCH   9  10
ENDBRANCH   1   9
TORSDOF 4
ENDMDL
MODEL 6
REMARK VINA RESULT:      -4.9      0.921      1.257
REMARK  4 active torsions:
REMARK  status: ('A' for Active; 'I' for Inactive)
REMARK    1  A    between atoms: C_7  and  C_4 
REMARK    2  A    between atoms: C_11  and  C_7 
REMARK    3  A    between atoms: C_9  and  O_16 
REMARK    4  A    between atoms: O_16  and  C_11 
ROOT
ATOM      1  C   UNL d   1      52.996  31.786  53.338  0.00  0.00     0.124 C 
ENDROOT
BRANCH   1   2
ATOM      2  C   UNL d   1      52.836  30.995  53.136  0.00  0.00     0.046 C 
BRANCH   2   3
ATOM      3  C   UNL d   1      53.029  30.390  53.661  0.00  0.00     0.092 A 
ATOM      4  N   UNL d   1      53.383  29.676  53.457  0.00  0.00    -0.219 NA
ATOM      5  C   UNL d   1      53.475  29.238  54.151  0.00  0.00     0.215 A 
ATOM      6  S   UNL d   1      53.179  29.680  54.773  0.00  0.00    -0.045 SA
ATOM      7  N   UNL d   1      53.806  28.485  54.208  0.00  0.00    -0.120 N 
ATOM      8  C   UNL d   1      52.902  30.395  54.476  0.00  0.00     0.058 A 
ENDBRANCH   2   3
ENDBRANCH   1   2
BRANCH   1   9
ATOM      9  O   UNL d   1      52.786  32.385  52.819  0.00  0.00    -0.305 OA
BRANCH   9  10
ATOM     10  C   UNL d   1      52.770  33.170  53.083  0.00  0.00     0.100 A 
ATOM     11  C   UNL d   1      53.466  33.538  53.307  0.00  0.00     0.027 A 
ATOM     12  C   UNL d   1      53.451  34.321  53.571  0.00  0.00     0.032 A 
ATOM     13  C   UNL d   1      52.738  34.733  53.610  0.00  0.00     0.140 A 
ATOM     14  C   UNL d   1      52.035  34.365  53.385  0.00  0.00     0.032 A 
ATOM     15  F   UNL d   1      52.728  35.519  53.876  0.00  0.00    -0.204 F 
ATOM     16  C   UNL d   1      52.049  33.586  53.122  0.00  0.00     0.027 A 
ENDBRANCH   9  10
ENDBRANCH   1   9
TORSDOF 4
ENDMDL
