MODEL 1
REMARK VINA RESULT:      -4.5      0.000      0.000
REMARK  5 active torsions:
REMARK  status: ('A' for Active; 'I' for Inactive)
REMARK    1  A    between atoms: N_5  and  S_1 
REMARK    2  A    between atoms: C_10  and  S_1 
REMARK    3  A    between atoms: C_2  and  N_6 
REMARK    4  A    between atoms: C_20  and  N_5 
REMARK    5  A    between atoms: C_7  and  C_14 
REMARK       I    between atoms: N_8  and  C_7 
ROOT
ATOM      1  C   UNL d   1     -47.183  13.543  22.535  0.00  0.00     0.104 A 
ATOM      2  C   UNL d   1     -45.778  12.716  22.566  0.00  0.00     0.057 A 
ATOM      3  C   UNL d   1     -46.992  12.980  21.951  0.00  0.00     0.013 A 
ATOM      4  C   UNL d   1     -46.658  13.685  23.135  0.00  0.00     0.013 A 
ATOM      5  C   UNL d   1     -46.283  12.573  21.981  0.00  0.00     0.005 A 
ATOM      6  C   UNL d   1     -45.951  13.274  23.158  0.00  0.00     0.005 A 
ENDROOT
BRANCH   2   7
ATOM      7  C   UNL d   1     -45.067  12.299  22.586  0.00  0.00     0.265 C 
ATOM      8  N   UNL d   1     -44.399  12.588  22.192  0.00  0.00    -0.269 N 
ATOM      9  C   UNL d   1     -43.645  12.197  22.183  0.00  0.00     0.102 A 
ATOM     10  C   UNL d   1     -44.443  13.293  21.780  0.00  0.00     0.102 A 
ATOM     11  C   UNL d   1     -42.996  12.473  21.803  0.00  0.00     0.101 A 
ATOM     12  N   UNL d   1     -43.065  13.184  21.395  0.00  0.00    -0.281 N 
ATOM     13  C   UNL d   1     -43.741  13.604  21.361  0.00  0.00     0.101 A 
ATOM     14  O   UNL d   1     -45.034  11.584  23.008  0.00  0.00    -0.267 OA
BRANCH  12  15
ATOM     15  C   UNL d   1     -42.422  13.485  21.002  0.00  0.00     0.179 A 
ATOM     16  N   UNL d   1     -42.254  13.427  20.169  0.00  0.00    -0.222 NA
ATOM     17  C   UNL d   1     -41.538  13.827  20.071  0.00  0.00     0.089 A 
ATOM     18  C   UNL d   1     -41.076  13.972  19.406  0.00  0.00     0.020 A 
ATOM     19  C   UNL d   1     -41.318  14.094  20.814  0.00  0.00     0.050 A 
ATOM     20  C   UNL d   1     -40.342  14.410  19.459  0.00  0.00     0.002 A 
ATOM     21  C   UNL d   1     -40.128  14.680  20.234  0.00  0.00     0.001 A 
ATOM     22  C   UNL d   1     -40.605  14.527  20.904  0.00  0.00     0.008 A 
ATOM     23  S   UNL d   1     -41.879  13.871  21.368  0.00  0.00    -0.048 SA
ENDBRANCH  12  15
ENDBRANCH   2   7
BRANCH   1  24
ATOM     24  S   UNL d   1     -47.909  13.946  22.486  0.00  0.00     0.271 S 
ATOM     25  O   UNL d   1     -47.830  14.166  23.292  0.00  0.00    -0.200 OA
ATOM     26  O   UNL d   1     -47.995  13.730  21.683  0.00  0.00    -0.200 OA
BRANCH  24  27
ATOM     27  N   UNL d   1     -48.632  14.352  22.454  0.00  0.00    -0.229 N 
ATOM     28  C   UNL d   1     -48.640  15.180  22.349  0.00  0.00     0.111 C 
BRANCH  27  29
ATOM     29  C   UNL d   1     -49.340  13.938  22.527  0.00  0.00     0.075 A 
ATOM     30  C   UNL d   1     -49.634  13.744  23.275  0.00  0.00     0.018 A 
ATOM     31  C   UNL d   1     -50.341  13.331  23.348  0.00  0.00     0.002 A 
ATOM     32  C   UNL d   1     -50.768  13.102  22.674  0.00  0.00     0.000 A 
ATOM     33  C   UNL d   1     -50.463  13.302  21.927  0.00  0.00     0.002 A 
ATOM     34  C   UNL d   1     -49.755  13.716  21.854  0.00  0.00     0.018 A 
ENDBRANCH  27  29
ENDBRANCH  24  27
ENDBRANCH   1  24
TORSDOF 5
ENDMDL
MODEL 2
REMARK VINA RESULT:      -4.2      1.706      6.984
REMARK  5 active torsions:
REMARK  status: ('A' for Active; 'I' for Inactive)
REMARK    1  A    between atoms: N_5  and  S_1 
REMARK    2  A    between atoms: C_10  and  S_1 
REMARK    3  A    between atoms: C_2  and  N_6 
REMARK    4  A    between atoms: C_20  and  N_5 
REMARK    5  A    between atoms: C_7  and  C_14 
REMARK       I    between atoms: N_8  and  C_7 
ROOT
ATOM      1  C   UNL d   1     -41.761  13.781  20.698  0.00  0.00     0.104 A 
ATOM      2  C   UNL d   1     -42.836  12.840  21.485  0.00  0.00     0.057 A 
ATOM      3  C   UNL d   1     -42.365  13.372  20.295  0.00  0.00     0.013 A 
ATOM      4  C   UNL d   1     -41.705  13.710  21.503  0.00  0.00     0.013 A 
ATOM      5  C   UNL d   1     -42.897  12.904  20.705  0.00  0.00     0.005 A 
ATOM      6  C   UNL d   1     -42.240  13.240  21.905  0.00  0.00     0.005 A 
ENDROOT
BRANCH   2   7
ATOM      7  C   UNL d   1     -43.378  12.366  21.887  0.00  0.00     0.265 C 
ATOM      8  N   UNL d   1     -44.142  12.639  22.044  0.00  0.00    -0.269 N 
ATOM      9  C   UNL d   1     -44.735  12.189  22.454  0.00  0.00     0.102 A 
ATOM     10  C   UNL d   1     -44.365  13.387  21.799  0.00  0.00     0.102 A 
ATOM     11  C   UNL d   1     -45.476  12.450  22.608  0.00  0.00     0.101 A 
ATOM     12  N   UNL d   1     -45.677  13.207  22.352  0.00  0.00    -0.281 N 
ATOM     13  C   UNL d   1     -45.171  13.683  21.962  0.00  0.00     0.101 A 
ATOM     14  O   UNL d   1     -43.141  11.607  22.131  0.00  0.00    -0.267 OA
BRANCH  12  15
ATOM     15  C   UNL d   1     -46.421  13.495  22.495  0.00  0.00     0.179 A 
ATOM     16  N   UNL d   1     -46.647  14.309  22.597  0.00  0.00    -0.222 NA
ATOM     17  C   UNL d   1     -47.463  14.287  22.728  0.00  0.00     0.089 A 
ATOM     18  C   UNL d   1     -48.014  14.881  22.865  0.00  0.00     0.020 A 
ATOM     19  C   UNL d   1     -47.680  13.497  22.700  0.00  0.00     0.050 A 
ATOM     20  C   UNL d   1     -48.843  14.703  22.984  0.00  0.00     0.002 A 
ATOM     21  C   UNL d   1     -49.052  13.881  22.953  0.00  0.00     0.001 A 
ATOM     22  C   UNL d   1     -48.483  13.284  22.813  0.00  0.00     0.008 A 
ATOM     23  S   UNL d   1     -47.021  13.032  22.556  0.00  0.00    -0.048 SA
ENDBRANCH  12  15
ENDBRANCH   2   7
BRANCH   1  24
ATOM     24  S   UNL d   1     -41.231  14.251  20.263  0.00  0.00     0.271 S 
ATOM     25  O   UNL d   1     -40.900  14.527  20.984  0.00  0.00    -0.200 OA
ATOM     26  O   UNL d   1     -41.556  13.981  19.542  0.00  0.00    -0.200 OA
BRANCH  24  27
ATOM     27  N   UNL d   1     -40.695  14.727  19.844  0.00  0.00    -0.229 N 
ATOM     28  C   UNL d   1     -40.811  15.553  19.808  0.00  0.00     0.111 C 
BRANCH  27  29
ATOM     29  C   UNL d   1     -40.050  14.383  19.465  0.00  0.00     0.075 A 
ATOM     30  C   UNL d   1     -39.359  14.218  19.888  0.00  0.00     0.018 A 
ATOM     31  C   UNL d   1     -38.714  13.875  19.510  0.00  0.00     0.002 A 
ATOM     32  C   UNL d   1     -38.748  13.690  18.702  0.00  0.00     0.000 A 
ATOM     33  C   UNL d   1     -39.448  13.860  18.287  0.00  0.00     0.002 A 
ATOM     34  C   UNL d   1     -40.093  14.204  18.666  0.00  0.00     0.018 A 
ENDBRANCH  27  29
ENDBRANCH  24  27
ENDBRANCH   1  24
TORSDOF 5
ENDMDL
