MODEL 1
REMARK VINA RESULT:      90.4      0.000      0.000
REMARK  6 active torsions:
REMARK  status: ('A' for Active; 'I' for Inactive)
REMARK    1  A    between atoms: O_10  and  C_1 
REMARK    2  A    between atoms: O_9  and  C_6 
REMARK    3  A    between atoms: O_12  and  C_8 
REMARK    4  A    between atoms: C_13  and  O_9 
REMARK    5  A    between atoms: C_19  and  O_10 
REMARK    6  A    between atoms: C_14  and  O_12 
ROOT
ATOM      1  C   UNL d   1      60.658  48.485  50.795  0.00  0.00     0.161 A 
ATOM      2  C   UNL d   1      61.221  47.028  50.249  0.00  0.00     0.128 A 
ATOM      3  C   UNL d   1      60.861  47.092  51.009  0.00  0.00     0.066 A 
ATOM      4  C   UNL d   1      60.584  47.822  51.270  0.00  0.00     0.222 A 
ATOM      5  O   UNL d   1      61.297  47.695  49.767  0.00  0.00    -0.303 OA
ATOM      6  C   UNL d   1      61.501  46.299  49.981  0.00  0.00     0.149 A 
ATOM      7  C   UNL d   1      61.018  48.421  50.036  0.00  0.00     0.126 A 
ATOM      8  C   UNL d   1      61.424  45.639  50.462  0.00  0.00     0.128 A 
ATOM      9  C   UNL d   1      60.788  46.426  51.484  0.00  0.00     0.007 A 
ATOM     10  O   UNL d   1      60.233  47.884  52.012  0.00  0.00    -0.284 OA
ATOM     11  C   UNL d   1      61.063  45.703  51.222  0.00  0.00     0.027 A 
ATOM     12  C   UNL d   1      61.092  49.104  49.550  0.00  0.00     0.029 C 
ENDROOT
BRANCH   1  13
ATOM     13  O   UNL d   1      60.379  49.231  51.054  0.00  0.00    -0.302 OA
BRANCH  13  14
ATOM     14  C   UNL d   1      59.571  49.385  51.039  0.00  0.00     0.100 A 
ATOM     15  C   UNL d   1      59.198  49.549  50.324  0.00  0.00     0.025 A 
ATOM     16  C   UNL d   1      58.386  49.704  50.309  0.00  0.00     0.002 A 
ATOM     17  C   UNL d   1      57.949  49.695  51.009  0.00  0.00     0.000 A 
ATOM     18  C   UNL d   1      58.326  49.530  51.725  0.00  0.00     0.002 A 
ATOM     19  C   UNL d   1      59.138  49.375  51.740  0.00  0.00     0.025 A 
ENDBRANCH  13  14
ENDBRANCH   1  13
BRANCH   6  20
ATOM     20  O   UNL d   1      61.851  46.237  49.242  0.00  0.00    -0.269 OA
BRANCH  20  21
ATOM     21  C   UNL d   1      62.672  46.233  49.173  0.00  0.00     0.300 C 
ATOM     22  O   UNL d   1      63.108  46.890  49.415  0.00  0.00    -0.259 OA
ATOM     23  C   UNL d   1      63.059  45.571  48.862  0.00  0.00     0.074 C 
ENDBRANCH  20  21
ENDBRANCH   6  20
BRANCH   8  24
ATOM     24  O   UNL d   1      61.706  44.890  50.197  0.00  0.00    -0.271 OA
BRANCH  24  25
ATOM     25  C   UNL d   1      61.608  44.219  50.669  0.00  0.00     0.300 C 
ATOM     26  O   UNL d   1      62.159  43.614  50.623  0.00  0.00    -0.259 OA
ATOM     27  C   UNL d   1      60.964  44.160  51.178  0.00  0.00     0.074 C 
ENDBRANCH  24  25
ENDBRANCH   8  24
TORSDOF 6
ENDMDL
MODEL 2
REMARK VINA RESULT:      93.2      1.759      3.431
REMARK  6 active torsions:
REMARK  status: ('A' for Active; 'I' for Inactive)
REMARK    1  A    between atoms: O_10  and  C_1 
REMARK    2  A    between atoms: O_9  and  C_6 
REMARK    3  A    between atoms: O_12  and  C_8 
REMARK    4  A    between atoms: C_13  and  O_9 
REMARK    5  A    between atoms: C_19  and  O_10 
REMARK    6  A    between atoms: C_14  and  O_12 
ROOT
ATOM      1  C   UNL d   1      57.959  48.145  50.943  0.00  0.00     0.161 A 
ATOM      2  C   UNL d   1      59.595  48.173  51.191  0.00  0.00     0.128 A 
ATOM      3  C   UNL d   1      59.163  48.890  51.090  0.00  0.00     0.066 A 
ATOM      4  C   UNL d   1      58.350  48.864  50.967  0.00  0.00     0.222 A 
ATOM      5  O   UNL d   1      59.204  47.444  51.167  0.00  0.00    -0.303 OA
ATOM      6  C   UNL d   1      60.411  48.191  51.314  0.00  0.00     0.149 A 
ATOM      7  C   UNL d   1      58.390  47.428  51.044  0.00  0.00     0.126 A 
ATOM      8  C   UNL d   1      60.796  48.916  51.337  0.00  0.00     0.128 A 
ATOM      9  C   UNL d   1      59.557  49.611  51.114  0.00  0.00     0.007 A 
ATOM     10  O   UNL d   1      57.929  49.564  50.868  0.00  0.00    -0.284 OA
ATOM     11  C   UNL d   1      60.364  49.633  51.236  0.00  0.00     0.027 A 
ATOM     12  C   UNL d   1      57.986  46.691  51.019  0.00  0.00     0.029 C 
ENDROOT
BRANCH   1  13
ATOM     13  O   UNL d   1      57.132  48.111  50.818  0.00  0.00    -0.302 OA
BRANCH  13  14
ATOM     14  C   UNL d   1      56.797  48.562  50.217  0.00  0.00     0.100 A 
ATOM     15  C   UNL d   1      56.374  49.244  50.404  0.00  0.00     0.025 A 
ATOM     16  C   UNL d   1      56.037  49.697  49.800  0.00  0.00     0.002 A 
ATOM     17  C   UNL d   1      56.124  49.468  49.012  0.00  0.00     0.000 A 
ATOM     18  C   UNL d   1      56.548  48.785  48.829  0.00  0.00     0.002 A 
ATOM     19  C   UNL d   1      56.885  48.331  49.432  0.00  0.00     0.025 A 
ENDBRANCH  13  14
ENDBRANCH   1  13
BRANCH   6  20
ATOM     20  O   UNL d   1      60.831  47.494  51.413  0.00  0.00    -0.269 OA
BRANCH  20  21
ATOM     21  C   UNL d   1      61.091  47.072  50.755  0.00  0.00     0.300 C 
ATOM     22  O   UNL d   1      61.333  47.476  50.077  0.00  0.00    -0.259 OA
ATOM     23  C   UNL d   1      61.110  46.245  50.773  0.00  0.00     0.074 C 
ENDBRANCH  20  21
ENDBRANCH   6  20
BRANCH   8  24
ATOM     24  O   UNL d   1      61.629  48.945  51.463  0.00  0.00    -0.271 OA
BRANCH  24  25
ATOM     25  C   UNL d   1      62.110  49.381  50.952  0.00  0.00     0.300 C 
ATOM     26  O   UNL d   1      61.868  49.498  50.177  0.00  0.00    -0.259 OA
ATOM     27  C   UNL d   1      62.823  49.694  51.219  0.00  0.00     0.074 C 
ENDBRANCH  24  25
ENDBRANCH   8  24
TORSDOF 6
ENDMDL
