MODEL 1
REMARK VINA RESULT:      82.8      0.000      0.000
REMARK  6 active torsions:
REMARK  status: ('A' for Active; 'I' for Inactive)
REMARK    1  A    between atoms: C_7  and  C_1 
REMARK    2  A    between atoms: C_9  and  N_2 
REMARK    3  A    between atoms: C_15  and  C_7 
REMARK    4  A    between atoms: C_8  and  C_9 
REMARK       I    between atoms: N_14  and  C_8 
REMARK    5  A    between atoms: C_20  and  N_14 
REMARK    6  A    between atoms: C_34  and  C_33 
ROOT
ATOM      1  C   UNL d   1      14.958  16.510  -3.909  0.00  0.00     0.095 A 
ATOM      2  N   UNL d   1      14.275  15.709  -2.936  0.00  0.00    -0.300 N 
ATOM      3  C   UNL d   1      15.350  16.920  -3.273  0.00  0.00     0.202 A 
ATOM      4  C   UNL d   1      14.426  15.910  -3.743  0.00  0.00     0.087 A 
ATOM      5  C   UNL d   1      15.185  16.704  -2.483  0.00  0.00     0.056 A 
ATOM      6  C   UNL d   1      14.655  16.106  -2.305  0.00  0.00     0.067 A 
ATOM      7  C   UNL d   1      14.508  15.909  -1.517  0.00  0.00     0.018 A 
ATOM      8  C   UNL d   1      15.566  17.101  -1.848  0.00  0.00     0.016 A 
ATOM      9  O   UNL d   1      15.877  17.513  -3.437  0.00  0.00    -0.286 OA
ATOM     10  C   UNL d   1      15.412  16.898  -1.061  0.00  0.00     0.058 A 
ATOM     11  C   UNL d   1      14.882  16.301  -0.896  0.00  0.00     0.013 A 
ATOM     12 CL   UNL d   1      15.793  17.297  -0.439  0.00  0.00    -0.082 Cl
ENDROOT
BRANCH   2  13
ATOM     13  C   UNL d   1      13.746  15.113  -2.771  0.00  0.00     0.144 C 
BRANCH  13  14
ATOM     14  C   UNL d   1      13.520  14.585  -3.364  0.00  0.00     0.297 C 
ATOM     15  N   UNL d   1      13.686  13.787  -3.287  0.00  0.00    -0.207 NA
ATOM     16  O   UNL d   1      13.129  14.863  -4.029  0.00  0.00    -0.264 OA
BRANCH  15  17
ATOM     17  C   UNL d   1      13.461  13.259  -3.879  0.00  0.00     0.087 A 
ATOM     18  C   UNL d   1      13.703  13.390  -4.645  0.00  0.00     0.045 A 
ATOM     19  C   UNL d   1      13.479  12.865  -5.238  0.00  0.00     0.121 A 
ATOM     20  O   UNL d   1      13.645  12.862  -6.057  0.00  0.00    -0.299 OA
ATOM     21  C   UNL d   1      13.011  12.209  -5.052  0.00  0.00     0.119 A 
ATOM     22  C   UNL d   1      13.272  12.192  -6.388  0.00  0.00     0.304 A 
ATOM     23  O   UNL d   1      12.879  11.786  -5.765  0.00  0.00    -0.300 OA
ATOM     24  C   UNL d   1      12.769  12.080  -4.281  0.00  0.00     0.028 A 
ATOM     25  C   UNL d   1      12.995  12.608  -3.689  0.00  0.00     0.021 A 
ENDBRANCH  15  17
ENDBRANCH  13  14
ENDBRANCH   2  13
BRANCH   1  26
ATOM     26  C   UNL d   1      15.113  16.714  -4.691  0.00  0.00     0.200 C 
ATOM     27  O   UNL d   1      15.583  16.230  -5.153  0.00  0.00    -0.286 OA
BRANCH  26  28
ATOM     28  C   UNL d   1      14.796  17.403  -5.012  0.00  0.00     0.039 A 
ATOM     29  C   UNL d   1      14.206  17.368  -5.601  0.00  0.00     0.003 A 
ATOM     30  C   UNL d   1      13.882  18.063  -5.930  0.00  0.00     0.000 A 
ATOM     31  C   UNL d   1      14.147  18.792  -5.669  0.00  0.00     0.000 A 
ATOM     32  C   UNL d   1      14.742  18.813  -5.075  0.00  0.00     0.000 A 
ATOM     33  C   UNL d   1      15.068  18.123  -4.745  0.00  0.00     0.003 A 
BRANCH  31  34
ATOM     34  C   UNL d   1      13.826  19.485  -5.995  0.00  0.00     0.000 C 
ATOM     35  C   UNL d   1      14.322  19.999  -6.385  0.00  0.00     0.000 C 
ENDBRANCH  31  34
ENDBRANCH  26  28
ENDBRANCH   1  26
TORSDOF 6
ENDMDL
MODEL 2
REMARK VINA RESULT:      83.6      2.105      5.244
REMARK  6 active torsions:
REMARK  status: ('A' for Active; 'I' for Inactive)
REMARK    1  A    between atoms: C_7  and  C_1 
REMARK    2  A    between atoms: C_9  and  N_2 
REMARK    3  A    between atoms: C_15  and  C_7 
REMARK    4  A    between atoms: C_8  and  C_9 
REMARK       I    between atoms: N_14  and  C_8 
REMARK    5  A    between atoms: C_20  and  N_14 
REMARK    6  A    between atoms: C_34  and  C_33 
ROOT
ATOM      1  C   UNL d   1      14.093  13.127  -2.443  0.00  0.00     0.095 A 
ATOM      2  N   UNL d   1      13.423  14.077  -3.282  0.00  0.00    -0.300 N 
ATOM      3  C   UNL d   1      13.971  12.534  -3.044  0.00  0.00     0.202 A 
ATOM      4  C   UNL d   1      13.822  13.891  -2.561  0.00  0.00     0.087 A 
ATOM      5  C   UNL d   1      13.574  12.742  -3.749  0.00  0.00     0.056 A 
ATOM      6  C   UNL d   1      13.299  13.502  -3.877  0.00  0.00     0.067 A 
ATOM      7  C   UNL d   1      12.909  13.684  -4.582  0.00  0.00     0.018 A 
ATOM      8  C   UNL d   1      13.448  12.166  -4.348  0.00  0.00     0.016 A 
ATOM      9  O   UNL d   1      14.239  11.779  -2.927  0.00  0.00    -0.286 OA
ATOM     10  C   UNL d   1      13.057  12.357  -5.051  0.00  0.00     0.058 A 
ATOM     11  C   UNL d   1      12.787  13.117  -5.168  0.00  0.00     0.013 A 
ATOM     12 CL   UNL d   1      12.936  11.781  -5.639  0.00  0.00    -0.082 Cl
ENDROOT
BRANCH   2  13
ATOM     13  C   UNL d   1      13.154  14.836  -3.399  0.00  0.00     0.144 C 
BRANCH  13  14
ATOM     14  C   UNL d   1      13.685  15.437  -3.594  0.00  0.00     0.297 C 
ATOM     15  N   UNL d   1      13.986  15.488  -4.354  0.00  0.00    -0.207 NA
ATOM     16  O   UNL d   1      13.910  15.982  -3.023  0.00  0.00    -0.264 OA
BRANCH  15  17
ATOM     17  C   UNL d   1      14.516  16.089  -4.549  0.00  0.00     0.087 A 
ATOM     18  C   UNL d   1      14.258  16.860  -4.570  0.00  0.00     0.045 A 
ATOM     19  C   UNL d   1      14.785  17.462  -4.764  0.00  0.00     0.121 A 
ATOM     20  O   UNL d   1      14.673  18.288  -4.827  0.00  0.00    -0.299 OA
ATOM     21  C   UNL d   1      15.573  17.278  -4.936  0.00  0.00     0.119 A 
ATOM     22  C   UNL d   1      15.406  18.625  -5.042  0.00  0.00     0.304 A 
ATOM     23  O   UNL d   1      15.965  18.000  -5.110  0.00  0.00    -0.300 OA
ATOM     24  C   UNL d   1      15.830  16.502  -4.913  0.00  0.00     0.028 A 
ATOM     25  C   UNL d   1      15.300  15.902  -4.719  0.00  0.00     0.021 A 
ENDBRANCH  15  17
ENDBRANCH  13  14
ENDBRANCH   2  13
BRANCH   1  26
ATOM     26  C   UNL d   1      14.482  12.935  -1.744  0.00  0.00     0.200 C 
ATOM     27  O   UNL d   1      14.479  12.162  -1.477  0.00  0.00    -0.286 OA
BRANCH  26  28
ATOM     28  C   UNL d   1      14.875  13.516  -1.313  0.00  0.00     0.039 A 
ATOM     29  C   UNL d   1      15.586  13.849  -1.594  0.00  0.00     0.003 A 
ATOM     30  C   UNL d   1      15.988  14.438  -1.161  0.00  0.00     0.000 A 
ATOM     31  C   UNL d   1      15.679  14.694  -0.447  0.00  0.00     0.000 A 
ATOM     32  C   UNL d   1      14.962  14.349  -0.175  0.00  0.00     0.000 A 
ATOM     33  C   UNL d   1      14.558  13.762  -0.604  0.00  0.00     0.003 A 
BRANCH  31  34
ATOM     34  C   UNL d   1      16.078  15.279  -0.015  0.00  0.00     0.000 C 
ATOM     35  C   UNL d   1      15.798  16.043  -0.043  0.00  0.00     0.000 C 
ENDBRANCH  31  34
ENDBRANCH  26  28
ENDBRANCH   1  26
TORSDOF 6
ENDMDL
