MODEL 1
REMARK VINA RESULT:      35.1      0.000      0.000
REMARK  4 active torsions:
REMARK  status: ('A' for Active; 'I' for Inactive)
REMARK    1  A    between atoms: C_2  and  C_1 
REMARK    2  A    between atoms: N_13  and  C_6 
REMARK    3  A    between atoms: N_12  and  N_13 
REMARK    4  A    between atoms: C_15  and  N_12 
ROOT
ATOM      1  C   UNL d   1      14.718  13.117  -1.444  0.00  0.00     0.095 A 
ATOM      2  N   UNL d   1      14.677  13.859  -1.058  0.00  0.00    -0.219 NA
ATOM      3  C   UNL d   1      15.294  13.881  -0.524  0.00  0.00     0.215 A 
ATOM      4  S   UNL d   1      15.726  13.184  -0.553  0.00  0.00    -0.045 SA
ATOM      5  C   UNL d   1      15.364  12.720  -1.122  0.00  0.00     0.058 A 
ENDROOT
BRANCH   1   6
ATOM      6  C   UNL d   1      14.233  12.789  -2.041  0.00  0.00     0.082 A 
ATOM      7  C   UNL d   1      13.747  12.160  -1.858  0.00  0.00     0.302 A 
ATOM      8  O   UNL d   1      13.244  11.808  -2.449  0.00  0.00    -0.273 OA
ATOM      9  O   UNL d   1      13.756  11.859  -1.050  0.00  0.00    -0.259 OA
ATOM     10  C   UNL d   1      13.263  12.133  -3.236  0.00  0.00     0.103 A 
ATOM     11  C   UNL d   1      13.749  12.762  -3.419  0.00  0.00     0.023 A 
ATOM     12  C   UNL d   1      12.770  11.782  -3.798  0.00  0.00     0.025 A 
ATOM     13  C   UNL d   1      14.234  13.090  -2.822  0.00  0.00     0.009 A 
ATOM     14  C   UNL d   1      13.760  13.063  -4.171  0.00  0.00     0.002 A 
ATOM     15  C   UNL d   1      13.275  12.735  -4.769  0.00  0.00     0.000 A 
ATOM     16  C   UNL d   1      12.789  12.106  -4.586  0.00  0.00     0.002 A 
ENDBRANCH   1   6
BRANCH   3  17
ATOM     17  N   UNL d   1      15.441  14.553  -0.017  0.00  0.00    -0.122 NA
BRANCH  17  18
ATOM     18  N   UNL d   1      14.953  15.219  -0.114  0.00  0.00    -0.146 NA
BRANCH  18  19
ATOM     19  C   UNL d   1      15.209  15.892  -0.510  0.00  0.00     0.103 A 
ATOM     20  C   UNL d   1      15.869  16.311  -0.216  0.00  0.00     0.021 A 
ATOM     21  C   UNL d   1      16.131  16.999  -0.621  0.00  0.00     0.002 A 
ATOM     22  C   UNL d   1      15.718  17.227  -1.298  0.00  0.00     0.000 A 
ATOM     23  C   UNL d   1      15.080  16.810  -1.572  0.00  0.00     0.002 A 
ATOM     24  C   UNL d   1      14.825  16.142  -1.178  0.00  0.00     0.021 A 
ENDBRANCH  18  19
ENDBRANCH  17  18
ENDBRANCH   3  17
TORSDOF 4
ENDMDL
