MODEL 1
REMARK VINA RESULT:      -8.6      0.000      0.000
REMARK  3 active torsions:
REMARK  status: ('A' for Active; 'I' for Inactive)
REMARK    1  A    between atoms: C_6  and  C_1 
REMARK    2  A    between atoms: O_18  and  C_11 
REMARK    3  A    between atoms: O_19  and  C_13 
ROOT
ATOM      1  C   UNL d   1      52.018  34.274  53.326  0.00  0.00     0.064 A 
ATOM      2  C   UNL d   1      52.299  33.536  53.583  0.00  0.00     0.199 A 
ATOM      3  C   UNL d   1      52.984  33.489  54.037  0.00  0.00     0.062 A 
ATOM      4  C   UNL d   1      52.427  34.961  53.528  0.00  0.00     0.126 A 
ATOM      5  C   UNL d   1      53.393  34.177  54.238  0.00  0.00     0.106 A 
ATOM      6  O   UNL d   1      53.118  34.910  53.986  0.00  0.00    -0.305 OA
ATOM      7  C   UNL d   1      53.260  32.756  54.289  0.00  0.00     0.009 A 
ATOM      8  C   UNL d   1      54.079  34.130  54.693  0.00  0.00     0.067 A 
ATOM      9  O   UNL d   1      51.890  32.849  53.381  0.00  0.00    -0.286 OA
ATOM     10  C   UNL d   1      54.354  33.396  54.945  0.00  0.00     0.198 A 
ATOM     11  C   UNL d   1      53.944  32.709  54.743  0.00  0.00     0.042 A 
ATOM     12  O   UNL d   1      55.048  33.343  55.405  0.00  0.00    -0.286 OA
ENDROOT
BRANCH   1  13
ATOM     13  C   UNL d   1      51.333  34.321  52.872  0.00  0.00     0.007 A 
ATOM     14  C   UNL d   1      50.620  34.552  53.221  0.00  0.00     0.026 A 
ATOM     15  C   UNL d   1      49.934  34.599  52.767  0.00  0.00     0.116 A 
ATOM     16  C   UNL d   1      49.958  34.415  51.964  0.00  0.00     0.116 A 
ATOM     17  C   UNL d   1      50.671  34.184  51.614  0.00  0.00     0.026 A 
ATOM     18  C   UNL d   1      51.357  34.137  52.069  0.00  0.00     0.002 A 
BRANCH  15  19
ATOM     19  O   UNL d   1      49.226  34.830  53.117  0.00  0.00    -0.326 OA
ATOM     20  C   UNL d   1      49.207  35.484  53.619  0.00  0.00     0.181 C 
ENDBRANCH  15  19
BRANCH  16  21
ATOM     21  O   UNL d   1      49.274  34.460  51.501  0.00  0.00    -0.326 OA
ATOM     22  C   UNL d   1      49.327  34.363  50.678  0.00  0.00     0.181 C 
ENDBRANCH  16  21
ENDBRANCH   1  13
TORSDOF 3
ENDMDL
MODEL 2
REMARK VINA RESULT:      -8.3      0.949      4.464
REMARK  3 active torsions:
REMARK  status: ('A' for Active; 'I' for Inactive)
REMARK    1  A    between atoms: C_6  and  C_1 
REMARK    2  A    between atoms: O_18  and  C_11 
REMARK    3  A    between atoms: O_19  and  C_13 
ROOT
ATOM      1  C   UNL d   1      52.193  33.829  53.003  0.00  0.00     0.064 A 
ATOM      2  C   UNL d   1      51.428  33.967  53.293  0.00  0.00     0.199 A 
ATOM      3  C   UNL d   1      50.816  34.153  52.775  0.00  0.00     0.062 A 
ATOM      4  C   UNL d   1      52.339  33.878  52.193  0.00  0.00     0.126 A 
ATOM      5  C   UNL d   1      50.962  34.202  51.965  0.00  0.00     0.106 A 
ATOM      6  O   UNL d   1      51.720  34.066  51.672  0.00  0.00    -0.305 OA
ATOM      7  C   UNL d   1      50.058  34.289  53.066  0.00  0.00     0.009 A 
ATOM      8  C   UNL d   1      50.350  34.389  51.445  0.00  0.00     0.067 A 
ATOM      9  O   UNL d   1      51.282  33.917  54.104  0.00  0.00    -0.286 OA
ATOM     10  C   UNL d   1      49.593  34.525  51.738  0.00  0.00     0.198 A 
ATOM     11  C   UNL d   1      49.447  34.475  52.548  0.00  0.00     0.042 A 
ATOM     12  O   UNL d   1      48.969  34.714  51.217  0.00  0.00    -0.286 OA
ENDROOT
BRANCH   1  13
ATOM     13  C   UNL d   1      52.805  33.643  53.521  0.00  0.00     0.007 A 
ATOM     14  C   UNL d   1      53.031  32.855  53.629  0.00  0.00     0.026 A 
ATOM     15  C   UNL d   1      53.643  32.668  54.148  0.00  0.00     0.116 A 
ATOM     16  C   UNL d   1      54.031  33.267  54.560  0.00  0.00     0.116 A 
ATOM     17  C   UNL d   1      53.806  34.056  54.453  0.00  0.00     0.026 A 
ATOM     18  C   UNL d   1      53.194  34.242  53.934  0.00  0.00     0.002 A 
BRANCH  15  19
ATOM     19  O   UNL d   1      53.866  31.883  54.254  0.00  0.00    -0.326 OA
ATOM     20  C   UNL d   1      53.613  31.306  53.721  0.00  0.00     0.181 C 
ENDBRANCH  15  19
BRANCH  16  21
ATOM     21  O   UNL d   1      54.647  33.088  55.083  0.00  0.00    -0.326 OA
ATOM     22  C   UNL d   1      55.124  33.699  55.381  0.00  0.00     0.181 C 
ENDBRANCH  16  21
ENDBRANCH   1  13
TORSDOF 3
ENDMDL
MODEL 3
REMARK VINA RESULT:      -7.9      0.955      4.497
REMARK  3 active torsions:
REMARK  status: ('A' for Active; 'I' for Inactive)
REMARK    1  A    between atoms: C_6  and  C_1 
REMARK    2  A    between atoms: O_18  and  C_11 
REMARK    3  A    between atoms: O_19  and  C_13 
ROOT
ATOM      1  C   UNL d   1      51.925  33.731  53.467  0.00  0.00     0.064 A 
ATOM      2  C   UNL d   1      51.873  33.990  52.680  0.00  0.00     0.199 A 
ATOM      3  C   UNL d   1      51.138  34.134  52.339  0.00  0.00     0.062 A 
ATOM      4  C   UNL d   1      51.237  33.618  53.907  0.00  0.00     0.126 A 
ATOM      5  C   UNL d   1      50.450  34.021  52.780  0.00  0.00     0.106 A 
ATOM      6  O   UNL d   1      50.496  33.764  53.560  0.00  0.00    -0.305 OA
ATOM      7  C   UNL d   1      51.090  34.391  51.559  0.00  0.00     0.009 A 
ATOM      8  C   UNL d   1      49.713  34.165  52.439  0.00  0.00     0.067 A 
ATOM      9  O   UNL d   1      52.561  34.104  52.239  0.00  0.00    -0.286 OA
ATOM     10  C   UNL d   1      49.667  34.422  51.659  0.00  0.00     0.198 A 
ATOM     11  C   UNL d   1      50.355  34.535  51.218  0.00  0.00     0.042 A 
ATOM     12  O   UNL d   1      48.924  34.570  51.309  0.00  0.00    -0.286 OA
ENDROOT
BRANCH   1  13
ATOM     13  C   UNL d   1      52.660  33.587  53.807  0.00  0.00     0.007 A 
ATOM     14  C   UNL d   1      53.015  32.845  53.728  0.00  0.00     0.026 A 
ATOM     15  C   UNL d   1      53.751  32.700  54.068  0.00  0.00     0.116 A 
ATOM     16  C   UNL d   1      54.135  33.297  54.489  0.00  0.00     0.116 A 
ATOM     17  C   UNL d   1      53.781  34.040  54.569  0.00  0.00     0.026 A 
ATOM     18  C   UNL d   1      53.045  34.184  54.228  0.00  0.00     0.002 A 
BRANCH  15  19
ATOM     19  O   UNL d   1      54.102  31.960  53.989  0.00  0.00    -0.326 OA
ATOM     20  C   UNL d   1      53.653  31.314  53.740  0.00  0.00     0.181 C 
ENDBRANCH  15  19
BRANCH  16  21
ATOM     21  O   UNL d   1      54.875  33.159  54.834  0.00  0.00    -0.326 OA
ATOM     22  C   UNL d   1      55.249  33.767  55.259  0.00  0.00     0.181 C 
ENDBRANCH  16  21
ENDBRANCH   1  13
TORSDOF 3
ENDMDL
MODEL 4
REMARK VINA RESULT:      -7.9      2.002      3.390
REMARK  3 active torsions:
REMARK  status: ('A' for Active; 'I' for Inactive)
REMARK    1  A    between atoms: C_6  and  C_1 
REMARK    2  A    between atoms: O_18  and  C_11 
REMARK    3  A    between atoms: O_19  and  C_13 
ROOT
ATOM      1  C   UNL d   1      52.894  32.312  53.356  0.00  0.00     0.064 A 
ATOM      2  C   UNL d   1      53.117  31.805  53.974  0.00  0.00     0.199 A 
ATOM      3  C   UNL d   1      53.129  30.991  53.858  0.00  0.00     0.062 A 
ATOM      4  C   UNL d   1      52.684  31.997  52.623  0.00  0.00     0.126 A 
ATOM      5  C   UNL d   1      52.918  30.675  53.125  0.00  0.00     0.106 A 
ATOM      6  O   UNL d   1      52.696  31.174  52.509  0.00  0.00    -0.305 OA
ATOM      7  C   UNL d   1      53.350  30.491  54.473  0.00  0.00     0.009 A 
ATOM      8  C   UNL d   1      52.929  29.860  53.008  0.00  0.00     0.067 A 
ATOM      9  O   UNL d   1      53.328  32.121  54.707  0.00  0.00    -0.286 OA
ATOM     10  C   UNL d   1      53.151  29.361  53.624  0.00  0.00     0.198 A 
ATOM     11  C   UNL d   1      53.362  29.676  54.357  0.00  0.00     0.042 A 
ATOM     12  O   UNL d   1      53.164  28.534  53.512  0.00  0.00    -0.286 OA
ENDROOT
BRANCH   1  13
ATOM     13  C   UNL d   1      52.883  33.127  53.472  0.00  0.00     0.007 A 
ATOM     14  C   UNL d   1      52.183  33.552  53.360  0.00  0.00     0.026 A 
ATOM     15  C   UNL d   1      52.171  34.367  53.477  0.00  0.00     0.116 A 
ATOM     16  C   UNL d   1      52.859  34.761  53.706  0.00  0.00     0.116 A 
ATOM     17  C   UNL d   1      53.560  34.336  53.818  0.00  0.00     0.026 A 
ATOM     18  C   UNL d   1      53.571  33.521  53.701  0.00  0.00     0.002 A 
BRANCH  15  19
ATOM     19  O   UNL d   1      51.473  34.787  53.364  0.00  0.00    -0.326 OA
ATOM     20  C   UNL d   1      50.826  34.425  53.004  0.00  0.00     0.181 C 
ENDBRANCH  15  19
BRANCH  16  21
ATOM     21  O   UNL d   1      52.855  35.579  53.825  0.00  0.00    -0.326 OA
ATOM     22  C   UNL d   1      53.300  35.906  54.445  0.00  0.00     0.181 C 
ENDBRANCH  16  21
ENDBRANCH   1  13
TORSDOF 3
ENDMDL
MODEL 5
REMARK VINA RESULT:      -7.4      1.051      4.449
REMARK  3 active torsions:
REMARK  status: ('A' for Active; 'I' for Inactive)
REMARK    1  A    between atoms: C_6  and  C_1 
REMARK    2  A    between atoms: O_18  and  C_11 
REMARK    3  A    between atoms: O_19  and  C_13 
ROOT
ATOM      1  C   UNL d   1      50.907  34.221  52.796  0.00  0.00     0.064 A 
ATOM      2  C   UNL d   1      50.726  34.220  51.986  0.00  0.00     0.199 A 
ATOM      3  C   UNL d   1      49.966  34.403  51.731  0.00  0.00     0.062 A 
ATOM      4  C   UNL d   1      50.320  34.407  53.346  0.00  0.00     0.126 A 
ATOM      5  C   UNL d   1      49.379  34.589  52.281  0.00  0.00     0.106 A 
ATOM      6  O   UNL d   1      49.553  34.591  53.085  0.00  0.00    -0.305 OA
ATOM      7  C   UNL d   1      49.790  34.400  50.927  0.00  0.00     0.009 A 
ATOM      8  C   UNL d   1      48.617  34.772  52.026  0.00  0.00     0.067 A 
ATOM      9  O   UNL d   1      51.313  34.034  51.436  0.00  0.00    -0.286 OA
ATOM     10  C   UNL d   1      48.443  34.769  51.221  0.00  0.00     0.198 A 
ATOM     11  C   UNL d   1      49.030  34.583  50.672  0.00  0.00     0.042 A 
ATOM     12  O   UNL d   1      47.674  34.954  50.958  0.00  0.00    -0.286 OA
ENDROOT
BRANCH   1  13
ATOM     13  C   UNL d   1      51.667  34.038  53.051  0.00  0.00     0.007 A 
ATOM     14  C   UNL d   1      52.159  34.633  53.348  0.00  0.00     0.026 A 
ATOM     15  C   UNL d   1      52.920  34.450  53.604  0.00  0.00     0.116 A 
ATOM     16  C   UNL d   1      53.194  33.673  53.563  0.00  0.00     0.116 A 
ATOM     17  C   UNL d   1      52.702  33.077  53.266  0.00  0.00     0.026 A 
ATOM     18  C   UNL d   1      51.941  33.261  53.011  0.00  0.00     0.002 A 
BRANCH  15  19
ATOM     19  O   UNL d   1      53.408  35.044  53.899  0.00  0.00    -0.326 OA
ATOM     20  C   UNL d   1      53.095  35.629  54.389  0.00  0.00     0.181 C 
ENDBRANCH  15  19
BRANCH  16  21
ATOM     21  O   UNL d   1      53.957  33.482  53.817  0.00  0.00    -0.326 OA
ATOM     22  C   UNL d   1      54.256  32.718  53.684  0.00  0.00     0.181 C 
ENDBRANCH  16  21
ENDBRANCH   1  13
TORSDOF 3
ENDMDL
MODEL 6
REMARK VINA RESULT:      -7.3      2.302      4.013
REMARK  3 active torsions:
REMARK  status: ('A' for Active; 'I' for Inactive)
REMARK    1  A    between atoms: C_6  and  C_1 
REMARK    2  A    between atoms: O_18  and  C_11 
REMARK    3  A    between atoms: O_19  and  C_13 
ROOT
ATOM      1  C   UNL d   1      53.072  32.409  53.567  0.00  0.00     0.064 A 
ATOM      2  C   UNL d   1      53.292  32.840  54.242  0.00  0.00     0.199 A 
ATOM      3  C   UNL d   1      53.247  33.661  54.241  0.00  0.00     0.062 A 
ATOM      4  C   UNL d   1      52.807  32.808  52.895  0.00  0.00     0.126 A 
ATOM      5  C   UNL d   1      52.982  34.060  53.570  0.00  0.00     0.106 A 
ATOM      6  O   UNL d   1      52.762  33.638  52.898  0.00  0.00    -0.305 OA
ATOM      7  C   UNL d   1      53.466  34.085  54.912  0.00  0.00     0.009 A 
ATOM      8  C   UNL d   1      52.936  34.883  53.569  0.00  0.00     0.067 A 
ATOM      9  O   UNL d   1      53.557  32.441  54.914  0.00  0.00    -0.286 OA
ATOM     10  C   UNL d   1      53.156  35.305  54.240  0.00  0.00     0.198 A 
ATOM     11  C   UNL d   1      53.421  34.907  54.912  0.00  0.00     0.042 A 
ATOM     12  O   UNL d   1      53.112  36.139  54.245  0.00  0.00    -0.286 OA
ENDROOT
BRANCH   1  13
ATOM     13  C   UNL d   1      53.117  31.588  53.568  0.00  0.00     0.007 A 
ATOM     14  C   UNL d   1      52.426  31.135  53.537  0.00  0.00     0.026 A 
ATOM     15  C   UNL d   1      52.471  30.312  53.538  0.00  0.00     0.116 A 
ATOM     16  C   UNL d   1      53.206  29.939  53.568  0.00  0.00     0.116 A 
ATOM     17  C   UNL d   1      53.898  30.392  53.599  0.00  0.00     0.026 A 
ATOM     18  C   UNL d   1      53.853  31.215  53.598  0.00  0.00     0.002 A 
BRANCH  15  19
ATOM     19  O   UNL d   1      51.783  29.864  53.507  0.00  0.00    -0.326 OA
ATOM     20  C   UNL d   1      51.047  30.232  53.566  0.00  0.00     0.181 C 
ENDBRANCH  15  19
BRANCH  16  21
ATOM     21  O   UNL d   1      53.260  29.114  53.569  0.00  0.00    -0.326 OA
ATOM     22  C   UNL d   1      53.682  28.730  54.173  0.00  0.00     0.181 C 
ENDBRANCH  16  21
ENDBRANCH   1  13
TORSDOF 3
ENDMDL
MODEL 7
REMARK VINA RESULT:      -7.1      0.975      2.001
REMARK  3 active torsions:
REMARK  status: ('A' for Active; 'I' for Inactive)
REMARK    1  A    between atoms: C_6  and  C_1 
REMARK    2  A    between atoms: O_18  and  C_11 
REMARK    3  A    between atoms: O_19  and  C_13 
ROOT
ATOM      1  C   UNL d   1      50.965  33.923  53.018  0.00  0.00     0.064 A 
ATOM      2  C   UNL d   1      51.688  34.303  53.170  0.00  0.00     0.199 A 
ATOM      3  C   UNL d   1      52.368  33.859  53.305  0.00  0.00     0.062 A 
ATOM      4  C   UNL d   1      50.931  33.099  53.003  0.00  0.00     0.126 A 
ATOM      5  C   UNL d   1      52.334  33.035  53.290  0.00  0.00     0.106 A 
ATOM      6  O   UNL d   1      51.620  32.654  53.139  0.00  0.00    -0.305 OA
ATOM      7  C   UNL d   1      53.083  34.239  53.455  0.00  0.00     0.009 A 
ATOM      8  C   UNL d   1      53.014  32.591  53.425  0.00  0.00     0.067 A 
ATOM      9  O   UNL d   1      51.722  35.127  53.185  0.00  0.00    -0.286 OA
ATOM     10  C   UNL d   1      53.729  32.972  53.575  0.00  0.00     0.198 A 
ATOM     11  C   UNL d   1      53.763  33.796  53.590  0.00  0.00     0.042 A 
ATOM     12  O   UNL d   1      54.421  32.527  53.712  0.00  0.00    -0.286 OA
ENDROOT
BRANCH   1  13
ATOM     13  C   UNL d   1      50.286  34.366  52.883  0.00  0.00     0.007 A 
ATOM     14  C   UNL d   1      49.938  34.374  52.133  0.00  0.00     0.026 A 
ATOM     15  C   UNL d   1      49.258  34.817  51.997  0.00  0.00     0.116 A 
ATOM     16  C   UNL d   1      48.921  35.255  52.611  0.00  0.00     0.116 A 
ATOM     17  C   UNL d   1      49.268  35.248  53.362  0.00  0.00     0.026 A 
ATOM     18  C   UNL d   1      49.949  34.804  53.496  0.00  0.00     0.002 A 
BRANCH  15  19
ATOM     19  O   UNL d   1      48.914  34.823  51.250  0.00  0.00    -0.326 OA
ATOM     20  C   UNL d   1      49.172  34.294  50.672  0.00  0.00     0.181 C 
ENDBRANCH  15  19
BRANCH  16  21
ATOM     21  O   UNL d   1      48.238  35.703  52.482  0.00  0.00    -0.326 OA
ATOM     22  C   UNL d   1      47.906  36.134  53.109  0.00  0.00     0.181 C 
ENDBRANCH  16  21
ENDBRANCH   1  13
TORSDOF 3
ENDMDL
