MODEL 1
REMARK VINA RESULT:      66.7      0.000      0.000
REMARK  1 active torsions:
REMARK  status: ('A' for Active; 'I' for Inactive)
REMARK       I    between atoms: C_3  and  N_1 
REMARK    1  A    between atoms: C_6  and  C_3 
ROOT
ATOM      1  N   UNL d   1     -47.674  31.767  34.772  0.00  0.00    -0.175 N 
ATOM      2  N   UNL d   1     -46.947  32.044  35.083  0.00  0.00    -0.057 NA
ATOM      3  C   UNL d   1     -48.036  31.032  34.964  0.00  0.00     0.282 C 
ATOM      4  N   UNL d   1     -46.797  32.750  34.771  0.00  0.00    -0.129 NA
ATOM      5  C   UNL d   1     -47.960  32.343  34.253  0.00  0.00     0.107 A 
ATOM      6  C   UNL d   1     -47.405  32.963  34.253  0.00  0.00     0.122 A 
ATOM      7  O   UNL d   1     -48.766  30.832  34.607  0.00  0.00    -0.265 OA
ATOM      8  C   UNL d   1     -48.649  32.391  33.778  0.00  0.00     0.021 A 
ATOM      9  C   UNL d   1     -47.528  33.646  33.777  0.00  0.00     0.022 A 
ATOM     10  C   UNL d   1     -48.772  33.067  33.306  0.00  0.00     0.002 A 
ATOM     11  C   UNL d   1     -48.218  33.688  33.306  0.00  0.00     0.002 A 
ENDROOT
BRANCH   3  12
ATOM     12  C   UNL d   1     -47.684  30.510  35.495  0.00  0.00     0.058 A 
ATOM     13  C   UNL d   1     -47.812  29.706  35.440  0.00  0.00     0.005 A 
ATOM     14  C   UNL d   1     -47.467  29.198  35.960  0.00  0.00     0.000 A 
ATOM     15  C   UNL d   1     -48.302  29.444  34.838  0.00  0.00     0.000 A 
ATOM     16  C   UNL d   1     -47.608  28.400  35.888  0.00  0.00     0.000 A 
ATOM     17  C   UNL d   1     -46.973  29.486  36.564  0.00  0.00     0.000 A 
ATOM     18  C   UNL d   1     -48.078  28.117  35.315  0.00  0.00     0.000 A 
ATOM     19  C   UNL d   1     -48.427  28.636  34.787  0.00  0.00     0.000 A 
ATOM     20  C   UNL d   1     -46.837  30.296  36.628  0.00  0.00     0.000 A 
ATOM     21  C   UNL d   1     -47.197  30.812  36.087  0.00  0.00     0.005 A 
ENDBRANCH   3  12
TORSDOF 1
ENDMDL
MODEL 2
REMARK VINA RESULT:      67.4      3.843      5.358
REMARK  1 active torsions:
REMARK  status: ('A' for Active; 'I' for Inactive)
REMARK       I    between atoms: C_3  and  N_1 
REMARK    1  A    between atoms: C_6  and  C_3 
ROOT
ATOM      1  N   UNL d   1     -49.536  27.239  34.005  0.00  0.00    -0.175 N 
ATOM      2  N   UNL d   1     -48.908  26.789  34.331  0.00  0.00    -0.057 NA
ATOM      3  C   UNL d   1     -50.206  26.921  33.608  0.00  0.00     0.282 C 
ATOM      4  N   UNL d   1     -48.390  27.284  34.652  0.00  0.00    -0.129 NA
ATOM      5  C   UNL d   1     -49.371  28.036  34.146  0.00  0.00     0.107 A 
ATOM      6  C   UNL d   1     -48.647  28.064  34.555  0.00  0.00     0.122 A 
ATOM      7  O   UNL d   1     -50.789  27.443  33.312  0.00  0.00    -0.265 OA
ATOM      8  C   UNL d   1     -49.780  28.743  33.958  0.00  0.00     0.021 A 
ATOM      9  C   UNL d   1     -48.316  28.802  34.786  0.00  0.00     0.022 A 
ATOM     10  C   UNL d   1     -49.452  29.476  34.187  0.00  0.00     0.002 A 
ATOM     11  C   UNL d   1     -48.728  29.504  34.596  0.00  0.00     0.002 A 
ENDROOT
BRANCH   3  12
ATOM     12  C   UNL d   1     -50.296  26.108  33.508  0.00  0.00     0.058 A 
ATOM     13  C   UNL d   1     -51.037  25.771  33.456  0.00  0.00     0.005 A 
ATOM     14  C   UNL d   1     -51.123  24.976  33.359  0.00  0.00     0.000 A 
ATOM     15  C   UNL d   1     -51.683  26.273  33.508  0.00  0.00     0.000 A 
ATOM     16  C   UNL d   1     -51.871  24.661  33.309  0.00  0.00     0.000 A 
ATOM     17  C   UNL d   1     -50.454  24.486  33.309  0.00  0.00     0.000 A 
ATOM     18  C   UNL d   1     -52.514  25.123  33.356  0.00  0.00     0.000 A 
ATOM     19  C   UNL d   1     -52.424  25.931  33.455  0.00  0.00     0.000 A 
ATOM     20  C   UNL d   1     -49.701  24.815  33.360  0.00  0.00     0.000 A 
ATOM     21  C   UNL d   1     -49.622  25.636  33.461  0.00  0.00     0.005 A 
ENDBRANCH   3  12
TORSDOF 1
ENDMDL
MODEL 3
REMARK VINA RESULT:      67.5      0.752      3.775
REMARK  1 active torsions:
REMARK  status: ('A' for Active; 'I' for Inactive)
REMARK       I    between atoms: C_3  and  N_1 
REMARK    1  A    between atoms: C_6  and  C_3 
ROOT
ATOM      1  N   UNL d   1     -47.426  30.946  35.196  0.00  0.00    -0.175 N 
ATOM      2  N   UNL d   1     -46.961  31.393  35.733  0.00  0.00    -0.057 NA
ATOM      3  C   UNL d   1     -47.675  31.207  34.436  0.00  0.00     0.282 C 
ATOM      4  N   UNL d   1     -46.846  30.960  36.378  0.00  0.00    -0.129 NA
ATOM      5  C   UNL d   1     -47.586  30.218  35.551  0.00  0.00     0.107 A 
ATOM      6  C   UNL d   1     -47.220  30.227  36.298  0.00  0.00     0.122 A 
ATOM      7  O   UNL d   1     -48.138  30.696  33.962  0.00  0.00    -0.265 OA
ATOM      8  C   UNL d   1     -48.016  29.543  35.298  0.00  0.00     0.021 A 
ATOM      9  C   UNL d   1     -47.275  29.561  36.809  0.00  0.00     0.022 A 
ATOM     10  C   UNL d   1     -48.072  28.883  35.805  0.00  0.00     0.002 A 
ATOM     11  C   UNL d   1     -47.705  28.892  36.552  0.00  0.00     0.002 A 
ENDROOT
BRANCH   3  12
ATOM     12  C   UNL d   1     -47.472  31.953  34.154  0.00  0.00     0.058 A 
ATOM     13  C   UNL d   1     -48.040  32.464  33.869  0.00  0.00     0.005 A 
ATOM     14  C   UNL d   1     -47.839  33.193  33.593  0.00  0.00     0.000 A 
ATOM     15  C   UNL d   1     -48.817  32.204  33.876  0.00  0.00     0.000 A 
ATOM     16  C   UNL d   1     -48.421  33.687  33.314  0.00  0.00     0.000 A 
ATOM     17  C   UNL d   1     -47.044  33.437  33.595  0.00  0.00     0.000 A 
ATOM     18  C   UNL d   1     -49.182  33.461  33.309  0.00  0.00     0.000 A 
ATOM     19  C   UNL d   1     -49.384  32.719  33.590  0.00  0.00     0.000 A 
ATOM     20  C   UNL d   1     -46.461  32.930  33.881  0.00  0.00     0.000 A 
ATOM     21  C   UNL d   1     -46.679  32.180  34.163  0.00  0.00     0.005 A 
ENDBRANCH   3  12
TORSDOF 1
ENDMDL
