MODEL 1
REMARK VINA RESULT:      94.9      0.000      0.000
REMARK  5 active torsions:
REMARK  status: ('A' for Active; 'I' for Inactive)
REMARK    1  A    between atoms: C_5  and  N_1 
REMARK    2  A    between atoms: C_8  and  C_3 
REMARK    3  A    between atoms: C_7  and  C_4 
REMARK    4  A    between atoms: N_12  and  C_5 
REMARK    5  A    between atoms: N_11  and  C_10 
ROOT
ATOM      1  N   UNL d   1      60.388  49.079  50.396  0.00  0.00    -0.203 N 
ATOM      2  N   UNL d   1      61.058  49.053  50.857  0.00  0.00    -0.163 NA
ATOM      3  C   UNL d   1      60.850  49.053  51.632  0.00  0.00     0.103 A 
ATOM      4  C   UNL d   1      59.722  49.098  50.898  0.00  0.00     0.087 A 
ATOM      5  C   UNL d   1      60.018  49.081  51.676  0.00  0.00     0.040 A 
ENDROOT
BRANCH   4   6
ATOM      6  C   UNL d   1      58.923  49.126  50.693  0.00  0.00     0.018 A 
ATOM      7  C   UNL d   1      58.441  49.675  51.018  0.00  0.00     0.003 A 
ATOM      8  C   UNL d   1      57.637  49.706  50.813  0.00  0.00     0.018 A 
ATOM      9  C   UNL d   1      57.343  49.161  50.268  0.00  0.00     0.064 A 
ATOM     10  C   UNL d   1      57.829  48.599  49.933  0.00  0.00     0.018 A 
ATOM     11  C   UNL d   1      58.628  48.582  50.149  0.00  0.00     0.003 A 
BRANCH   9  12
ATOM     12  N   UNL d   1      56.562  49.185  50.064  0.00  0.00    -0.301 N 
ATOM     13  C   UNL d   1      56.045  48.690  50.430  0.00  0.00     0.100 C 
ATOM     14  C   UNL d   1      56.310  49.708  49.494  0.00  0.00     0.100 C 
ENDBRANCH   9  12
ENDBRANCH   4   6
BRANCH   1  15
ATOM     15  C   UNL d   1      60.372  49.087  49.559  0.00  0.00     0.222 C 
ATOM     16  S   UNL d   1      59.909  49.662  49.167  0.00  0.00    -0.037 SA
BRANCH  15  17
ATOM     17  N   UNL d   1      60.815  48.524  49.123  0.00  0.00    -0.214 NA
ATOM     18  C   UNL d   1      61.204  47.893  49.511  0.00  0.00     0.122 C 
ENDBRANCH  15  17
ENDBRANCH   1  15
BRANCH   3  19
ATOM     19  C   UNL d   1      61.385  49.030  52.249  0.00  0.00     0.019 A 
ATOM     20  C   UNL d   1      61.551  48.301  52.605  0.00  0.00     0.002 A 
ATOM     21  C   UNL d   1      62.081  48.262  53.220  0.00  0.00     0.000 A 
ATOM     22  C   UNL d   1      62.453  48.948  53.489  0.00  0.00     0.000 A 
ATOM     23  C   UNL d   1      62.285  49.686  53.128  0.00  0.00     0.000 A 
ATOM     24  C   UNL d   1      62.991  48.907  54.113  0.00  0.00     0.000 C 
ATOM     25  C   UNL d   1      61.746  49.704  52.507  0.00  0.00     0.002 A 
ENDBRANCH   3  19
TORSDOF 5
ENDMDL
