MODEL 1
REMARK VINA RESULT:      -9.9      0.000      0.000
REMARK  6 active torsions:
REMARK  status: ('A' for Active; 'I' for Inactive)
REMARK    1  A    between atoms: C_7  and  S_1 
REMARK    2  A    between atoms: N_18  and  S_1 
REMARK    3  A    between atoms: C_6  and  C_4 
REMARK    4  A    between atoms: C_9  and  C_24 
REMARK    5  A    between atoms: C_26  and  N_18 
REMARK    6  A    between atoms: C_24  and  C_26 
ROOT
ATOM      1  S   UNL d   1      52.656  34.540  53.424  0.00  0.00     0.285 S 
ATOM      2  O   UNL d   1      52.248  35.246  53.306  0.00  0.00    -0.198 OA
ATOM      3  O   UNL d   1      53.344  34.969  53.556  0.00  0.00    -0.198 OA
ENDROOT
BRANCH   1   4
ATOM      4  C   UNL d   1      53.070  33.841  53.544  0.00  0.00     0.105 A 
ATOM      5  C   UNL d   1      53.421  33.690  54.275  0.00  0.00     0.019 A 
ATOM      6  C   UNL d   1      53.833  32.994  54.397  0.00  0.00     0.100 A 
ATOM      7  C   UNL d   1      53.899  32.440  53.787  0.00  0.00     0.144 A 
ATOM      8  C   UNL d   1      53.549  32.590  53.059  0.00  0.00     0.030 A 
ATOM      9  F   UNL d   1      54.311  31.740  53.901  0.00  0.00    -0.204 F 
ATOM     10  C   UNL d   1      53.135  33.288  52.934  0.00  0.00     0.015 A 
BRANCH   6  11
ATOM     11  C   UNL d   1      54.181  32.847  55.122  0.00  0.00     0.421 C 
ATOM     12  F   UNL d   1      54.507  32.716  55.788  0.00  0.00    -0.166 F 
ATOM     13  F   UNL d   1      53.886  32.387  55.786  0.00  0.00    -0.166 F 
ATOM     14  F   UNL d   1      54.945  33.115  55.420  0.00  0.00    -0.166 F 
ENDBRANCH   6  11
ENDBRANCH   1   4
BRANCH   1  15
ATOM     15  N   UNL d   1      51.958  34.118  53.291  0.00  0.00    -0.157 NA
BRANCH  15  16
ATOM     16  C   UNL d   1      51.279  34.503  53.078  0.00  0.00     0.114 C 
BRANCH  16  17
ATOM     17  C   UNL d   1      50.571  34.081  52.978  0.00  0.00     0.042 C 
BRANCH  17  18
ATOM     18  C   UNL d   1      49.879  34.491  52.738  0.00  0.00     0.102 A 
ATOM     19  N   UNL d   1      49.449  35.008  53.193  0.00  0.00    -0.227 NA
ATOM     20  C   UNL d   1      48.810  35.288  52.748  0.00  0.00     0.148 A 
ATOM     21  C   UNL d   1      48.205  35.815  52.925  0.00  0.00     0.037 A 
ATOM     22  N   UNL d   1      48.848  34.937  52.008  0.00  0.00    -0.288 N 
ATOM     23  C   UNL d   1      47.637  35.988  52.357  0.00  0.00     0.004 A 
ATOM     24  C   UNL d   1      47.030  36.517  52.537  0.00  0.00     0.000 C 
ATOM     25  C   UNL d   1      47.664  35.644  51.614  0.00  0.00     0.019 A 
ATOM     26  C   UNL d   1      48.278  35.112  51.438  0.00  0.00     0.082 A 
ATOM     27  C   UNL d   1      49.512  34.437  51.990  0.00  0.00     0.101 A 
ENDBRANCH  17  18
ENDBRANCH  16  17
ENDBRANCH  15  16
ENDBRANCH   1  15
TORSDOF 6
ENDMDL
MODEL 2
REMARK VINA RESULT:      -9.8      0.443      1.154
REMARK  6 active torsions:
REMARK  status: ('A' for Active; 'I' for Inactive)
REMARK    1  A    between atoms: C_7  and  S_1 
REMARK    2  A    between atoms: N_18  and  S_1 
REMARK    3  A    between atoms: C_6  and  C_4 
REMARK    4  A    between atoms: C_9  and  C_24 
REMARK    5  A    between atoms: C_26  and  N_18 
REMARK    6  A    between atoms: C_24  and  C_26 
ROOT
ATOM      1  S   UNL d   1      52.789  34.530  53.275  0.00  0.00     0.285 S 
ATOM      2  O   UNL d   1      52.465  35.071  52.745  0.00  0.00    -0.198 OA
ATOM      3  O   UNL d   1      53.515  34.907  53.204  0.00  0.00    -0.198 OA
ENDROOT
BRANCH   1   4
ATOM      4  C   UNL d   1      53.119  33.994  53.803  0.00  0.00     0.105 A 
ATOM      5  C   UNL d   1      53.352  33.247  53.541  0.00  0.00     0.019 A 
ATOM      6  C   UNL d   1      53.681  32.713  54.065  0.00  0.00     0.100 A 
ATOM      7  C   UNL d   1      53.781  32.920  54.859  0.00  0.00     0.144 A 
ATOM      8  C   UNL d   1      53.549  33.662  55.120  0.00  0.00     0.030 A 
ATOM      9  F   UNL d   1      54.110  32.388  55.391  0.00  0.00    -0.204 F 
ATOM     10  C   UNL d   1      53.218  34.202  54.597  0.00  0.00     0.015 A 
BRANCH   6  11
ATOM     11  C   UNL d   1      53.912  31.973  53.803  0.00  0.00     0.421 C 
ATOM     12  F   UNL d   1      54.131  31.295  53.559  0.00  0.00    -0.166 F 
ATOM     13  F   UNL d   1      53.476  31.232  53.805  0.00  0.00    -0.166 F 
ATOM     14  F   UNL d   1      54.662  31.735  53.450  0.00  0.00    -0.166 F 
ENDBRANCH   6  11
ENDBRANCH   1   4
BRANCH   1  15
ATOM     15  N   UNL d   1      52.053  34.157  53.339  0.00  0.00    -0.157 NA
BRANCH  15  16
ATOM     16  C   UNL d   1      51.400  34.474  52.983  0.00  0.00     0.114 C 
BRANCH  16  17
ATOM     17  C   UNL d   1      50.685  34.052  52.966  0.00  0.00     0.042 C 
BRANCH  17  18
ATOM     18  C   UNL d   1      49.985  34.438  52.711  0.00  0.00     0.102 A 
ATOM     19  N   UNL d   1      49.544  34.963  53.146  0.00  0.00    -0.227 NA
ATOM     20  C   UNL d   1      48.901  35.214  52.691  0.00  0.00     0.148 A 
ATOM     21  C   UNL d   1      48.284  35.734  52.849  0.00  0.00     0.037 A 
ATOM     22  N   UNL d   1      48.947  34.838  51.964  0.00  0.00    -0.288 N 
ATOM     23  C   UNL d   1      47.714  35.876  52.275  0.00  0.00     0.004 A 
ATOM     24  C   UNL d   1      47.097  36.398  52.435  0.00  0.00     0.000 C 
ATOM     25  C   UNL d   1      47.749  35.507  51.544  0.00  0.00     0.019 A 
ATOM     26  C   UNL d   1      48.374  34.981  51.388  0.00  0.00     0.082 A 
ATOM     27  C   UNL d   1      49.621  34.351  51.965  0.00  0.00     0.101 A 
ENDBRANCH  17  18
ENDBRANCH  16  17
ENDBRANCH  15  16
ENDBRANCH   1  15
TORSDOF 6
ENDMDL
MODEL 3
REMARK VINA RESULT:      -8.3      1.672      2.278
REMARK  6 active torsions:
REMARK  status: ('A' for Active; 'I' for Inactive)
REMARK    1  A    between atoms: C_7  and  S_1 
REMARK    2  A    between atoms: N_18  and  S_1 
REMARK    3  A    between atoms: C_6  and  C_4 
REMARK    4  A    between atoms: C_9  and  C_24 
REMARK    5  A    between atoms: C_26  and  N_18 
REMARK    6  A    between atoms: C_24  and  C_26 
ROOT
ATOM      1  S   UNL d   1      50.998  34.211  52.278  0.00  0.00     0.285 S 
ATOM      2  O   UNL d   1      50.458  34.326  51.666  0.00  0.00    -0.198 OA
ATOM      3  O   UNL d   1      51.554  33.959  51.728  0.00  0.00    -0.198 OA
ENDROOT
BRANCH   1   4
ATOM      4  C   UNL d   1      51.543  34.093  52.881  0.00  0.00     0.105 A 
ATOM      5  C   UNL d   1      51.987  34.728  53.165  0.00  0.00     0.019 A 
ATOM      6  C   UNL d   1      52.530  34.613  53.766  0.00  0.00     0.100 A 
ATOM      7  C   UNL d   1      52.634  33.860  54.090  0.00  0.00     0.144 A 
ATOM      8  C   UNL d   1      52.193  33.228  53.809  0.00  0.00     0.030 A 
ATOM      9  F   UNL d   1      53.177  33.737  54.694  0.00  0.00    -0.204 F 
ATOM     10  C   UNL d   1      51.647  33.340  53.205  0.00  0.00     0.015 A 
BRANCH   6  11
ATOM     11  C   UNL d   1      52.969  35.244  54.046  0.00  0.00     0.421 C 
ATOM     12  F   UNL d   1      53.379  35.823  54.297  0.00  0.00    -0.166 F 
ATOM     13  F   UNL d   1      52.798  35.786  54.690  0.00  0.00    -0.166 F 
ATOM     14  F   UNL d   1      53.730  35.538  53.766  0.00  0.00    -0.166 F 
ENDBRANCH   6  11
ENDBRANCH   1   4
BRANCH   1  15
ATOM     15  N   UNL d   1      50.432  34.466  52.823  0.00  0.00    -0.157 NA
BRANCH  15  16
ATOM     16  C   UNL d   1      49.728  34.775  52.570  0.00  0.00     0.114 C 
BRANCH  16  17
ATOM     17  C   UNL d   1      49.235  35.182  53.099  0.00  0.00     0.042 C 
BRANCH  17  18
ATOM     18  C   UNL d   1      48.489  35.460  52.834  0.00  0.00     0.102 A 
ATOM     19  N   UNL d   1      48.091  35.205  52.174  0.00  0.00    -0.227 NA
ATOM     20  C   UNL d   1      47.378  35.621  52.113  0.00  0.00     0.148 A 
ATOM     21  C   UNL d   1      46.768  35.590  51.564  0.00  0.00     0.037 A 
ATOM     22  N   UNL d   1      47.338  36.141  52.746  0.00  0.00    -0.288 N 
ATOM     23  C   UNL d   1      46.116  36.083  51.652  0.00  0.00     0.004 A 
ATOM     24  C   UNL d   1      45.505  36.050  51.099  0.00  0.00     0.000 C 
ATOM     25  C   UNL d   1      46.063  36.606  52.280  0.00  0.00     0.019 A 
ATOM     26  C   UNL d   1      46.683  36.635  52.833  0.00  0.00     0.082 A 
ATOM     27  C   UNL d   1      48.026  36.050  53.203  0.00  0.00     0.101 A 
ENDBRANCH  17  18
ENDBRANCH  16  17
ENDBRANCH  15  16
ENDBRANCH   1  15
TORSDOF 6
ENDMDL
MODEL 4
REMARK VINA RESULT:      -8.1      1.753      2.375
REMARK  6 active torsions:
REMARK  status: ('A' for Active; 'I' for Inactive)
REMARK    1  A    between atoms: C_7  and  S_1 
REMARK    2  A    between atoms: N_18  and  S_1 
REMARK    3  A    between atoms: C_6  and  C_4 
REMARK    4  A    between atoms: C_9  and  C_24 
REMARK    5  A    between atoms: C_26  and  N_18 
REMARK    6  A    between atoms: C_24  and  C_26 
ROOT
ATOM      1  S   UNL d   1      53.378  32.863  54.301  0.00  0.00     0.285 S 
ATOM      2  O   UNL d   1      53.092  33.543  54.667  0.00  0.00    -0.198 OA
ATOM      3  O   UNL d   1      53.729  32.640  55.009  0.00  0.00    -0.198 OA
ENDROOT
BRANCH   1   4
ATOM      4  C   UNL d   1      53.666  32.183  53.943  0.00  0.00     0.105 A 
ATOM      5  C   UNL d   1      53.279  31.462  54.053  0.00  0.00     0.019 A 
ATOM      6  C   UNL d   1      53.565  30.784  53.698  0.00  0.00     0.100 A 
ATOM      7  C   UNL d   1      54.243  30.818  53.227  0.00  0.00     0.144 A 
ATOM      8  C   UNL d   1      54.629  31.534  53.117  0.00  0.00     0.030 A 
ATOM      9  F   UNL d   1      54.536  30.141  52.867  0.00  0.00    -0.204 F 
ATOM     10  C   UNL d   1      54.345  32.217  53.472  0.00  0.00     0.015 A 
BRANCH   6  11
ATOM     11  C   UNL d   1      53.179  30.071  53.809  0.00  0.00     0.421 C 
ATOM     12  F   UNL d   1      52.828  29.414  53.918  0.00  0.00    -0.166 F 
ATOM     13  F   UNL d   1      52.582  29.691  53.321  0.00  0.00    -0.166 F 
ATOM     14  F   UNL d   1      53.268  29.503  54.452  0.00  0.00    -0.166 F 
ENDBRANCH   6  11
ENDBRANCH   1   4
BRANCH   1  15
ATOM     15  N   UNL d   1      53.020  33.097  53.593  0.00  0.00    -0.157 NA
BRANCH  15  16
ATOM     16  C   UNL d   1      52.419  33.638  53.596  0.00  0.00     0.114 C 
BRANCH  16  17
ATOM     17  C   UNL d   1      52.274  34.108  52.927  0.00  0.00     0.042 C 
BRANCH  17  18
ATOM     18  C   UNL d   1      51.482  34.272  52.704  0.00  0.00     0.102 A 
ATOM     19  N   UNL d   1      51.155  34.137  51.973  0.00  0.00    -0.227 NA
ATOM     20  C   UNL d   1      50.363  34.376  51.986  0.00  0.00     0.148 A 
ATOM     21  C   UNL d   1      49.776  34.368  51.411  0.00  0.00     0.037 A 
ATOM     22  N   UNL d   1      50.200  34.662  52.737  0.00  0.00    -0.288 N 
ATOM     23  C   UNL d   1      49.025  34.648  51.591  0.00  0.00     0.004 A 
ATOM     24  C   UNL d   1      48.437  34.638  51.013  0.00  0.00     0.000 C 
ATOM     25  C   UNL d   1      48.849  34.936  52.338  0.00  0.00     0.019 A 
ATOM     26  C   UNL d   1      49.446  34.943  52.917  0.00  0.00     0.082 A 
ATOM     27  C   UNL d   1      50.892  34.602  53.194  0.00  0.00     0.101 A 
ENDBRANCH  17  18
ENDBRANCH  16  17
ENDBRANCH  15  16
ENDBRANCH   1  15
TORSDOF 6
ENDMDL
MODEL 5
REMARK VINA RESULT:      -7.8      2.847      5.393
REMARK  6 active torsions:
REMARK  status: ('A' for Active; 'I' for Inactive)
REMARK    1  A    between atoms: C_7  and  S_1 
REMARK    2  A    between atoms: N_18  and  S_1 
REMARK    3  A    between atoms: C_6  and  C_4 
REMARK    4  A    between atoms: C_9  and  C_24 
REMARK    5  A    between atoms: C_26  and  N_18 
REMARK    6  A    between atoms: C_24  and  C_26 
ROOT
ATOM      1  S   UNL d   1      52.845  34.444  53.661  0.00  0.00     0.285 S 
ATOM      2  O   UNL d   1      53.404  34.450  54.266  0.00  0.00    -0.198 OA
ATOM      3  O   UNL d   1      52.550  35.159  53.937  0.00  0.00    -0.198 OA
ENDROOT
BRANCH   1   4
ATOM      4  C   UNL d   1      52.285  34.445  53.060  0.00  0.00     0.105 A 
ATOM      5  C   UNL d   1      51.483  34.396  53.244  0.00  0.00     0.019 A 
ATOM      6  C   UNL d   1      50.923  34.397  52.648  0.00  0.00     0.100 A 
ATOM      7  C   UNL d   1      51.162  34.447  51.858  0.00  0.00     0.144 A 
ATOM      8  C   UNL d   1      51.960  34.496  51.673  0.00  0.00     0.030 A 
ATOM      9  F   UNL d   1      50.606  34.449  51.253  0.00  0.00    -0.204 F 
ATOM     10  C   UNL d   1      52.524  34.496  52.270  0.00  0.00     0.015 A 
BRANCH   6  11
ATOM     11  C   UNL d   1      50.128  34.348  52.833  0.00  0.00     0.421 C 
ATOM     12  F   UNL d   1      49.396  34.311  53.005  0.00  0.00    -0.166 F 
ATOM     13  F   UNL d   1      49.616  33.658  52.867  0.00  0.00    -0.166 F 
ATOM     14  F   UNL d   1      49.584  34.982  53.047  0.00  0.00    -0.166 F 
ENDBRANCH   6  11
ENDBRANCH   1   4
BRANCH   1  15
ATOM     15  N   UNL d   1      53.150  33.725  53.390  0.00  0.00    -0.157 NA
BRANCH  15  16
ATOM     16  C   UNL d   1      53.439  33.179  53.913  0.00  0.00     0.114 C 
BRANCH  16  17
ATOM     17  C   UNL d   1      53.969  32.593  53.658  0.00  0.00     0.042 C 
BRANCH  17  18
ATOM     18  C   UNL d   1      53.763  31.785  53.751  0.00  0.00     0.102 A 
ATOM     19  N   UNL d   1      53.887  31.334  54.415  0.00  0.00    -0.227 NA
ATOM     20  C   UNL d   1      53.605  30.570  54.277  0.00  0.00     0.148 A 
ATOM     21  C   UNL d   1      53.586  29.896  54.747  0.00  0.00     0.037 A 
ATOM     22  N   UNL d   1      53.302  30.549  53.515  0.00  0.00    -0.288 N 
ATOM     23  C   UNL d   1      53.263  29.201  54.450  0.00  0.00     0.004 A 
ATOM     24  C   UNL d   1      53.245  28.526  54.924  0.00  0.00     0.000 C 
ATOM     25  C   UNL d   1      52.958  29.167  53.691  0.00  0.00     0.019 A 
ATOM     26  C   UNL d   1      52.978  29.851  53.219  0.00  0.00     0.082 A 
ATOM     27  C   UNL d   1      53.396  31.302  53.176  0.00  0.00     0.101 A 
ENDBRANCH  17  18
ENDBRANCH  16  17
ENDBRANCH  15  16
ENDBRANCH   1  15
TORSDOF 6
ENDMDL
MODEL 6
REMARK VINA RESULT:      -7.0      4.074      6.423
REMARK  6 active torsions:
REMARK  status: ('A' for Active; 'I' for Inactive)
REMARK    1  A    between atoms: C_7  and  S_1 
REMARK    2  A    between atoms: N_18  and  S_1 
REMARK    3  A    between atoms: C_6  and  C_4 
REMARK    4  A    between atoms: C_9  and  C_24 
REMARK    5  A    between atoms: C_26  and  N_18 
REMARK    6  A    between atoms: C_24  and  C_26 
ROOT
ATOM      1  S   UNL d   1      48.795  34.851  51.414  0.00  0.00     0.285 S 
ATOM      2  O   UNL d   1      49.405  34.387  51.110  0.00  0.00    -0.198 OA
ATOM      3  O   UNL d   1      48.446  34.865  50.672  0.00  0.00    -0.198 OA
ENDROOT
BRANCH   1   4
ATOM      4  C   UNL d   1      48.185  35.313  51.710  0.00  0.00     0.105 A 
ATOM      5  C   UNL d   1      47.409  35.181  51.461  0.00  0.00     0.019 A 
ATOM      6  C   UNL d   1      46.800  35.641  51.755  0.00  0.00     0.100 A 
ATOM      7  C   UNL d   1      46.960  36.239  52.302  0.00  0.00     0.144 A 
ATOM      8  C   UNL d   1      47.730  36.370  52.551  0.00  0.00     0.030 A 
ATOM      9  F   UNL d   1      46.353  36.704  52.601  0.00  0.00    -0.204 F 
ATOM     10  C   UNL d   1      48.345  35.911  52.258  0.00  0.00     0.015 A 
BRANCH   6  11
ATOM     11  C   UNL d   1      46.032  35.508  51.506  0.00  0.00     0.421 C 
ATOM     12  F   UNL d   1      45.324  35.380  51.283  0.00  0.00    -0.166 F 
ATOM     13  F   UNL d   1      45.602  35.860  50.850  0.00  0.00    -0.166 F 
ATOM     14  F   UNL d   1      45.442  34.974  51.837  0.00  0.00    -0.166 F 
ENDBRANCH   6  11
ENDBRANCH   1   4
BRANCH   1  15
ATOM     15  N   UNL d   1      49.156  34.830  52.159  0.00  0.00    -0.157 NA
BRANCH  15  16
ATOM     16  C   UNL d   1      49.853  34.434  52.266  0.00  0.00     0.114 C 
BRANCH  16  17
ATOM     17  C   UNL d   1      50.209  34.408  53.016  0.00  0.00     0.042 C 
BRANCH  17  18
ATOM     18  C   UNL d   1      50.953  34.031  53.105  0.00  0.00     0.102 A 
ATOM     19  N   UNL d   1      51.083  33.230  53.129  0.00  0.00    -0.227 NA
ATOM     20  C   UNL d   1      51.893  33.092  53.223  0.00  0.00     0.148 A 
ATOM     21  C   UNL d   1      52.331  32.399  53.281  0.00  0.00     0.037 A 
ATOM     22  N   UNL d   1      52.268  33.821  53.257  0.00  0.00    -0.288 N 
ATOM     23  C   UNL d   1      53.145  32.439  53.373  0.00  0.00     0.004 A 
ATOM     24  C   UNL d   1      53.583  31.742  53.430  0.00  0.00     0.000 C 
ATOM     25  C   UNL d   1      53.533  33.160  53.408  0.00  0.00     0.019 A 
ATOM     26  C   UNL d   1      53.086  33.859  53.349  0.00  0.00     0.082 A 
ATOM     27  C   UNL d   1      51.691  34.415  53.184  0.00  0.00     0.101 A 
ENDBRANCH  17  18
ENDBRANCH  16  17
ENDBRANCH  15  16
ENDBRANCH   1  15
TORSDOF 6
ENDMDL
