MODEL 1
REMARK VINA RESULT:      53.5      0.000      0.000
REMARK  1 active torsions:
REMARK  status: ('A' for Active; 'I' for Inactive)
REMARK    1  A    between atoms: C_7  and  C_1 
ROOT
ATOM      1  C   UNL d   1     -51.046  25.210  33.435  0.00  0.00     0.062 A 
ATOM      2  C   UNL d   1     -51.112  26.029  33.438  0.00  0.00     0.202 A 
ATOM      3  C   UNL d   1     -50.457  26.515  33.446  0.00  0.00     0.101 A 
ATOM      4  C   UNL d   1     -50.283  24.867  33.442  0.00  0.00     0.103 A 
ATOM      5  C   UNL d   1     -49.695  26.171  33.453  0.00  0.00     0.109 A 
ATOM      6  O   UNL d   1     -49.607  25.350  33.451  0.00  0.00    -0.307 OA
ATOM      7  C   UNL d   1     -50.534  27.311  33.449  0.00  0.00     0.204 A 
ATOM      8  C   UNL d   1     -49.029  26.633  33.462  0.00  0.00     0.067 A 
ATOM      9  C   UNL d   1     -49.878  27.800  33.458  0.00  0.00     0.084 A 
ATOM     10  O   UNL d   1     -51.870  26.370  33.431  0.00  0.00    -0.286 OA
ATOM     11  C   UNL d   1     -49.116  27.456  33.464  0.00  0.00     0.201 A 
ATOM     12  O   UNL d   1     -51.291  27.653  33.442  0.00  0.00    -0.286 OA
ATOM     13  C   UNL d   1     -50.197  24.042  33.439  0.00  0.00     0.027 C 
ATOM     14  O   UNL d   1     -48.442  27.934  33.473  0.00  0.00    -0.286 OA
ENDROOT
BRANCH   1  15
ATOM     15  C   UNL d   1     -51.720  24.729  33.426  0.00  0.00     0.007 A 
ATOM     16  C   UNL d   1     -52.449  25.079  33.383  0.00  0.00     0.027 A 
ATOM     17  C   UNL d   1     -53.119  24.598  33.375  0.00  0.00     0.123 A 
ATOM     18  O   UNL d   1     -53.796  25.054  33.330  0.00  0.00    -0.303 OA
ATOM     19  C   UNL d   1     -53.045  23.791  33.408  0.00  0.00     0.123 A 
ATOM     20  C   UNL d   1     -54.570  24.807  33.308  0.00  0.00     0.125 A 
ATOM     21  C   UNL d   1     -54.861  24.037  33.326  0.00  0.00     0.053 A 
ATOM     22  C   UNL d   1     -54.434  23.326  33.370  0.00  0.00     0.125 A 
ATOM     23  O   UNL d   1     -53.627  23.218  33.406  0.00  0.00    -0.303 OA
ATOM     24  C   UNL d   1     -52.299  23.441  33.452  0.00  0.00     0.027 A 
ATOM     25  C   UNL d   1     -51.625  23.924  33.460  0.00  0.00     0.002 A 
ENDBRANCH   1  15
TORSDOF 1
ENDMDL
