MODEL 1
REMARK VINA RESULT:      -1.1      0.000      0.000
REMARK  2 active torsions:
REMARK  status: ('A' for Active; 'I' for Inactive)
REMARK    1  A    between atoms: N_2  and  C_1 
REMARK    2  A    between atoms: C_5  and  N_2 
ROOT
ATOM      1  C   UNL d   1      24.330  12.594  -1.226  0.00  0.00     0.084 A 
ATOM      2  C   UNL d   1      24.298  11.855  -1.589  0.00  0.00     0.019 A 
ATOM      3  C   UNL d   1      24.562  13.256  -1.647  0.00  0.00     0.019 A 
ATOM      4  C   UNL d   1      24.768  13.188  -2.443  0.00  0.00     0.001 A 
ATOM      5  C   UNL d   1      24.504  11.781  -2.387  0.00  0.00     0.001 A 
ATOM      6  C   UNL d   1      24.739  12.445  -2.819  0.00  0.00     0.000 A 
ENDROOT
BRANCH   1   7
ATOM      7  N   UNL d   1      24.126  12.670  -0.431  0.00  0.00    -0.216 NA
BRANCH   7   8
ATOM      8  C   UNL d   1      23.716  13.330  -0.169  0.00  0.00     0.241 C 
ATOM      9  S   UNL d   1      22.908  13.297  -0.031  0.00  0.00    -0.036 SA
ATOM     10  N   UNL d   1      24.123  14.038  -0.042  0.00  0.00    -0.114 N 
ENDBRANCH   7   8
ENDBRANCH   1   7
TORSDOF 2
ENDMDL
