MODEL 1
REMARK VINA RESULT:      -1.0      0.000      0.000
REMARK  4 active torsions:
REMARK  status: ('A' for Active; 'I' for Inactive)
REMARK    1  A    between atoms: N_7  and  C_3 
REMARK       I    between atoms: C_8  and  N_7 
REMARK    2  A    between atoms: C_14  and  C_8 
REMARK    3  A    between atoms: C_15  and  C_14 
REMARK    4  A    between atoms: C_16  and  C_14 
ROOT
ATOM      1  C   UNL d   1      33.220  19.400 -22.362  0.00  0.00     0.343 A 
ATOM      2  N   UNL d   1      33.225  19.934 -21.744  0.00  0.00    -0.241 N 
ATOM      3  C   UNL d   1      33.230  20.740 -21.896  0.00  0.00     0.159 A 
ATOM      4  N   UNL d   1      33.219  19.670 -23.140  0.00  0.00    -0.224 N 
ATOM      5  C   UNL d   1      33.229  21.011 -22.674  0.00  0.00     0.099 A 
ATOM      6  C   UNL d   1      33.223  20.478 -23.309  0.00  0.00     0.271 A 
ATOM      7  O   UNL d   1      33.215  18.588 -22.208  0.00  0.00    -0.245 OA
ATOM      8  O   UNL d   1      33.222  20.745 -24.079  0.00  0.00    -0.266 OA
ATOM      9  C   UNL d   1      33.226  19.663 -20.966  0.00  0.00     0.105 C 
ATOM     10  C   UNL d   1      33.213  19.130 -23.764  0.00  0.00     0.107 C 
ENDROOT
BRANCH   3  11
ATOM     11  N   UNL d   1      33.235  21.281 -21.271  0.00  0.00    -0.190 NA
ATOM     12  C   UNL d   1      32.644  21.848 -21.214  0.00  0.00     0.280 C 
ATOM     13  O   UNL d   1      32.044  21.879 -21.779  0.00  0.00    -0.265 OA
BRANCH  12  14
ATOM     14  C   UNL d   1      32.651  22.386 -20.592  0.00  0.00     0.058 C 
BRANCH  14  15
ATOM     15  C   UNL d   1      32.587  22.120 -19.805  0.00  0.00     0.005 C 
ATOM     16  C   UNL d   1      33.206  22.265 -19.273  0.00  0.00     0.000 C 
ENDBRANCH  14  15
BRANCH  14  17
ATOM     17  C   UNL d   1      32.718  23.170 -20.732  0.00  0.00     0.005 C 
ATOM     18  C   UNL d   1      32.126  23.702 -20.501  0.00  0.00     0.000 C 
ENDBRANCH  14  17
ENDBRANCH  12  14
ENDBRANCH   3  11
TORSDOF 4
ENDMDL
MODEL 2
REMARK VINA RESULT:      -0.8      1.042      3.683
REMARK  4 active torsions:
REMARK  status: ('A' for Active; 'I' for Inactive)
REMARK    1  A    between atoms: N_7  and  C_3 
REMARK       I    between atoms: C_8  and  N_7 
REMARK    2  A    between atoms: C_14  and  C_8 
REMARK    3  A    between atoms: C_15  and  C_14 
REMARK    4  A    between atoms: C_16  and  C_14 
ROOT
ATOM      1  C   UNL d   1      33.018  21.556 -20.810  0.00  0.00     0.343 A 
ATOM      2  N   UNL d   1      33.120  20.839 -21.187  0.00  0.00    -0.241 N 
ATOM      3  C   UNL d   1      33.137  20.801 -22.006  0.00  0.00     0.159 A 
ATOM      4  N   UNL d   1      32.932  22.245 -21.254  0.00  0.00    -0.224 N 
ATOM      5  C   UNL d   1      33.050  21.490 -22.450  0.00  0.00     0.099 A 
ATOM      6  C   UNL d   1      32.946  22.224 -22.078  0.00  0.00     0.271 A 
ATOM      7  O   UNL d   1      33.001  21.592 -19.985  0.00  0.00    -0.245 OA
ATOM      8  O   UNL d   1      32.861  22.906 -22.517  0.00  0.00    -0.266 OA
ATOM      9  C   UNL d   1      33.207  20.149 -20.743  0.00  0.00     0.105 C 
ATOM     10  C   UNL d   1      32.828  22.970 -20.872  0.00  0.00     0.107 C 
ENDROOT
BRANCH   3  11
ATOM     11  N   UNL d   1      33.240  20.076 -22.388  0.00  0.00    -0.190 NA
ATOM     12  C   UNL d   1      32.830  19.915 -23.082  0.00  0.00     0.280 C 
ATOM     13  O   UNL d   1      32.316  20.476 -23.397  0.00  0.00    -0.265 OA
BRANCH  12  14
ATOM     14  C   UNL d   1      32.934  19.192 -23.460  0.00  0.00     0.058 C 
BRANCH  14  15
ATOM     15  C   UNL d   1      33.211  19.165 -24.246  0.00  0.00     0.005 C 
ATOM     16  C   UNL d   1      32.755  18.789 -24.827  0.00  0.00     0.000 C 
ENDBRANCH  14  15
BRANCH  14  17
ATOM     17  C   UNL d   1      32.772  18.507 -23.082  0.00  0.00     0.005 C 
ATOM     18  C   UNL d   1      33.172  17.806 -23.269  0.00  0.00     0.000 C 
ENDBRANCH  14  17
ENDBRANCH  12  14
ENDBRANCH   3  11
TORSDOF 4
ENDMDL
MODEL 3
REMARK VINA RESULT:      -0.6      2.793      4.343
REMARK  4 active torsions:
REMARK  status: ('A' for Active; 'I' for Inactive)
REMARK    1  A    between atoms: N_7  and  C_3 
REMARK       I    between atoms: C_8  and  N_7 
REMARK    2  A    between atoms: C_14  and  C_8 
REMARK    3  A    between atoms: C_15  and  C_14 
REMARK    4  A    between atoms: C_16  and  C_14 
ROOT
ATOM      1  C   UNL d   1      31.458  16.303 -24.694  0.00  0.00     0.343 A 
ATOM      2  N   UNL d   1      32.051  16.814 -24.463  0.00  0.00    -0.241 N 
ATOM      3  C   UNL d   1      31.893  17.614 -24.370  0.00  0.00     0.159 A 
ATOM      4  N   UNL d   1      30.698  16.590 -24.834  0.00  0.00    -0.224 N 
ATOM      5  C   UNL d   1      31.133  17.901 -24.510  0.00  0.00     0.099 A 
ATOM      6  C   UNL d   1      30.523  17.391 -24.745  0.00  0.00     0.271 A 
ATOM      7  O   UNL d   1      31.618  15.498 -24.787  0.00  0.00    -0.245 OA
ATOM      8  O   UNL d   1      29.772  17.675 -24.884  0.00  0.00    -0.266 OA
ATOM      9  C   UNL d   1      32.810  16.527 -24.323  0.00  0.00     0.105 C 
ATOM     10  C   UNL d   1      30.099  16.072 -25.068  0.00  0.00     0.107 C 
ENDROOT
BRANCH   3  11
ATOM     11  N   UNL d   1      32.492  18.132 -24.136  0.00  0.00    -0.190 NA
ATOM     12  C   UNL d   1      32.342  18.703 -23.565  0.00  0.00     0.280 C 
ATOM     13  O   UNL d   1      31.594  18.759 -23.223  0.00  0.00    -0.265 OA
BRANCH  12  14
ATOM     14  C   UNL d   1      32.940  19.218 -23.333  0.00  0.00     0.058 C 
BRANCH  14  15
ATOM     15  C   UNL d   1      33.241  19.781 -23.869  0.00  0.00     0.005 C 
ATOM     16  C   UNL d   1      33.203  20.587 -23.680  0.00  0.00     0.000 C 
ENDBRANCH  14  15
BRANCH  14  17
ATOM     17  C   UNL d   1      33.241  19.187 -22.594  0.00  0.00     0.005 C 
ATOM     18  C   UNL d   1      32.930  19.652 -21.982  0.00  0.00     0.000 C 
ENDBRANCH  14  17
ENDBRANCH  12  14
ENDBRANCH   3  11
TORSDOF 4
ENDMDL
MODEL 4
REMARK VINA RESULT:      -0.2      1.570      2.466
REMARK  4 active torsions:
REMARK  status: ('A' for Active; 'I' for Inactive)
REMARK    1  A    between atoms: N_7  and  C_3 
REMARK       I    between atoms: C_8  and  N_7 
REMARK    2  A    between atoms: C_14  and  C_8 
REMARK    3  A    between atoms: C_15  and  C_14 
REMARK    4  A    between atoms: C_16  and  C_14 
ROOT
ATOM      1  C   UNL d   1      32.721  17.326 -23.306  0.00  0.00     0.343 A 
ATOM      2  N   UNL d   1      32.949  17.932 -22.808  0.00  0.00    -0.241 N 
ATOM      3  C   UNL d   1      32.889  18.712 -23.053  0.00  0.00     0.159 A 
ATOM      4  N   UNL d   1      32.430  17.499 -24.057  0.00  0.00    -0.224 N 
ATOM      5  C   UNL d   1      32.597  18.885 -23.804  0.00  0.00     0.099 A 
ATOM      6  C   UNL d   1      32.363  18.279 -24.319  0.00  0.00     0.271 A 
ATOM      7  O   UNL d   1      32.783  16.541 -23.059  0.00  0.00    -0.245 OA
ATOM      8  O   UNL d   1      32.075  18.449 -25.062  0.00  0.00    -0.266 OA
ATOM      9  C   UNL d   1      33.241  17.759 -22.057  0.00  0.00     0.105 C 
ATOM     10  C   UNL d   1      32.200  16.886 -24.561  0.00  0.00     0.107 C 
ENDROOT
BRANCH   3  11
ATOM     11  N   UNL d   1      33.119  19.326 -22.549  0.00  0.00    -0.190 NA
ATOM     12  C   UNL d   1      32.727  20.047 -22.575  0.00  0.00     0.280 C 
ATOM     13  O   UNL d   1      32.104  20.161 -23.103  0.00  0.00    -0.265 OA
BRANCH  12  14
ATOM     14  C   UNL d   1      32.958  20.657 -22.073  0.00  0.00     0.058 C 
BRANCH  14  15
ATOM     15  C   UNL d   1      33.240  21.375 -22.386  0.00  0.00     0.005 C 
ATOM     16  C   UNL d   1      32.958  22.093 -22.081  0.00  0.00     0.000 C 
ENDBRANCH  14  15
BRANCH  14  17
ATOM     17  C   UNL d   1      32.915  20.569 -21.280  0.00  0.00     0.005 C 
ATOM     18  C   UNL d   1      32.585  21.157 -20.798  0.00  0.00     0.000 C 
ENDBRANCH  14  17
ENDBRANCH  12  14
ENDBRANCH   3  11
TORSDOF 4
ENDMDL
MODEL 5
REMARK VINA RESULT:       0.2      1.847      3.556
REMARK  4 active torsions:
REMARK  status: ('A' for Active; 'I' for Inactive)
REMARK    1  A    between atoms: N_7  and  C_3 
REMARK       I    between atoms: C_8  and  N_7 
REMARK    2  A    between atoms: C_14  and  C_8 
REMARK    3  A    between atoms: C_15  and  C_14 
REMARK    4  A    between atoms: C_16  and  C_14 
ROOT
ATOM      1  C   UNL d   1      32.430  21.430 -20.767  0.00  0.00     0.343 A 
ATOM      2  N   UNL d   1      32.662  21.468 -21.549  0.00  0.00    -0.241 N 
ATOM      3  C   UNL d   1      32.911  22.180 -21.872  0.00  0.00     0.159 A 
ATOM      4  N   UNL d   1      32.446  22.109 -20.300  0.00  0.00    -0.224 N 
ATOM      5  C   UNL d   1      32.927  22.858 -21.404  0.00  0.00     0.099 A 
ATOM      6  C   UNL d   1      32.694  22.832 -20.609  0.00  0.00     0.271 A 
ATOM      7  O   UNL d   1      32.180  20.713 -20.443  0.00  0.00    -0.245 OA
ATOM      8  O   UNL d   1      32.710  23.503 -20.147  0.00  0.00    -0.266 OA
ATOM      9  C   UNL d   1      32.646  20.789 -22.016  0.00  0.00     0.105 C 
ATOM     10  C   UNL d   1      32.212  22.070 -19.508  0.00  0.00     0.107 C 
ENDROOT
BRANCH   3  11
ATOM     11  N   UNL d   1      33.146  22.219 -22.663  0.00  0.00    -0.190 NA
ATOM     12  C   UNL d   1      32.873  22.828 -23.143  0.00  0.00     0.280 C 
ATOM     13  O   UNL d   1      32.366  23.400 -22.836  0.00  0.00    -0.265 OA
BRANCH  12  14
ATOM     14  C   UNL d   1      33.108  22.865 -23.930  0.00  0.00     0.058 C 
BRANCH  14  15
ATOM     15  C   UNL d   1      33.209  23.602 -24.304  0.00  0.00     0.005 C 
ATOM     16  C   UNL d   1      32.963  23.701 -25.089  0.00  0.00     0.000 C 
ENDBRANCH  14  15
BRANCH  14  17
ATOM     17  C   UNL d   1      33.241  22.197 -24.347  0.00  0.00     0.005 C 
ATOM     18  C   UNL d   1      32.901  22.079 -25.094  0.00  0.00     0.000 C 
ENDBRANCH  14  17
ENDBRANCH  12  14
ENDBRANCH   3  11
TORSDOF 4
ENDMDL
