MODEL 1
REMARK VINA RESULT:      30.3      0.000      0.000
REMARK  5 active torsions:
REMARK  status: ('A' for Active; 'I' for Inactive)
REMARK    1  A    between atoms: C_6  and  C_1 
REMARK    2  A    between atoms: C_8  and  N_3 
REMARK    3  A    between atoms: O_7  and  C_6 
REMARK    4  A    between atoms: C_9  and  O_7 
REMARK    5  A    between atoms: O_16  and  C_10 
ROOT
ATOM      1  C   UNL d   1     -56.473 -99.791 -44.317  0.00  0.00     0.173 A 
ATOM      2  N   UNL d   1     -56.714-100.449 -43.930  0.00  0.00    -0.225 NA
ATOM      3  N   UNL d   1     -55.747 -99.887 -44.656  0.00  0.00    -0.287 N 
ATOM      4  C   UNL d   1     -55.486-100.695 -44.471  0.00  0.00     0.083 A 
ATOM      5  C   UNL d   1     -56.069-101.034 -44.033  0.00  0.00     0.099 A 
ATOM      6  C   UNL d   1     -54.817-101.143 -44.641  0.00  0.00     0.019 A 
ATOM      7  C   UNL d   1     -56.023-101.845 -43.735  0.00  0.00     0.021 A 
ATOM      8  C   UNL d   1     -54.712-101.918 -44.388  0.00  0.00     0.002 A 
ATOM      9  C   UNL d   1     -55.295-102.258 -43.950  0.00  0.00     0.002 A 
ENDROOT
BRANCH   1  10
ATOM     10  C   UNL d   1     -56.541 -99.028 -44.584  0.00  0.00     0.160 C 
BRANCH  10  11
ATOM     11  O   UNL d   1     -57.262 -98.783 -44.930  0.00  0.00    -0.302 OA
BRANCH  11  12
ATOM     12  C   UNL d   1     -57.966 -98.783 -44.478  0.00  0.00     0.100 A 
ATOM     13  C   UNL d   1     -57.928 -98.756 -43.643  0.00  0.00     0.027 A 
ATOM     14  C   UNL d   1     -58.632 -98.756 -43.190  0.00  0.00     0.026 A 
ATOM     15  C   UNL d   1     -59.349 -98.784 -43.560  0.00  0.00     0.094 A 
ATOM     16  C   UNL d   1     -59.388 -98.812 -44.396  0.00  0.00     0.026 A 
ATOM     17  C   UNL d   1     -58.684 -98.811 -44.848  0.00  0.00     0.027 A 
BRANCH  15  18
ATOM     18  O   UNL d   1     -59.921 -98.776 -42.942  0.00  0.00    -0.328 OA
ATOM     19  C   UNL d   1     -59.697 -98.929 -42.144  0.00  0.00     0.181 C 
ENDBRANCH  15  18
ENDBRANCH  11  12
ENDBRANCH  10  11
ENDBRANCH   1  10
BRANCH   3  20
ATOM     20  C   UNL d   1     -55.452 -99.260 -45.058  0.00  0.00     0.082 C 
ATOM     21  C   UNL d   1     -54.841 -98.795 -44.757  0.00  0.00     0.021 C 
ENDBRANCH   3  20
TORSDOF 5
ENDMDL
