MODEL 1
REMARK VINA RESULT:      14.7      0.000      0.000
REMARK  4 active torsions:
REMARK  status: ('A' for Active; 'I' for Inactive)
REMARK    1  A    between atoms: C_13  and  N_1 
REMARK    2  A    between atoms: N_6  and  C_15 
REMARK    3  A    between atoms: C_14  and  C_13 
REMARK    4  A    between atoms: C_15  and  C_14 
ROOT
ATOM      1  C   UNL d   1      59.116  49.151  50.956  0.00  0.00     0.087 C 
ENDROOT
BRANCH   1   2
ATOM      2  N   UNL d   1      59.911  49.370  51.011  0.00  0.00    -0.248 N 
ATOM      3  C   UNL d   1      60.319  49.479  51.697  0.00  0.00     0.208 A 
ATOM      4  N   UNL d   1      61.072  49.687  51.503  0.00  0.00    -0.212 NA
ATOM      5  S   UNL d   1      60.149  49.427  52.443  0.00  0.00    -0.038 SA
ATOM      6  C   UNL d   1      61.127  49.707  50.705  0.00  0.00     0.162 A 
ATOM      7  C   UNL d   1      60.403  49.509  50.404  0.00  0.00     0.286 A 
ATOM      8  O   UNL d   1      60.456  49.528  49.745  0.00  0.00    -0.265 OA
ENDBRANCH   1   2
BRANCH   1   9
ATOM      9  C   UNL d   1      58.548  49.708  50.732  0.00  0.00     0.038 C 
BRANCH   9  10
ATOM     10  C   UNL d   1      57.749  49.574  50.896  0.00  0.00     0.083 C 
BRANCH  10  11
ATOM     11  N   UNL d   1      57.193  49.611  50.290  0.00  0.00    -0.285 N 
ATOM     12  C   UNL d   1      56.376  49.601  50.384  0.00  0.00     0.183 A 
ATOM     13  N   UNL d   1      56.034  49.649  49.629  0.00  0.00    -0.222 NA
ATOM     14  C   UNL d   1      56.636  49.687  49.075  0.00  0.00     0.120 A 
ATOM     15  C   UNL d   1      57.352  49.664  49.484  0.00  0.00     0.102 A 
ENDBRANCH  10  11
ENDBRANCH   9  10
ENDBRANCH   1   9
TORSDOF 4
ENDMDL
MODEL 2
REMARK VINA RESULT:      14.7      1.664      3.911
REMARK  4 active torsions:
REMARK  status: ('A' for Active; 'I' for Inactive)
REMARK    1  A    between atoms: C_13  and  N_1 
REMARK    2  A    between atoms: N_6  and  C_15 
REMARK    3  A    between atoms: C_14  and  C_13 
REMARK    4  A    between atoms: C_15  and  C_14 
ROOT
ATOM      1  C   UNL d   1      58.058  49.135  50.593  0.00  0.00     0.087 C 
ENDROOT
BRANCH   1   2
ATOM      2  N   UNL d   1      57.291  49.360  50.380  0.00  0.00    -0.248 N 
ATOM      3  C   UNL d   1      57.033  49.490  49.628  0.00  0.00     0.208 A 
ATOM      4  N   UNL d   1      56.257  49.696  49.668  0.00  0.00    -0.212 NA
ATOM      5  S   UNL d   1      57.354  49.458  48.933  0.00  0.00    -0.038 SA
ATOM      6  C   UNL d   1      56.037  49.694  50.437  0.00  0.00     0.162 A 
ATOM      7  C   UNL d   1      56.684  49.484  50.876  0.00  0.00     0.286 A 
ATOM      8  O   UNL d   1      56.496  49.484  51.510  0.00  0.00    -0.265 OA
ENDBRANCH   1   2
BRANCH   1   9
ATOM      9  C   UNL d   1      58.650  49.706  50.669  0.00  0.00     0.038 C 
BRANCH   9  10
ATOM     10  C   UNL d   1      59.404  49.564  50.363  0.00  0.00     0.083 C 
BRANCH  10  11
ATOM     11  N   UNL d   1      60.062  49.602  50.857  0.00  0.00    -0.285 N 
ATOM     12  C   UNL d   1      60.848  49.573  50.617  0.00  0.00     0.183 A 
ATOM     13  N   UNL d   1      61.322  49.629  51.297  0.00  0.00    -0.222 NA
ATOM     14  C   UNL d   1      60.831  49.692  51.949  0.00  0.00     0.120 A 
ATOM     15  C   UNL d   1      60.052  49.675  51.677  0.00  0.00     0.102 A 
ENDBRANCH  10  11
ENDBRANCH   9  10
ENDBRANCH   1   9
TORSDOF 4
ENDMDL
