MODEL 1
REMARK VINA RESULT:      -1.5      0.000      0.000
REMARK  3 active torsions:
REMARK  status: ('A' for Active; 'I' for Inactive)
REMARK    1  A    between atoms: N_7  and  N_1 
REMARK    2  A    between atoms: N_2  and  N_8 
REMARK       I    between atoms: C_3  and  N_7 
REMARK    3  A    between atoms: C_4  and  C_3 
REMARK       I    between atoms: N_8  and  C_4 
ROOT
ATOM      1  C   UNL d   1     -43.057-122.082 -50.203  0.00  0.00     0.355 C 
ATOM      2  N   UNL d   1     -42.889-122.133 -50.992  0.00  0.00    -0.115 NA
ATOM      3  O   UNL d   1     -43.693-121.645 -49.948  0.00  0.00    -0.258 OA
ENDROOT
BRANCH   1   4
ATOM      4  C   UNL d   1     -42.579-122.476 -49.658  0.00  0.00     0.355 C 
ATOM      5  N   UNL d   1     -42.823-122.495 -48.872  0.00  0.00    -0.115 NA
ATOM      6  O   UNL d   1     -42.104-122.720 -49.828  0.00  0.00    -0.258 OA
BRANCH   5   7
ATOM      7  N   UNL d   1     -42.360-122.888 -48.289  0.00  0.00    -0.175 N 
ATOM      8  C   UNL d   1     -42.667-123.508 -47.908  0.00  0.00     0.170 A 
ATOM      9  S   UNL d   1     -42.051-123.779 -47.350  0.00  0.00    -0.051 SA
ATOM     10  S   UNL d   1     -43.447-123.817 -48.043  0.00  0.00    -0.050 SA
ATOM     11  C   UNL d   1     -41.403-123.266 -47.462  0.00  0.00     0.100 A 
ATOM     12  C   UNL d   1     -41.614-122.720 -48.047  0.00  0.00     0.288 A 
ATOM     13  O   UNL d   1     -41.135-122.095 -48.343  0.00  0.00    -0.265 OA
ENDBRANCH   5   7
ENDBRANCH   1   4
BRANCH   2  14
ATOM     14  N   UNL d   1     -42.238-122.573 -51.324  0.00  0.00    -0.175 N 
ATOM     15  C   UNL d   1     -41.515-122.307 -51.588  0.00  0.00     0.170 A 
ATOM     16  S   UNL d   1     -41.123-122.966 -51.842  0.00  0.00    -0.051 SA
ATOM     17  S   UNL d   1     -41.241-121.502 -51.591  0.00  0.00    -0.050 SA
ATOM     18  C   UNL d   1     -41.555-123.619 -51.752  0.00  0.00     0.100 A 
ATOM     19  C   UNL d   1     -42.259-123.416 -51.431  0.00  0.00     0.288 A 
ATOM     20  O   UNL d   1     -42.635-123.684 -51.311  0.00  0.00    -0.265 OA
ENDBRANCH   2  14
TORSDOF 3
ENDMDL
MODEL 2
REMARK VINA RESULT:      -0.3      2.342      3.355
REMARK  3 active torsions:
REMARK  status: ('A' for Active; 'I' for Inactive)
REMARK    1  A    between atoms: N_7  and  N_1 
REMARK    2  A    between atoms: N_2  and  N_8 
REMARK       I    between atoms: C_3  and  N_7 
REMARK    3  A    between atoms: C_4  and  C_3 
REMARK       I    between atoms: N_8  and  C_4 
ROOT
ATOM      1  C   UNL d   1     -41.572-121.501 -53.138  0.00  0.00     0.355 C 
ATOM      2  N   UNL d   1     -41.590-121.659 -53.930  0.00  0.00    -0.115 NA
ATOM      3  O   UNL d   1     -41.123-120.887 -52.852  0.00  0.00    -0.258 OA
ENDROOT
BRANCH   1   4
ATOM      4  C   UNL d   1     -42.014-121.967 -52.620  0.00  0.00     0.355 C 
ATOM      5  N   UNL d   1     -41.845-121.919 -51.815  0.00  0.00    -0.115 NA
ATOM      6  O   UNL d   1     -42.415-122.304 -52.819  0.00  0.00    -0.258 OA
BRANCH   5   7
ATOM      7  N   UNL d   1     -42.276-122.380 -51.257  0.00  0.00    -0.175 N 
ATOM      8  C   UNL d   1     -41.923-122.998 -50.916  0.00  0.00     0.170 A 
ATOM      9  S   UNL d   1     -42.516-123.348 -50.377  0.00  0.00    -0.051 SA
ATOM     10  S   UNL d   1     -41.124-123.241 -51.070  0.00  0.00    -0.050 SA
ATOM     11  C   UNL d   1     -43.199-122.877 -50.456  0.00  0.00     0.100 A 
ATOM     12  C   UNL d   1     -43.031-122.281 -51.007  0.00  0.00     0.288 A 
ATOM     13  O   UNL d   1     -43.556-121.675 -51.263  0.00  0.00    -0.265 OA
ENDBRANCH   5   7
ENDBRANCH   1   4
BRANCH   2  14
ATOM     14  N   UNL d   1     -42.039-122.286 -54.292  0.00  0.00    -0.175 N 
ATOM     15  C   UNL d   1     -41.844-123.071 -54.391  0.00  0.00     0.170 A 
ATOM     16  S   UNL d   1     -42.478-123.404 -54.767  0.00  0.00    -0.051 SA
ATOM     17  S   UNL d   1     -41.124-123.449 -54.147  0.00  0.00    -0.050 SA
ATOM     18  C   UNL d   1     -43.049-122.877 -54.905  0.00  0.00     0.100 A 
ATOM     19  C   UNL d   1     -42.813-122.166 -54.623  0.00  0.00     0.288 A 
ATOM     20  O   UNL d   1     -43.033-121.744 -54.623  0.00  0.00    -0.265 OA
ENDBRANCH   2  14
TORSDOF 3
ENDMDL
MODEL 3
REMARK VINA RESULT:       0.6      2.566      3.374
REMARK  3 active torsions:
REMARK  status: ('A' for Active; 'I' for Inactive)
REMARK    1  A    between atoms: N_7  and  N_1 
REMARK    2  A    between atoms: N_2  and  N_8 
REMARK       I    between atoms: C_3  and  N_7 
REMARK    3  A    between atoms: C_4  and  C_3 
REMARK       I    between atoms: N_8  and  C_4 
ROOT
ATOM      1  C   UNL d   1     -43.115-121.953 -53.586  0.00  0.00     0.355 C 
ATOM      2  N   UNL d   1     -42.981-122.270 -54.317  0.00  0.00    -0.115 NA
ATOM      3  O   UNL d   1     -43.818-121.578 -53.424  0.00  0.00    -0.258 OA
ENDROOT
BRANCH   1   4
ATOM      4  C   UNL d   1     -42.533-122.012 -53.004  0.00  0.00     0.355 C 
ATOM      5  N   UNL d   1     -42.740-121.826 -52.229  0.00  0.00    -0.115 NA
ATOM      6  O   UNL d   1     -42.015-122.174 -53.142  0.00  0.00    -0.258 OA
BRANCH   5   7
ATOM      7  N   UNL d   1     -42.172-121.875 -51.609  0.00  0.00    -0.175 N 
ATOM      8  C   UNL d   1     -42.294-122.381 -51.015  0.00  0.00     0.170 A 
ATOM      9  S   UNL d   1     -41.610-122.292 -50.477  0.00  0.00    -0.051 SA
ATOM     10  S   UNL d   1     -42.969-122.892 -50.950  0.00  0.00    -0.050 SA
ATOM     11  C   UNL d   1     -41.123-121.711 -50.825  0.00  0.00     0.100 A 
ATOM     12  C   UNL d   1     -41.488-121.464 -51.526  0.00  0.00     0.288 A 
ATOM     13  O   UNL d   1     -41.199-120.884 -52.063  0.00  0.00    -0.265 OA
ENDBRANCH   5   7
ENDBRANCH   1   4
BRANCH   2  14
ATOM     14  N   UNL d   1     -42.268-122.674 -54.550  0.00  0.00    -0.175 N 
ATOM     15  C   UNL d   1     -41.640-122.400 -54.991  0.00  0.00     0.170 A 
ATOM     16  S   UNL d   1     -41.123-123.021 -55.036  0.00  0.00    -0.051 SA
ATOM     17  S   UNL d   1     -41.556-121.625 -55.327  0.00  0.00    -0.050 SA
ATOM     18  C   UNL d   1     -41.391-123.656 -54.653  0.00  0.00     0.100 A 
ATOM     19  C   UNL d   1     -42.104-123.479 -54.336  0.00  0.00     0.288 A 
ATOM     20  O   UNL d   1     -42.402-123.745 -54.075  0.00  0.00    -0.265 OA
ENDBRANCH   2  14
TORSDOF 3
ENDMDL
