MODEL 1
REMARK VINA RESULT:      86.5      0.000      0.000
REMARK  7 active torsions:
REMARK  status: ('A' for Active; 'I' for Inactive)
REMARK    1  A    between atoms: C_8  and  C_2 
REMARK    2  A    between atoms: C_12  and  N_3 
REMARK    3  A    between atoms: C_6  and  C_4 
REMARK       I    between atoms: C_7  and  N_13 
REMARK    4  A    between atoms: C_9  and  C_7 
REMARK    5  A    between atoms: N_13  and  C_8 
REMARK    6  A    between atoms: C_11  and  C_9 
REMARK    7  A    between atoms: C_10  and  C_11 
ROOT
ATOM      1  N   UNL d   1      59.231  49.696  51.641  0.00  0.00    -0.165 NA
ATOM      2  C   UNL d   1      60.010  49.036  50.656  0.00  0.00     0.071 A 
ATOM      3  N   UNL d   1      60.588  49.380  51.916  0.00  0.00    -0.228 N 
ATOM      4  C   UNL d   1      59.304  49.360  50.894  0.00  0.00     0.105 A 
ATOM      5  C   UNL d   1      60.661  49.044  51.170  0.00  0.00     0.105 A 
ENDROOT
BRANCH   2   6
ATOM      6  C   UNL d   1      60.083  48.700  49.909  0.00  0.00     0.168 C 
BRANCH   6   7
ATOM      7  N   UNL d   1      60.658  48.114  49.767  0.00  0.00    -0.362 NA
ATOM      8  C   UNL d   1      61.234  47.521  49.624  0.00  0.00     0.329 C 
ATOM      9  O   UNL d   1      62.003  47.735  49.376  0.00  0.00    -0.251 OA
BRANCH   8  10
ATOM     10  C   UNL d   1      61.040  46.711  49.730  0.00  0.00     0.082 C 
BRANCH  10  11
ATOM     11  C   UNL d   1      61.558  46.208  50.162  0.00  0.00     0.076 C 
BRANCH  11  12
ATOM     12  C   UNL d   1      61.249  45.588  50.625  0.00  0.00     0.211 C 
ATOM     13  O   UNL d   1      61.625  44.841  50.604  0.00  0.00    -0.644 OA
ATOM     14  O   UNL d   1      60.579  45.721  51.094  0.00  0.00    -0.644 OA
ENDBRANCH  11  12
ENDBRANCH  10  11
ENDBRANCH   8  10
ENDBRANCH   6   7
ENDBRANCH   2   6
BRANCH   4  15
ATOM     15  C   UNL d   1      58.647  49.357  50.386  0.00  0.00     0.020 A 
ATOM     16  C   UNL d   1      57.954  49.015  50.625  0.00  0.00     0.008 A 
ATOM     17  C   UNL d   1      57.307  49.012  50.122  0.00  0.00     0.035 A 
ATOM     18 BR   UNL d   1      56.603  48.669  50.356  0.00  0.00    -0.049 Br
ATOM     19  C   UNL d   1      57.374  49.363  49.369  0.00  0.00     0.007 A 
ATOM     20  C   UNL d   1      58.077  49.708  49.129  0.00  0.00     0.001 A 
ATOM     21  C   UNL d   1      58.714  49.705  49.637  0.00  0.00     0.002 A 
ENDBRANCH   4  15
BRANCH   3  22
ATOM     22  C   UNL d   1      61.086  49.488  52.555  0.00  0.00     0.083 A 
ATOM     23  C   UNL d   1      60.768  49.497  53.311  0.00  0.00     0.019 A 
ATOM     24  C   UNL d   1      61.272  49.607  53.958  0.00  0.00     0.002 A 
ATOM     25  C   UNL d   1      62.083  49.706  53.840  0.00  0.00     0.000 A 
ATOM     26  C   UNL d   1      62.391  49.695  53.075  0.00  0.00     0.002 A 
ATOM     27  C   UNL d   1      61.890  49.586  52.436  0.00  0.00     0.019 A 
ENDBRANCH   3  22
TORSDOF 7
ENDMDL
MODEL 2
REMARK VINA RESULT:      88.5      2.166      4.424
REMARK  7 active torsions:
REMARK  status: ('A' for Active; 'I' for Inactive)
REMARK    1  A    between atoms: C_8  and  C_2 
REMARK    2  A    between atoms: C_12  and  N_3 
REMARK    3  A    between atoms: C_6  and  C_4 
REMARK       I    between atoms: C_7  and  N_13 
REMARK    4  A    between atoms: C_9  and  C_7 
REMARK    5  A    between atoms: N_13  and  C_8 
REMARK    6  A    between atoms: C_11  and  C_9 
REMARK    7  A    between atoms: C_10  and  C_11 
ROOT
ATOM      1  N   UNL d   1      61.138  47.147  51.635  0.00  0.00    -0.165 NA
ATOM      2  C   UNL d   1      61.071  48.166  50.650  0.00  0.00     0.071 A 
ATOM      3  N   UNL d   1      61.183  46.797  50.260  0.00  0.00    -0.228 N 
ATOM      4  C   UNL d   1      61.079  47.941  51.431  0.00  0.00     0.105 A 
ATOM      5  C   UNL d   1      61.123  47.591  50.056  0.00  0.00     0.105 A 
ENDROOT
BRANCH   2   6
ATOM      6  C   UNL d   1      61.011  48.960  50.446  0.00  0.00     0.168 C 
BRANCH   6   7
ATOM      7  N   UNL d   1      60.336  49.242  50.049  0.00  0.00    -0.362 NA
ATOM      8  C   UNL d   1      59.653  49.527  49.654  0.00  0.00     0.329 C 
ATOM      9  O   UNL d   1      59.675  49.671  48.831  0.00  0.00    -0.251 OA
BRANCH   8  10
ATOM     10  C   UNL d   1      58.945  49.668  50.083  0.00  0.00     0.082 C 
BRANCH  10  11
ATOM     11  C   UNL d   1      58.205  49.680  49.682  0.00  0.00     0.076 C 
BRANCH  11  12
ATOM     12  C   UNL d   1      57.557  49.256  49.988  0.00  0.00     0.211 C 
ATOM     13  O   UNL d   1      57.680  48.732  50.628  0.00  0.00    -0.644 OA
ATOM     14  O   UNL d   1      56.805  49.361  49.654  0.00  0.00    -0.644 OA
ENDBRANCH  11  12
ENDBRANCH  10  11
ENDBRANCH   8  10
ENDBRANCH   6   7
ENDBRANCH   2   6
BRANCH   4  15
ATOM     15  C   UNL d   1      61.027  48.511  52.033  0.00  0.00     0.020 A 
ATOM     16  C   UNL d   1      61.702  48.822  52.352  0.00  0.00     0.008 A 
ATOM     17  C   UNL d   1      61.648  49.385  52.946  0.00  0.00     0.035 A 
ATOM     18 BR   UNL d   1      62.325  49.705  53.274  0.00  0.00    -0.049 Br
ATOM     19  C   UNL d   1      60.897  49.628  53.212  0.00  0.00     0.007 A 
ATOM     20  C   UNL d   1      60.215  49.311  52.887  0.00  0.00     0.001 A 
ATOM     21  C   UNL d   1      60.279  48.753  52.297  0.00  0.00     0.002 A 
ENDBRANCH   4  15
BRANCH   3  22
ATOM     22  C   UNL d   1      61.242  46.094  49.846  0.00  0.00     0.083 A 
ATOM     23  C   UNL d   1      61.841  45.567  50.041  0.00  0.00     0.019 A 
ATOM     24  C   UNL d   1      61.902  44.856  49.623  0.00  0.00     0.002 A 
ATOM     25  C   UNL d   1      61.367  44.683  49.019  0.00  0.00     0.000 A 
ATOM     26  C   UNL d   1      60.770  45.220  48.832  0.00  0.00     0.002 A 
ATOM     27  C   UNL d   1      60.711  45.924  49.248  0.00  0.00     0.019 A 
ENDBRANCH   3  22
TORSDOF 7
ENDMDL
