MODEL 1
REMARK VINA RESULT:      66.5      0.000      0.000
REMARK  5 active torsions:
REMARK  status: ('A' for Active; 'I' for Inactive)
REMARK    1  A    between atoms: C_6  and  N_1 
REMARK    2  A    between atoms: C_5  and  C_6 
REMARK       I    between atoms: N_7  and  C_5 
REMARK    3  A    between atoms: C_8  and  N_7 
REMARK    4  A    between atoms: O_19  and  C_9 
REMARK    5  A    between atoms: O_20  and  C_17 
ROOT
ATOM      1  C   UNL d   1      58.180  48.624  51.280  0.00  0.00     0.297 C 
ATOM      2  N   UNL d   1      58.532  49.307  51.580  0.00  0.00    -0.205 NA
ATOM      3  O   UNL d   1      58.645  48.042  50.927  0.00  0.00    -0.264 OA
ENDROOT
BRANCH   1   4
ATOM      4  C   UNL d   1      57.367  48.522  51.333  0.00  0.00     0.148 C 
BRANCH   4   5
ATOM      5  N   UNL d   1      56.924  48.366  50.655  0.00  0.00    -0.235 N 
ATOM      6  C   UNL d   1      56.823  48.962  50.081  0.00  0.00     0.273 A 
ATOM      7  C   UNL d   1      56.380  48.805  49.403  0.00  0.00     0.086 A 
ATOM      8  O   UNL d   1      57.169  49.707  50.196  0.00  0.00    -0.266 OA
ATOM      9  C   UNL d   1      56.275  49.391  48.828  0.00  0.00     0.012 C 
ATOM     10  S   UNL d   1      56.037  48.052  49.298  0.00  0.00    -0.077 SA
ATOM     11  C   UNL d   1      56.141  47.473  49.867  0.00  0.00     0.097 A 
ATOM     12  C   UNL d   1      56.584  47.630  50.545  0.00  0.00     0.274 A 
ATOM     13  O   UNL d   1      56.690  47.036  51.126  0.00  0.00    -0.266 OA
ENDBRANCH   4   5
ENDBRANCH   1   4
BRANCH   2  14
ATOM     14  C   UNL d   1      59.349  49.407  51.525  0.00  0.00     0.107 A 
ATOM     15  C   UNL d   1      59.800  49.459  52.203  0.00  0.00     0.114 A 
ATOM     16  C   UNL d   1      60.603  49.557  52.160  0.00  0.00     0.050 A 
ATOM     17  C   UNL d   1      60.972  49.606  51.414  0.00  0.00     0.096 A 
ATOM     18  C   UNL d   1      60.522  49.553  50.735  0.00  0.00     0.026 A 
ATOM     19  C   UNL d   1      59.697  49.453  50.795  0.00  0.00     0.023 A 
BRANCH  15  20
ATOM     20  O   UNL d   1      59.438  49.412  52.961  0.00  0.00    -0.327 OA
ATOM     21  C   UNL d   1      59.844  49.693  53.627  0.00  0.00     0.181 C 
ENDBRANCH  15  20
BRANCH  17  22
ATOM     22  O   UNL d   1      61.802  49.707  51.369  0.00  0.00    -0.328 OA
ATOM     23  C   UNL d   1      62.302  49.327  51.904  0.00  0.00     0.181 C 
ENDBRANCH  17  22
ENDBRANCH   2  14
TORSDOF 5
ENDMDL
MODEL 2
REMARK VINA RESULT:      68.5      1.639      4.456
REMARK  5 active torsions:
REMARK  status: ('A' for Active; 'I' for Inactive)
REMARK    1  A    between atoms: C_6  and  N_1 
REMARK    2  A    between atoms: C_5  and  C_6 
REMARK       I    between atoms: N_7  and  C_5 
REMARK    3  A    between atoms: C_8  and  N_7 
REMARK    4  A    between atoms: O_19  and  C_9 
REMARK    5  A    between atoms: O_20  and  C_17 
ROOT
ATOM      1  C   UNL d   1      58.774  49.053  50.845  0.00  0.00     0.297 C 
ATOM      2  N   UNL d   1      58.005  49.162  50.569  0.00  0.00    -0.205 NA
ATOM      3  O   UNL d   1      59.053  48.291  50.997  0.00  0.00    -0.264 OA
ENDROOT
BRANCH   1   4
ATOM      4  C   UNL d   1      59.264  49.700  50.968  0.00  0.00     0.148 C 
BRANCH   4   5
ATOM      5  N   UNL d   1      60.079  49.595  51.041  0.00  0.00    -0.235 N 
ATOM      6  C   UNL d   1      60.559  49.597  50.360  0.00  0.00     0.273 A 
ATOM      7  C   UNL d   1      61.374  49.492  50.433  0.00  0.00     0.086 A 
ATOM      8  O   UNL d   1      60.213  49.705  49.613  0.00  0.00    -0.266 OA
ATOM      9  C   UNL d   1      61.857  49.493  49.761  0.00  0.00     0.012 C 
ATOM     10  S   UNL d   1      61.710  49.385  51.188  0.00  0.00    -0.077 SA
ATOM     11  C   UNL d   1      61.232  49.384  51.852  0.00  0.00     0.097 A 
ATOM     12  C   UNL d   1      60.417  49.489  51.779  0.00  0.00     0.274 A 
ATOM     13  O   UNL d   1      59.928  49.489  52.459  0.00  0.00    -0.266 OA
ENDBRANCH   4   5
ENDBRANCH   1   4
BRANCH   2  14
ATOM     14  C   UNL d   1      57.514  48.510  50.446  0.00  0.00     0.107 A 
ATOM     15  C   UNL d   1      56.840  48.587  49.993  0.00  0.00     0.114 A 
ATOM     16  C   UNL d   1      56.353  47.952  49.867  0.00  0.00     0.050 A 
ATOM     17  C   UNL d   1      56.543  47.213  50.203  0.00  0.00     0.096 A 
ATOM     18  C   UNL d   1      57.217  47.136  50.656  0.00  0.00     0.026 A 
ATOM     19  C   UNL d   1      57.709  47.797  50.778  0.00  0.00     0.023 A 
BRANCH  15  20
ATOM     20  O   UNL d   1      56.639  49.327  49.649  0.00  0.00    -0.327 OA
ATOM     21  C   UNL d   1      56.254  49.346  48.915  0.00  0.00     0.181 C 
ENDBRANCH  15  20
BRANCH  17  22
ATOM     22  O   UNL d   1      56.039  46.557  50.072  0.00  0.00    -0.328 OA
ATOM     23  C   UNL d   1      56.309  45.788  50.198  0.00  0.00     0.181 C 
ENDBRANCH  17  22
ENDBRANCH   2  14
TORSDOF 5
ENDMDL
