MODEL 1
REMARK VINA RESULT:      60.1      0.000      0.000
REMARK  7 active torsions:
REMARK  status: ('A' for Active; 'I' for Inactive)
REMARK    1  A    between atoms: N_2  and  S_1 
REMARK    2  A    between atoms: C_6  and  S_1 
REMARK    3  A    between atoms: C_16  and  C_3 
REMARK       I    between atoms: C_4  and  N_10 
REMARK    4  A    between atoms: C_5  and  C_4 
REMARK       I    between atoms: N_11  and  C_5 
REMARK    5  A    between atoms: N_10  and  C_16 
REMARK    6  A    between atoms: C_26  and  N_11 
REMARK    7  A    between atoms: C_25  and  C_26 
ROOT
ATOM      1  C   UNL d   1      14.675  15.890  -3.624  0.00  0.00     0.337 C 
ATOM      2  N   UNL d   1      14.975  16.236  -2.946  0.00  0.00    -0.199 NA
ATOM      3  O   UNL d   1      14.155  15.252  -3.577  0.00  0.00    -0.260 OA
ENDROOT
BRANCH   2   4
ATOM      4  C   UNL d   1      14.756  15.946  -2.209  0.00  0.00     0.146 C 
BRANCH   4   5
ATOM      5  C   UNL d   1      15.033  16.301  -1.520  0.00  0.00     0.197 A 
ATOM      6  N   UNL d   1      15.173  15.922  -0.810  0.00  0.00    -0.207 N 
ATOM      7  C   UNL d   1      15.446  16.492  -0.275  0.00  0.00     0.120 A 
ATOM      8  C   UNL d   1      15.473  17.226  -0.663  0.00  0.00     0.144 A 
ATOM      9  O   UNL d   1      15.212  17.100  -1.445  0.00  0.00    -0.285 OA
BRANCH   6  10
ATOM     10  S   UNL d   1      15.066  15.126  -0.651  0.00  0.00     0.273 S 
ATOM     11  O   UNL d   1      15.676  15.150  -0.106  0.00  0.00    -0.200 OA
ATOM     12  O   UNL d   1      14.454  15.100  -1.196  0.00  0.00    -0.200 OA
BRANCH  10  13
ATOM     13  C   UNL d   1      14.957  14.329  -0.493  0.00  0.00     0.104 A 
ATOM     14  C   UNL d   1      15.612  13.810  -0.497  0.00  0.00     0.013 A 
ATOM     15  C   UNL d   1      15.503  13.013  -0.339  0.00  0.00     0.007 A 
ATOM     16  C   UNL d   1      14.741  12.720  -0.173  0.00  0.00     0.035 A 
ATOM     17  C   UNL d   1      14.098  13.238  -0.170  0.00  0.00     0.007 A 
ATOM     18 BR   UNL d   1      14.629  11.921  -0.014  0.00  0.00    -0.049 Br
ATOM     19  C   UNL d   1      14.206  14.035  -0.328  0.00  0.00     0.013 A 
ENDBRANCH  10  13
ENDBRANCH   6  10
ENDBRANCH   4   5
ENDBRANCH   2   4
BRANCH   1  20
ATOM     20  C   UNL d   1      14.894  16.180  -4.361  0.00  0.00     0.337 C 
ATOM     21  N   UNL d   1      14.673  16.941  -4.571  0.00  0.00    -0.202 NA
ATOM     22  O   UNL d   1      15.328  15.710  -4.875  0.00  0.00    -0.260 OA
BRANCH  21  23
ATOM     23  C   UNL d   1      14.893  17.240  -5.318  0.00  0.00     0.102 C 
BRANCH  23  24
ATOM     24  C   UNL d   1      14.599  17.968  -5.577  0.00  0.00     0.021 A 
ATOM     25  C   UNL d   1      14.985  18.657  -5.356  0.00  0.00     0.028 A 
ATOM     26  C   UNL d   1      14.689  19.388  -5.617  0.00  0.00     0.119 A 
ATOM     27  O   UNL d   1      14.955  20.158  -5.486  0.00  0.00    -0.300 OA
ATOM     28  C   UNL d   1      14.014  19.422  -6.095  0.00  0.00     0.119 A 
ATOM     29  C   UNL d   1      14.432  20.674  -5.891  0.00  0.00     0.304 A 
ATOM     30  O   UNL d   1      13.862  20.204  -6.258  0.00  0.00    -0.300 OA
ATOM     31  C   UNL d   1      13.638  18.719  -6.309  0.00  0.00     0.026 A 
ATOM     32  C   UNL d   1      13.925  17.996  -6.054  0.00  0.00     0.004 A 
ENDBRANCH  23  24
ENDBRANCH  21  23
ENDBRANCH   1  20
TORSDOF 7
ENDMDL
