MODEL 1
REMARK VINA RESULT:      -8.2      0.000      0.000
REMARK  1 active torsions:
REMARK  status: ('A' for Active; 'I' for Inactive)
REMARK       I    between atoms: N_2  and  C_1 
REMARK       I    between atoms: N_4  and  C_1 
REMARK    1  A    between atoms: C_5  and  N_3 
ROOT
ATOM      1  C   UNL d   1      53.054  33.195  53.422  0.00  0.00     0.340 C 
ATOM      2  N   UNL d   1      52.314  33.527  53.204  0.00  0.00    -0.254 N 
ATOM      3  N   UNL d   1      50.868  34.175  52.777  0.00  0.00    -0.301 N 
ATOM      4  N   UNL d   1      53.170  32.374  53.404  0.00  0.00    -0.253 N 
ATOM      5  O   UNL d   1      53.675  33.700  53.657  0.00  0.00    -0.245 OA
ATOM      6  C   UNL d   1      51.702  33.032  52.971  0.00  0.00     0.104 A 
ATOM      7  C   UNL d   1      52.218  34.353  53.228  0.00  0.00     0.104 A 
ATOM      8  C   UNL d   1      51.493  34.678  53.014  0.00  0.00     0.100 A 
ATOM      9  C   UNL d   1      50.977  33.357  52.757  0.00  0.00     0.100 A 
ATOM     10  O   UNL d   1      53.402  30.746  53.371  0.00  0.00    -0.300 OA
ATOM     11  C   UNL d   1      53.903  32.059  53.622  0.00  0.00     0.111 A 
ATOM     12  C   UNL d   1      52.554  31.881  53.171  0.00  0.00     0.111 A 
ATOM     13  C   UNL d   1      52.669  31.061  53.153  0.00  0.00     0.142 A 
ATOM     14  C   UNL d   1      54.016  31.244  53.604  0.00  0.00     0.142 A 
ENDROOT
BRANCH   3  15
ATOM     15  C   UNL d   1      50.137  34.494  52.561  0.00  0.00     0.064 A 
ATOM     16  C   UNL d   1      49.857  34.368  51.800  0.00  0.00     0.018 A 
ATOM     17  C   UNL d   1      49.126  34.685  51.580  0.00  0.00     0.001 A 
ATOM     18  C   UNL d   1      48.838  34.562  50.816  0.00  0.00     0.000 C 
ATOM     19  C   UNL d   1      48.682  35.128  52.128  0.00  0.00     0.000 A 
ATOM     20  C   UNL d   1      48.969  35.252  52.891  0.00  0.00     0.001 A 
ATOM     21  C   UNL d   1      49.701  34.932  53.107  0.00  0.00     0.018 A 
ATOM     22  C   UNL d   1      48.530  35.691  53.436  0.00  0.00     0.000 C 
ENDBRANCH   3  15
TORSDOF 1
ENDMDL
MODEL 2
REMARK VINA RESULT:      -8.0      2.415      5.142
REMARK  1 active torsions:
REMARK  status: ('A' for Active; 'I' for Inactive)
REMARK       I    between atoms: N_2  and  C_1 
REMARK       I    between atoms: N_4  and  C_1 
REMARK    1  A    between atoms: C_5  and  N_3 
ROOT
ATOM      1  C   UNL d   1      48.275  35.093  51.643  0.00  0.00     0.340 C 
ATOM      2  N   UNL d   1      49.016  34.839  51.946  0.00  0.00    -0.254 N 
ATOM      3  N   UNL d   1      50.463  34.343  52.539  0.00  0.00    -0.301 N 
ATOM      4  N   UNL d   1      47.778  35.577  52.097  0.00  0.00    -0.253 N 
ATOM      5  O   UNL d   1      48.043  34.853  50.879  0.00  0.00    -0.245 OA
ATOM      6  C   UNL d   1      49.247  35.074  52.698  0.00  0.00     0.104 A 
ATOM      7  C   UNL d   1      49.501  34.354  51.476  0.00  0.00     0.104 A 
ATOM      8  C   UNL d   1      50.227  34.105  51.773  0.00  0.00     0.100 A 
ATOM      9  C   UNL d   1      49.973  34.825  52.995  0.00  0.00     0.100 A 
ATOM     10  O   UNL d   1      46.788  36.538  52.994  0.00  0.00    -0.300 OA
ATOM     11  C   UNL d   1      47.050  35.821  51.787  0.00  0.00     0.111 A 
ATOM     12  C   UNL d   1      48.013  35.810  52.850  0.00  0.00     0.111 A 
ATOM     13  C   UNL d   1      47.516  36.294  53.304  0.00  0.00     0.142 A 
ATOM     14  C   UNL d   1      46.557  36.302  52.239  0.00  0.00     0.142 A 
ENDROOT
BRANCH   3  15
ATOM     15  C   UNL d   1      51.191  34.097  52.844  0.00  0.00     0.064 A 
ATOM     16  C   UNL d   1      51.714  34.661  53.132  0.00  0.00     0.018 A 
ATOM     17  C   UNL d   1      52.443  34.419  53.438  0.00  0.00     0.001 A 
ATOM     18  C   UNL d   1      52.972  34.981  53.728  0.00  0.00     0.000 C 
ATOM     19  C   UNL d   1      52.640  33.610  53.452  0.00  0.00     0.000 A 
ATOM     20  C   UNL d   1      52.111  33.048  53.162  0.00  0.00     0.001 A 
ATOM     21  C   UNL d   1      51.383  33.295  52.857  0.00  0.00     0.018 A 
ATOM     22  C   UNL d   1      52.306  32.246  53.176  0.00  0.00     0.000 C 
ENDBRANCH   3  15
TORSDOF 1
ENDMDL
MODEL 3
REMARK VINA RESULT:      -8.0      1.720      4.602
REMARK  1 active torsions:
REMARK  status: ('A' for Active; 'I' for Inactive)
REMARK       I    between atoms: N_2  and  C_1 
REMARK       I    between atoms: N_4  and  C_1 
REMARK    1  A    between atoms: C_5  and  N_3 
ROOT
ATOM      1  C   UNL d   1      49.858  34.732  52.793  0.00  0.00     0.340 C 
ATOM      2  N   UNL d   1      50.534  34.245  52.894  0.00  0.00    -0.254 N 
ATOM      3  N   UNL d   1      51.856  33.294  53.092  0.00  0.00    -0.301 N 
ATOM      4  N   UNL d   1      49.430  34.717  52.082  0.00  0.00    -0.253 N 
ATOM      5  O   UNL d   1      49.617  35.232  53.415  0.00  0.00    -0.245 OA
ATOM      6  C   UNL d   1      50.773  33.751  52.283  0.00  0.00     0.104 A 
ATOM      7  C   UNL d   1      50.949  34.274  53.614  0.00  0.00     0.104 A 
ATOM      8  C   UNL d   1      51.613  33.797  53.714  0.00  0.00     0.100 A 
ATOM      9  C   UNL d   1      51.436  33.274  52.382  0.00  0.00     0.100 A 
ATOM     10  O   UNL d   1      48.580  34.690  50.674  0.00  0.00    -0.300 OA
ATOM     11  C   UNL d   1      48.765  35.201  51.995  0.00  0.00     0.111 A 
ATOM     12  C   UNL d   1      49.672  34.221  51.472  0.00  0.00     0.111 A 
ATOM     13  C   UNL d   1      49.245  34.206  50.762  0.00  0.00     0.142 A 
ATOM     14  C   UNL d   1      48.342  35.185  51.288  0.00  0.00     0.142 A 
ENDROOT
BRANCH   3  15
ATOM     15  C   UNL d   1      52.522  32.812  53.184  0.00  0.00     0.064 A 
ATOM     16  C   UNL d   1      52.443  32.001  53.083  0.00  0.00     0.018 A 
ATOM     17  C   UNL d   1      53.106  31.516  53.174  0.00  0.00     0.001 A 
ATOM     18  C   UNL d   1      53.034  30.700  53.074  0.00  0.00     0.000 C 
ATOM     19  C   UNL d   1      53.844  31.850  53.367  0.00  0.00     0.000 A 
ATOM     20  C   UNL d   1      53.916  32.666  53.468  0.00  0.00     0.001 A 
ATOM     21  C   UNL d   1      53.250  33.147  53.375  0.00  0.00     0.018 A 
ATOM     22  C   UNL d   1      54.648  32.999  53.659  0.00  0.00     0.000 C 
ENDBRANCH   3  15
TORSDOF 1
ENDMDL
MODEL 4
REMARK VINA RESULT:      -7.9      2.556      4.805
REMARK  1 active torsions:
REMARK  status: ('A' for Active; 'I' for Inactive)
REMARK       I    between atoms: N_2  and  C_1 
REMARK       I    between atoms: N_4  and  C_1 
REMARK    1  A    between atoms: C_5  and  N_3 
ROOT
ATOM      1  C   UNL d   1      53.810  34.033  54.807  0.00  0.00     0.340 C 
ATOM      2  N   UNL d   1      53.696  33.231  54.589  0.00  0.00    -0.254 N 
ATOM      3  N   UNL d   1      53.472  31.662  54.163  0.00  0.00    -0.301 N 
ATOM      4  N   UNL d   1      53.304  34.624  54.521  0.00  0.00    -0.253 N 
ATOM      5  O   UNL d   1      54.440  34.232  55.317  0.00  0.00    -0.245 OA
ATOM      6  C   UNL d   1      53.077  33.032  54.088  0.00  0.00     0.104 A 
ATOM      7  C   UNL d   1      54.214  32.652  54.887  0.00  0.00     0.104 A 
ATOM      8  C   UNL d   1      54.102  31.865  54.674  0.00  0.00     0.100 A 
ATOM      9  C   UNL d   1      52.965  32.245  53.874  0.00  0.00     0.100 A 
ATOM     10  O   UNL d   1      52.302  35.799  53.953  0.00  0.00    -0.300 OA
ATOM     11  C   UNL d   1      53.427  35.412  54.743  0.00  0.00     0.111 A 
ATOM     12  C   UNL d   1      52.685  34.421  54.018  0.00  0.00     0.111 A 
ATOM     13  C   UNL d   1      52.179  35.012  53.731  0.00  0.00     0.142 A 
ATOM     14  C   UNL d   1      52.924  35.997  54.457  0.00  0.00     0.142 A 
ENDROOT
BRANCH   3  15
ATOM     15  C   UNL d   1      53.353  30.874  53.944  0.00  0.00     0.064 A 
ATOM     16  C   UNL d   1      53.170  30.701  53.162  0.00  0.00     0.018 A 
ATOM     17  C   UNL d   1      53.051  29.914  52.939  0.00  0.00     0.001 A 
ATOM     18  C   UNL d   1      52.867  29.733  52.155  0.00  0.00     0.000 C 
ATOM     19  C   UNL d   1      53.115  29.306  53.505  0.00  0.00     0.000 A 
ATOM     20  C   UNL d   1      53.299  29.486  54.288  0.00  0.00     0.001 A 
ATOM     21  C   UNL d   1      53.417  30.275  54.507  0.00  0.00     0.018 A 
ATOM     22  C   UNL d   1      53.363  28.884  54.851  0.00  0.00     0.000 C 
ENDBRANCH   3  15
TORSDOF 1
ENDMDL
MODEL 5
REMARK VINA RESULT:      -7.5      0.355      1.117
REMARK  1 active torsions:
REMARK  status: ('A' for Active; 'I' for Inactive)
REMARK       I    between atoms: N_2  and  C_1 
REMARK       I    between atoms: N_4  and  C_1 
REMARK    1  A    between atoms: C_5  and  N_3 
ROOT
ATOM      1  C   UNL d   1      52.732  33.013  53.335  0.00  0.00     0.340 C 
ATOM      2  N   UNL d   1      52.021  33.399  53.115  0.00  0.00    -0.254 N 
ATOM      3  N   UNL d   1      50.629  34.156  52.685  0.00  0.00    -0.301 N 
ATOM      4  N   UNL d   1      52.782  32.185  53.327  0.00  0.00    -0.253 N 
ATOM      5  O   UNL d   1      53.392  33.469  53.563  0.00  0.00    -0.245 OA
ATOM      6  C   UNL d   1      51.370  32.953  52.890  0.00  0.00     0.104 A 
ATOM      7  C   UNL d   1      51.991  34.231  53.130  0.00  0.00     0.104 A 
ATOM      8  C   UNL d   1      51.293  34.610  52.914  0.00  0.00     0.100 A 
ATOM      9  C   UNL d   1      50.672  33.332  52.674  0.00  0.00     0.100 A 
ATOM     10  O   UNL d   1      52.884  30.543  53.312  0.00  0.00    -0.300 OA
ATOM     11  C   UNL d   1      53.489  31.815  53.546  0.00  0.00     0.111 A 
ATOM     12  C   UNL d   1      52.128  31.740  53.101  0.00  0.00     0.111 A 
ATOM     13  C   UNL d   1      52.177  30.913  53.093  0.00  0.00     0.142 A 
ATOM     14  C   UNL d   1      53.537  30.993  53.537  0.00  0.00     0.142 A 
ENDROOT
BRANCH   3  15
ATOM     15  C   UNL d   1      49.925  34.530  52.467  0.00  0.00     0.064 A 
ATOM     16  C   UNL d   1      49.525  34.982  53.023  0.00  0.00     0.018 A 
ATOM     17  C   UNL d   1      48.820  35.357  52.809  0.00  0.00     0.001 A 
ATOM     18  C   UNL d   1      48.414  35.813  53.363  0.00  0.00     0.000 C 
ATOM     19  C   UNL d   1      48.523  35.275  52.035  0.00  0.00     0.000 A 
ATOM     20  C   UNL d   1      48.930  34.819  51.481  0.00  0.00     0.001 A 
ATOM     21  C   UNL d   1      49.634  34.446  51.700  0.00  0.00     0.018 A 
ATOM     22  C   UNL d   1      48.635  34.737  50.713  0.00  0.00     0.000 C 
ENDBRANCH   3  15
TORSDOF 1
ENDMDL
MODEL 6
REMARK VINA RESULT:      -6.8     10.077     10.792
REMARK  1 active torsions:
REMARK  status: ('A' for Active; 'I' for Inactive)
REMARK       I    between atoms: N_2  and  C_1 
REMARK       I    between atoms: N_4  and  C_1 
REMARK    1  A    between atoms: C_5  and  N_3 
ROOT
ATOM      1  C   UNL d   1      44.647  30.631  61.125  0.00  0.00     0.340 C 
ATOM      2  N   UNL d   1      44.719  30.277  60.368  0.00  0.00    -0.254 N 
ATOM      3  N   UNL d   1      44.862  29.584  58.887  0.00  0.00    -0.301 N 
ATOM      4  N   UNL d   1      44.535  30.163  61.801  0.00  0.00    -0.253 N 
ATOM      5  O   UNL d   1      44.687  31.461  61.194  0.00  0.00    -0.245 OA
ATOM      6  C   UNL d   1      44.680  29.460  60.297  0.00  0.00     0.104 A 
ATOM      7  C   UNL d   1      44.831  30.763  59.702  0.00  0.00     0.104 A 
ATOM      8  C   UNL d   1      44.902  30.416  58.959  0.00  0.00     0.100 A 
ATOM      9  C   UNL d   1      44.751  29.112  59.554  0.00  0.00     0.100 A 
ATOM     10  O   UNL d   1      44.314  29.237  63.142  0.00  0.00    -0.300 OA
ATOM     11  C   UNL d   1      44.465  30.524  62.541  0.00  0.00     0.111 A 
ATOM     12  C   UNL d   1      44.496  29.344  61.726  0.00  0.00     0.111 A 
ATOM     13  C   UNL d   1      44.385  28.876  62.401  0.00  0.00     0.142 A 
ATOM     14  C   UNL d   1      44.354  30.058  63.211  0.00  0.00     0.142 A 
ENDROOT
BRANCH   3  15
ATOM     15  C   UNL d   1      44.932  29.228  58.144  0.00  0.00     0.064 A 
ATOM     16  C   UNL d   1      44.741  29.662  57.474  0.00  0.00     0.018 A 
ATOM     17  C   UNL d   1      44.810  29.309  56.729  0.00  0.00     0.001 A 
ATOM     18  C   UNL d   1      44.620  29.740  56.053  0.00  0.00     0.000 C 
ATOM     19  C   UNL d   1      45.072  28.521  56.665  0.00  0.00     0.000 A 
ATOM     20  C   UNL d   1      45.263  28.090  57.342  0.00  0.00     0.001 A 
ATOM     21  C   UNL d   1      45.192  28.448  58.084  0.00  0.00     0.018 A 
ATOM     22  C   UNL d   1      45.523  27.309  57.278  0.00  0.00     0.000 C 
ENDBRANCH   3  15
TORSDOF 1
ENDMDL
MODEL 7
REMARK VINA RESULT:      -6.4     10.156     10.956
REMARK  1 active torsions:
REMARK  status: ('A' for Active; 'I' for Inactive)
REMARK       I    between atoms: N_2  and  C_1 
REMARK       I    between atoms: N_4  and  C_1 
REMARK    1  A    between atoms: C_5  and  N_3 
ROOT
ATOM      1  C   UNL d   1      44.830  29.444  58.199  0.00  0.00     0.340 C 
ATOM      2  N   UNL d   1      44.743  29.676  59.001  0.00  0.00    -0.254 N 
ATOM      3  N   UNL d   1      44.572  30.128  60.569  0.00  0.00    -0.301 N 
ATOM      4  N   UNL d   1      44.993  28.655  58.003  0.00  0.00    -0.253 N 
ATOM      5  O   UNL d   1      44.752  30.017  57.597  0.00  0.00    -0.245 OA
ATOM      6  C   UNL d   1      44.819  29.115  59.595  0.00  0.00     0.104 A 
ATOM      7  C   UNL d   1      44.580  30.473  59.177  0.00  0.00     0.104 A 
ATOM      8  C   UNL d   1      44.494  30.700  59.963  0.00  0.00     0.100 A 
ATOM      9  C   UNL d   1      44.734  29.342  60.381  0.00  0.00     0.100 A 
ATOM     10  O   UNL d   1      45.315  27.090  57.612  0.00  0.00    -0.300 OA
ATOM     11  C   UNL d   1      45.076  28.439  57.209  0.00  0.00     0.111 A 
ATOM     12  C   UNL d   1      45.069  28.095  58.601  0.00  0.00     0.111 A 
ATOM     13  C   UNL d   1      45.231  27.306  58.406  0.00  0.00     0.142 A 
ATOM     14  C   UNL d   1      45.238  27.655  57.016  0.00  0.00     0.142 A 
ENDROOT
BRANCH   3  15
ATOM     15  C   UNL d   1      44.487  30.349  61.361  0.00  0.00     0.064 A 
ATOM     16  C   UNL d   1      44.443  31.147  61.550  0.00  0.00     0.018 A 
ATOM     17  C   UNL d   1      44.359  31.371  62.341  0.00  0.00     0.001 A 
ATOM     18  C   UNL d   1      44.314  32.171  62.538  0.00  0.00     0.000 C 
ATOM     19  C   UNL d   1      44.319  30.791  62.937  0.00  0.00     0.000 A 
ATOM     20  C   UNL d   1      44.364  29.991  62.741  0.00  0.00     0.001 A 
ATOM     21  C   UNL d   1      44.448  29.771  61.948  0.00  0.00     0.018 A 
ATOM     22  C   UNL d   1      44.324  29.414  63.331  0.00  0.00     0.000 C 
ENDBRANCH   3  15
TORSDOF 1
ENDMDL
MODEL 8
REMARK VINA RESULT:      -6.2      9.683     10.302
REMARK  1 active torsions:
REMARK  status: ('A' for Active; 'I' for Inactive)
REMARK       I    between atoms: N_2  and  C_1 
REMARK       I    between atoms: N_4  and  C_1 
REMARK    1  A    between atoms: C_5  and  N_3 
ROOT
ATOM      1  C   UNL d   1      44.964  26.430  57.050  0.00  0.00     0.340 C 
ATOM      2  N   UNL d   1      44.955  27.215  57.346  0.00  0.00    -0.254 N 
ATOM      3  N   UNL d   1      44.936  28.750  57.924  0.00  0.00    -0.301 N 
ATOM      4  N   UNL d   1      44.751  25.793  57.537  0.00  0.00    -0.253 N 
ATOM      5  O   UNL d   1      45.190  26.293  56.259  0.00  0.00    -0.245 OA
ATOM      6  C   UNL d   1      44.732  27.352  58.124  0.00  0.00     0.104 A 
ATOM      7  C   UNL d   1      45.172  27.840  56.841  0.00  0.00     0.104 A 
ATOM      8  C   UNL d   1      45.162  28.610  57.131  0.00  0.00     0.100 A 
ATOM      9  C   UNL d   1      44.723  28.122  58.414  0.00  0.00     0.100 A 
ATOM     10  O   UNL d   1      44.330  24.528  58.501  0.00  0.00    -0.300 OA
ATOM     11  C   UNL d   1      44.765  25.023  57.234  0.00  0.00     0.111 A 
ATOM     12  C   UNL d   1      44.529  25.934  58.317  0.00  0.00     0.111 A 
ATOM     13  C   UNL d   1      44.316  25.298  58.804  0.00  0.00     0.142 A 
ATOM     14  C   UNL d   1      44.553  24.392  57.719  0.00  0.00     0.142 A 
ENDROOT
BRANCH   3  15
ATOM     15  C   UNL d   1      44.924  29.522  58.222  0.00  0.00     0.064 A 
ATOM     16  C   UNL d   1      44.832  30.149  57.700  0.00  0.00     0.018 A 
ATOM     17  C   UNL d   1      44.819  30.922  57.995  0.00  0.00     0.001 A 
ATOM     18  C   UNL d   1      44.727  31.556  57.476  0.00  0.00     0.000 C 
ATOM     19  C   UNL d   1      44.900  31.057  58.813  0.00  0.00     0.000 A 
ATOM     20  C   UNL d   1      44.992  30.422  59.331  0.00  0.00     0.001 A 
ATOM     21  C   UNL d   1      45.004  29.651  59.032  0.00  0.00     0.018 A 
ATOM     22  C   UNL d   1      45.072  30.555  60.143  0.00  0.00     0.000 C 
ENDBRANCH   3  15
TORSDOF 1
ENDMDL
MODEL 9
REMARK VINA RESULT:      -6.0      9.560     10.617
REMARK  1 active torsions:
REMARK  status: ('A' for Active; 'I' for Inactive)
REMARK       I    between atoms: N_2  and  C_1 
REMARK       I    between atoms: N_4  and  C_1 
REMARK    1  A    between atoms: C_5  and  N_3 
ROOT
ATOM      1  C   UNL d   1      45.097  29.615  58.102  0.00  0.00     0.340 C 
ATOM      2  N   UNL d   1      45.014  28.797  57.936  0.00  0.00    -0.254 N 
ATOM      3  N   UNL d   1      44.851  27.197  57.612  0.00  0.00    -0.301 N 
ATOM      4  N   UNL d   1      44.865  30.184  57.545  0.00  0.00    -0.253 N 
ATOM      5  O   UNL d   1      45.417  29.853  58.835  0.00  0.00    -0.245 OA
ATOM      6  C   UNL d   1      44.700  28.560  57.216  0.00  0.00     0.104 A 
ATOM      7  C   UNL d   1      45.252  28.241  58.508  0.00  0.00     0.104 A 
ATOM      8  C   UNL d   1      45.170  27.439  58.345  0.00  0.00     0.100 A 
ATOM      9  C   UNL d   1      44.618  27.757  57.053  0.00  0.00     0.100 A 
ATOM     10  O   UNL d   1      44.406  31.315  56.442  0.00  0.00    -0.300 OA
ATOM     11  C   UNL d   1      44.952  30.988  57.720  0.00  0.00     0.111 A 
ATOM     12  C   UNL d   1      44.551  29.943  56.824  0.00  0.00     0.111 A 
ATOM     13  C   UNL d   1      44.319  30.512  56.267  0.00  0.00     0.142 A 
ATOM     14  C   UNL d   1      44.722  31.552  57.166  0.00  0.00     0.142 A 
ENDROOT
BRANCH   3  15
ATOM     15  C   UNL d   1      44.765  26.392  57.441  0.00  0.00     0.064 A 
ATOM     16  C   UNL d   1      44.594  25.871  58.052  0.00  0.00     0.018 A 
ATOM     17  C   UNL d   1      44.508  25.066  57.885  0.00  0.00     0.001 A 
ATOM     18  C   UNL d   1      44.336  24.538  58.495  0.00  0.00     0.000 C 
ATOM     19  C   UNL d   1      44.595  24.791  57.104  0.00  0.00     0.000 A 
ATOM     20  C   UNL d   1      44.767  25.319  56.495  0.00  0.00     0.001 A 
ATOM     21  C   UNL d   1      44.852  26.124  56.666  0.00  0.00     0.018 A 
ATOM     22  C   UNL d   1      44.854  25.047  55.719  0.00  0.00     0.000 C 
ENDBRANCH   3  15
TORSDOF 1
ENDMDL
