MODEL 1
REMARK VINA RESULT:      18.8      0.000      0.000
REMARK  5 active torsions:
REMARK  status: ('A' for Active; 'I' for Inactive)
REMARK    1  A    between atoms: N_2  and  C_1 
REMARK    2  A    between atoms: N_3  and  C_1 
REMARK       I    between atoms: C_4  and  N_2 
REMARK    3  A    between atoms: C_7  and  N_3 
REMARK    4  A    between atoms: C_8  and  C_4 
REMARK    5  A    between atoms: C_9  and  C_8 
ROOT
ATOM      1  C   UNL d   1      14.575  12.371  -1.420  0.00  0.00     0.209 C 
ATOM      2  S   UNL d   1      15.109  12.495  -2.057  0.00  0.00    -0.038 SA
ENDROOT
BRANCH   1   3
ATOM      3  N   UNL d   1      13.864  12.055  -1.566  0.00  0.00    -0.180 NA
ATOM      4  C   UNL d   1      13.519  12.115  -2.295  0.00  0.00     0.281 C 
ATOM      5  O   UNL d   1      12.769  11.780  -2.445  0.00  0.00    -0.265 OA
BRANCH   4   6
ATOM      6  C   UNL d   1      13.902  12.506  -2.901  0.00  0.00     0.063 C 
BRANCH   6   7
ATOM      7  C   UNL d   1      13.568  12.535  -3.654  0.00  0.00     0.005 A 
ATOM      8  C   UNL d   1      13.297  13.253  -3.946  0.00  0.00     0.000 A 
ATOM      9  C   UNL d   1      12.956  13.299  -4.708  0.00  0.00     0.000 A 
ATOM     10  C   UNL d   1      12.896  12.610  -5.160  0.00  0.00     0.000 A 
ATOM     11  C   UNL d   1      13.165  11.887  -4.875  0.00  0.00     0.000 A 
ATOM     12  C   UNL d   1      13.510  11.835  -4.108  0.00  0.00     0.000 A 
ENDBRANCH   6   7
ENDBRANCH   4   6
ENDBRANCH   1   3
BRANCH   1  13
ATOM     13  N   UNL d   1      14.797  12.576  -0.671  0.00  0.00    -0.281 N 
ATOM     14  C   UNL d   1      14.940  11.995  -0.017  0.00  0.00     0.101 C 
BRANCH  13  15
ATOM     15  C   UNL d   1      14.906  13.344  -0.469  0.00  0.00     0.066 A 
ATOM     16  C   UNL d   1      14.282  13.825  -0.222  0.00  0.00     0.018 A 
ATOM     17  C   UNL d   1      14.406  14.611  -0.017  0.00  0.00     0.002 A 
ATOM     18  C   UNL d   1      15.180  14.944  -0.056  0.00  0.00     0.000 A 
ATOM     19  C   UNL d   1      15.804  14.462  -0.302  0.00  0.00     0.002 A 
ATOM     20  C   UNL d   1      15.662  13.663  -0.508  0.00  0.00     0.018 A 
ENDBRANCH  13  15
ENDBRANCH   1  13
TORSDOF 5
ENDMDL
