MODEL 1
REMARK VINA RESULT:      -7.7      0.000      0.000
REMARK  5 active torsions:
REMARK  status: ('A' for Active; 'I' for Inactive)
REMARK    1  A    between atoms: C_7  and  N_1 
REMARK       I    between atoms: C_4  and  N_8 
REMARK       I    between atoms: N_10  and  C_4 
REMARK    2  A    between atoms: N_8  and  C_5 
REMARK    3  A    between atoms: C_15  and  N_10 
REMARK    4  A    between atoms: O_18  and  C_14 
REMARK    5  A    between atoms: C_19  and  C_15 
ROOT
ATOM      1  N   UNL d   1      52.254  33.192  53.226  0.00  0.00    -0.272 N 
ATOM      2  C   UNL d   1      52.632  33.908  53.053  0.00  0.00     0.266 A 
ATOM      3  C   UNL d   1      52.040  34.487  52.996  0.00  0.00     0.082 A 
ATOM      4  C   UNL d   1      51.310  34.128  53.134  0.00  0.00     0.108 A 
ATOM      5  C   UNL d   1      51.449  33.325  53.276  0.00  0.00     0.102 A 
ATOM      6  O   UNL d   1      53.437  34.024  52.955  0.00  0.00    -0.267 OA
ENDROOT
BRANCH   1   7
ATOM      7  C   UNL d   1      52.631  32.466  53.331  0.00  0.00     0.067 A 
ATOM      8  C   UNL d   1      52.459  31.835  52.826  0.00  0.00     0.020 A 
ATOM      9  C   UNL d   1      52.836  31.109  52.931  0.00  0.00     0.026 A 
ATOM     10  C   UNL d   1      53.384  31.013  53.539  0.00  0.00     0.094 A 
ATOM     11  C   UNL d   1      53.560  31.637  54.044  0.00  0.00     0.026 A 
ATOM     12  C   UNL d   1      53.178  32.370  53.938  0.00  0.00     0.020 A 
BRANCH  10  13
ATOM     13  O   UNL d   1      53.757  30.283  53.637  0.00  0.00    -0.328 OA
ATOM     14  C   UNL d   1      53.311  29.628  53.862  0.00  0.00     0.181 C 
ENDBRANCH  10  13
ENDBRANCH   1   7
BRANCH   4  15
ATOM     15  N   UNL d   1      50.575  34.507  53.129  0.00  0.00    -0.189 NA
ATOM     16  C   UNL d   1      50.134  34.529  52.437  0.00  0.00     0.369 C 
ATOM     17  N   UNL d   1      49.399  34.907  52.427  0.00  0.00    -0.189 NA
ATOM     18  O   UNL d   1      50.418  34.177  51.751  0.00  0.00    -0.242 OA
BRANCH  17  19
ATOM     19  C   UNL d   1      49.120  35.256  53.109  0.00  0.00     0.104 C 
BRANCH  19  20
ATOM     20  C   UNL d   1      48.405  35.669  53.105  0.00  0.00     0.019 C 
ATOM     21  C   UNL d   1      47.960  35.730  52.416  0.00  0.00     0.002 C 
ATOM     22  C   UNL d   1      48.131  36.028  53.799  0.00  0.00     0.002 C 
ENDBRANCH  19  20
ENDBRANCH  17  19
ENDBRANCH   4  15
TORSDOF 5
ENDMDL
MODEL 2
REMARK VINA RESULT:      -7.4      1.347      1.927
REMARK  5 active torsions:
REMARK  status: ('A' for Active; 'I' for Inactive)
REMARK    1  A    between atoms: C_7  and  N_1 
REMARK       I    between atoms: C_4  and  N_8 
REMARK       I    between atoms: N_10  and  C_4 
REMARK    2  A    between atoms: N_8  and  C_5 
REMARK    3  A    between atoms: C_15  and  N_10 
REMARK    4  A    between atoms: O_18  and  C_14 
REMARK    5  A    between atoms: C_19  and  C_15 
ROOT
ATOM      1  N   UNL d   1      52.229  33.286  53.539  0.00  0.00    -0.272 N 
ATOM      2  C   UNL d   1      51.851  32.633  53.199  0.00  0.00     0.266 A 
ATOM      3  C   UNL d   1      51.088  32.881  52.982  0.00  0.00     0.082 A 
ATOM      4  C   UNL d   1      51.005  33.676  53.189  0.00  0.00     0.108 A 
ATOM      5  C   UNL d   1      51.715  33.920  53.534  0.00  0.00     0.102 A 
ATOM      6  O   UNL d   1      52.167  31.884  53.095  0.00  0.00    -0.267 OA
ENDROOT
BRANCH   1   7
ATOM      7  C   UNL d   1      53.000  33.290  53.835  0.00  0.00     0.067 A 
ATOM      8  C   UNL d   1      53.136  33.492  54.625  0.00  0.00     0.020 A 
ATOM      9  C   UNL d   1      53.907  33.496  54.921  0.00  0.00     0.026 A 
ATOM     10  C   UNL d   1      54.539  33.300  54.430  0.00  0.00     0.094 A 
ATOM     11  C   UNL d   1      54.408  33.098  53.643  0.00  0.00     0.026 A 
ATOM     12  C   UNL d   1      53.630  33.093  53.345  0.00  0.00     0.020 A 
BRANCH  10  13
ATOM     13  O   UNL d   1      55.306  33.306  54.734  0.00  0.00    -0.328 OA
ATOM     14  C   UNL d   1      55.542  33.927  55.220  0.00  0.00     0.181 C 
ENDBRANCH  10  13
ENDBRANCH   1   7
BRANCH   4  15
ATOM     15  N   UNL d   1      50.329  34.138  53.069  0.00  0.00    -0.189 NA
ATOM     16  C   UNL d   1      50.181  34.457  52.328  0.00  0.00     0.369 C 
ATOM     17  N   UNL d   1      49.508  34.920  52.203  0.00  0.00    -0.189 NA
ATOM     18  O   UNL d   1      50.700  34.320  51.704  0.00  0.00    -0.242 OA
BRANCH  17  19
ATOM     19  C   UNL d   1      48.996  35.054  52.823  0.00  0.00     0.104 C 
BRANCH  19  20
ATOM     20  C   UNL d   1      48.360  35.574  52.735  0.00  0.00     0.019 C 
ATOM     21  C   UNL d   1      47.882  35.541  52.066  0.00  0.00     0.002 C 
ATOM     22  C   UNL d   1      48.199  36.134  53.323  0.00  0.00     0.002 C 
ENDBRANCH  19  20
ENDBRANCH  17  19
ENDBRANCH   4  15
TORSDOF 5
ENDMDL
MODEL 3
REMARK VINA RESULT:      -6.8      1.250      5.035
REMARK  5 active torsions:
REMARK  status: ('A' for Active; 'I' for Inactive)
REMARK    1  A    between atoms: C_7  and  N_1 
REMARK       I    between atoms: C_4  and  N_8 
REMARK       I    between atoms: N_10  and  C_4 
REMARK    2  A    between atoms: N_8  and  C_5 
REMARK    3  A    between atoms: C_15  and  N_10 
REMARK    4  A    between atoms: O_18  and  C_14 
REMARK    5  A    between atoms: C_19  and  C_15 
ROOT
ATOM      1  N   UNL d   1      51.485  33.587  52.925  0.00  0.00    -0.272 N 
ATOM      2  C   UNL d   1      52.233  33.921  53.042  0.00  0.00     0.266 A 
ATOM      3  C   UNL d   1      52.736  33.309  53.293  0.00  0.00     0.082 A 
ATOM      4  C   UNL d   1      52.298  32.611  53.328  0.00  0.00     0.108 A 
ATOM      5  C   UNL d   1      51.523  32.790  53.099  0.00  0.00     0.102 A 
ATOM      6  O   UNL d   1      52.440  34.706  52.931  0.00  0.00    -0.267 OA
ENDROOT
BRANCH   1   7
ATOM      7  C   UNL d   1      50.814  33.996  52.674  0.00  0.00     0.067 A 
ATOM      8  C   UNL d   1      50.328  34.370  53.229  0.00  0.00     0.020 A 
ATOM      9  C   UNL d   1      49.657  34.779  52.978  0.00  0.00     0.026 A 
ATOM     10  C   UNL d   1      49.470  34.814  52.177  0.00  0.00     0.094 A 
ATOM     11  C   UNL d   1      49.950  34.443  51.621  0.00  0.00     0.026 A 
ATOM     12  C   UNL d   1      50.628  34.030  51.874  0.00  0.00     0.020 A 
BRANCH  10  13
ATOM     13  O   UNL d   1      48.797  35.225  51.934  0.00  0.00    -0.328 OA
ATOM     14  C   UNL d   1      48.359  34.942  51.297  0.00  0.00     0.181 C 
ENDBRANCH  10  13
ENDBRANCH   1   7
BRANCH   4  15
ATOM     15  N   UNL d   1      52.587  31.869  53.553  0.00  0.00    -0.189 NA
ATOM     16  C   UNL d   1      52.841  31.341  52.978  0.00  0.00     0.369 C 
ATOM     17  N   UNL d   1      53.130  30.599  53.197  0.00  0.00    -0.189 NA
ATOM     18  O   UNL d   1      52.809  31.546  52.182  0.00  0.00    -0.242 OA
BRANCH  17  19
ATOM     19  C   UNL d   1      53.160  30.399  53.987  0.00  0.00     0.104 C 
BRANCH  19  20
ATOM     20  C   UNL d   1      53.301  29.619  54.215  0.00  0.00     0.019 C 
ATOM     21  C   UNL d   1      53.479  29.044  53.655  0.00  0.00     0.002 C 
ATOM     22  C   UNL d   1      53.263  29.409  55.016  0.00  0.00     0.002 C 
ENDBRANCH  19  20
ENDBRANCH  17  19
ENDBRANCH   4  15
TORSDOF 5
ENDMDL
MODEL 4
REMARK VINA RESULT:      -6.4      1.577      5.276
REMARK  5 active torsions:
REMARK  status: ('A' for Active; 'I' for Inactive)
REMARK    1  A    between atoms: C_7  and  N_1 
REMARK       I    between atoms: C_4  and  N_8 
REMARK       I    between atoms: N_10  and  C_4 
REMARK    2  A    between atoms: N_8  and  C_5 
REMARK    3  A    between atoms: C_15  and  N_10 
REMARK    4  A    between atoms: O_18  and  C_14 
REMARK    5  A    between atoms: C_19  and  C_15 
ROOT
ATOM      1  N   UNL d   1      49.993  34.610  52.538  0.00  0.00    -0.272 N 
ATOM      2  C   UNL d   1      50.338  34.284  51.859  0.00  0.00     0.266 A 
ATOM      3  C   UNL d   1      51.063  33.952  52.091  0.00  0.00     0.082 A 
ATOM      4  C   UNL d   1      51.158  34.075  52.901  0.00  0.00     0.108 A 
ATOM      5  C   UNL d   1      50.492  34.483  53.172  0.00  0.00     0.102 A 
ATOM      6  O   UNL d   1      50.024  34.288  51.102  0.00  0.00    -0.267 OA
ENDROOT
BRANCH   1   7
ATOM      7  C   UNL d   1      49.266  34.998  52.564  0.00  0.00     0.067 A 
ATOM      8  C   UNL d   1      49.065  35.451  53.226  0.00  0.00     0.020 A 
ATOM      9  C   UNL d   1      48.337  35.839  53.253  0.00  0.00     0.026 A 
ATOM     10  C   UNL d   1      47.812  35.776  52.621  0.00  0.00     0.094 A 
ATOM     11  C   UNL d   1      48.007  35.326  51.961  0.00  0.00     0.026 A 
ATOM     12  C   UNL d   1      48.742  34.935  51.934  0.00  0.00     0.020 A 
BRANCH  10  13
ATOM     13  O   UNL d   1      47.086  36.167  52.656  0.00  0.00    -0.328 OA
ATOM     14  C   UNL d   1      46.586  36.150  52.003  0.00  0.00     0.181 C 
ENDBRANCH  10  13
ENDBRANCH   1   7
BRANCH   4  15
ATOM     15  N   UNL d   1      51.806  33.831  53.355  0.00  0.00    -0.189 NA
ATOM     16  C   UNL d   1      52.498  34.271  53.343  0.00  0.00     0.369 C 
ATOM     17  N   UNL d   1      53.148  34.032  53.794  0.00  0.00    -0.189 NA
ATOM     18  O   UNL d   1      52.552  34.951  52.883  0.00  0.00    -0.242 OA
BRANCH  17  19
ATOM     19  C   UNL d   1      53.092  33.357  54.249  0.00  0.00     0.104 C 
BRANCH  19  20
ATOM     20  C   UNL d   1      53.758  33.055  54.631  0.00  0.00     0.019 C 
ATOM     21  C   UNL d   1      53.955  32.259  54.564  0.00  0.00     0.002 C 
ATOM     22  C   UNL d   1      54.235  33.555  55.088  0.00  0.00     0.002 C 
ENDBRANCH  19  20
ENDBRANCH  17  19
ENDBRANCH   4  15
TORSDOF 5
ENDMDL
MODEL 5
REMARK VINA RESULT:      -5.1      9.566     10.208
REMARK  5 active torsions:
REMARK  status: ('A' for Active; 'I' for Inactive)
REMARK    1  A    between atoms: C_7  and  N_1 
REMARK       I    between atoms: C_4  and  N_8 
REMARK       I    between atoms: N_10  and  C_4 
REMARK    2  A    between atoms: N_8  and  C_5 
REMARK    3  A    between atoms: C_15  and  N_10 
REMARK    4  A    between atoms: O_18  and  C_14 
REMARK    5  A    between atoms: C_19  and  C_15 
ROOT
ATOM      1  N   UNL d   1      44.825  28.959  58.080  0.00  0.00    -0.272 N 
ATOM      2  C   UNL d   1      44.897  29.738  57.809  0.00  0.00     0.266 A 
ATOM      3  C   UNL d   1      44.802  30.234  58.468  0.00  0.00     0.082 A 
ATOM      4  C   UNL d   1      44.674  29.762  59.132  0.00  0.00     0.108 A 
ATOM      5  C   UNL d   1      44.690  28.973  58.886  0.00  0.00     0.102 A 
ATOM      6  O   UNL d   1      45.035  29.975  57.037  0.00  0.00    -0.267 OA
ENDROOT
BRANCH   1   7
ATOM      7  C   UNL d   1      44.882  28.283  57.611  0.00  0.00     0.067 A 
ATOM      8  C   UNL d   1      45.492  27.740  57.743  0.00  0.00     0.020 A 
ATOM      9  C   UNL d   1      45.549  27.063  57.274  0.00  0.00     0.026 A 
ATOM     10  C   UNL d   1      45.000  26.929  56.675  0.00  0.00     0.094 A 
ATOM     11  C   UNL d   1      44.392  27.466  56.539  0.00  0.00     0.026 A 
ATOM     12  C   UNL d   1      44.334  28.149  57.012  0.00  0.00     0.020 A 
BRANCH  10  13
ATOM     13  O   UNL d   1      45.064  26.250  56.210  0.00  0.00    -0.328 OA
ATOM     14  C   UNL d   1      44.382  25.901  55.909  0.00  0.00     0.181 C 
ENDBRANCH  10  13
ENDBRANCH   1   7
BRANCH   4  15
ATOM     15  N   UNL d   1      44.553  30.035  59.904  0.00  0.00    -0.189 NA
ATOM     16  C   UNL d   1      45.055  30.603  60.217  0.00  0.00     0.369 C 
ATOM     17  N   UNL d   1      44.939  30.880  60.987  0.00  0.00    -0.189 NA
ATOM     18  O   UNL d   1      45.677  30.902  59.769  0.00  0.00    -0.242 OA
BRANCH  17  19
ATOM     19  C   UNL d   1      44.321  30.582  61.429  0.00  0.00     0.104 C 
BRANCH  19  20
ATOM     20  C   UNL d   1      44.336  30.631  62.253  0.00  0.00     0.019 C 
ATOM     21  C   UNL d   1      44.363  29.950  62.713  0.00  0.00     0.002 C 
ATOM     22  C   UNL d   1      44.322  31.371  62.623  0.00  0.00     0.002 C 
ENDBRANCH  19  20
ENDBRANCH  17  19
ENDBRANCH   4  15
TORSDOF 5
ENDMDL
MODEL 6
REMARK VINA RESULT:      -4.9     10.046     10.918
REMARK  5 active torsions:
REMARK  status: ('A' for Active; 'I' for Inactive)
REMARK    1  A    between atoms: C_7  and  N_1 
REMARK       I    between atoms: C_4  and  N_8 
REMARK       I    between atoms: N_10  and  C_4 
REMARK    2  A    between atoms: N_8  and  C_5 
REMARK    3  A    between atoms: C_15  and  N_10 
REMARK    4  A    between atoms: O_18  and  C_14 
REMARK    5  A    between atoms: C_19  and  C_15 
ROOT
ATOM      1  N   UNL d   1      44.656  24.954  56.104  0.00  0.00    -0.272 N 
ATOM      2  C   UNL d   1      44.453  24.856  56.900  0.00  0.00     0.266 A 
ATOM      3  C   UNL d   1      44.416  25.615  57.236  0.00  0.00     0.082 A 
ATOM      4  C   UNL d   1      44.595  26.168  56.650  0.00  0.00     0.108 A 
ATOM      5  C   UNL d   1      44.743  25.752  55.951  0.00  0.00     0.102 A 
ATOM      6  O   UNL d   1      44.314  24.147  57.285  0.00  0.00    -0.267 OA
ENDROOT
BRANCH   1   7
ATOM      7  C   UNL d   1      44.754  24.343  55.558  0.00  0.00     0.067 A 
ATOM      8  C   UNL d   1      44.358  24.372  54.832  0.00  0.00     0.020 A 
ATOM      9  C   UNL d   1      44.456  23.762  54.286  0.00  0.00     0.026 A 
ATOM     10  C   UNL d   1      44.946  23.124  54.463  0.00  0.00     0.094 A 
ATOM     11  C   UNL d   1      45.341  23.090  55.184  0.00  0.00     0.026 A 
ATOM     12  C   UNL d   1      45.243  23.706  55.735  0.00  0.00     0.020 A 
BRANCH  10  13
ATOM     13  O   UNL d   1      45.038  22.517  53.912  0.00  0.00    -0.328 OA
ATOM     14  C   UNL d   1      44.383  22.072  53.687  0.00  0.00     0.181 C 
ENDBRANCH  10  13
ENDBRANCH   1   7
BRANCH   4  15
ATOM     15  N   UNL d   1      44.621  26.989  56.750  0.00  0.00    -0.189 NA
ATOM     16  C   UNL d   1      45.304  27.341  57.038  0.00  0.00     0.369 C 
ATOM     17  N   UNL d   1      45.334  28.161  57.140  0.00  0.00    -0.189 NA
ATOM     18  O   UNL d   1      45.961  26.884  57.227  0.00  0.00    -0.242 OA
BRANCH  17  19
ATOM     19  C   UNL d   1      44.681  28.611  56.952  0.00  0.00     0.104 C 
BRANCH  19  20
ATOM     20  C   UNL d   1      44.705  29.433  57.029  0.00  0.00     0.019 C 
ATOM     21  C   UNL d   1      44.686  29.786  57.771  0.00  0.00     0.002 C 
ATOM     22  C   UNL d   1      44.749  29.910  56.353  0.00  0.00     0.002 C 
ENDBRANCH  19  20
ENDBRANCH  17  19
ENDBRANCH   4  15
TORSDOF 5
ENDMDL
