MODEL 1
REMARK VINA RESULT:      62.7      0.000      0.000
REMARK  4 active torsions:
REMARK  status: ('A' for Active; 'I' for Inactive)
REMARK    1  A    between atoms: C_15  and  O_20 
REMARK    2  A    between atoms: C_16  and  O_21 
REMARK    3  A    between atoms: O_20  and  C_18 
REMARK    4  A    between atoms: O_21  and  C_19 
ROOT
ATOM      1  C   UNL d   1      57.464  49.687  51.835  0.00  0.00     0.161 A 
ATOM      2  O   UNL d   1      56.724  49.680  51.662  0.00  0.00    -0.291 OA
ATOM      3  C   UNL d   1      57.166  49.692  52.608  0.00  0.00     0.033 A 
ATOM      4  C   UNL d   1      58.279  49.692  51.711  0.00  0.00     0.033 A 
ATOM      5  C   UNL d   1      57.886  49.684  51.094  0.00  0.00     0.016 A 
ATOM      6  C   UNL d   1      56.667  49.674  51.029  0.00  0.00     0.296 A 
ATOM      7  C   UNL d   1      57.688  49.702  53.255  0.00  0.00     0.101 A 
ATOM      8  C   UNL d   1      58.801  49.702  52.357  0.00  0.00     0.101 A 
ATOM      9  O   UNL d   1      58.507  49.707  53.128  0.00  0.00    -0.307 OA
ATOM     10  C   UNL d   1      57.263  49.675  50.695  0.00  0.00     0.062 A 
ATOM     11  C   UNL d   1      59.619  49.707  52.231  0.00  0.00     0.049 A 
ATOM     12  C   UNL d   1      57.397  49.707  54.023  0.00  0.00     0.049 A 
ATOM     13  C   UNL d   1      56.354  49.687  52.731  0.00  0.00     0.003 A 
ATOM     14  C   UNL d   1      58.576  49.688  50.938  0.00  0.00     0.003 A 
ATOM     15  O   UNL d   1      56.033  49.667  50.781  0.00  0.00    -0.259 OA
ATOM     16  C   UNL d   1      59.917  49.703  51.458  0.00  0.00     0.105 A 
ATOM     17  C   UNL d   1      56.578  49.701  54.150  0.00  0.00     0.105 A 
ATOM     18  C   UNL d   1      56.056  49.692  53.504  0.00  0.00     0.025 A 
ATOM     19  C   UNL d   1      59.395  49.693  50.811  0.00  0.00     0.025 A 
ATOM     20  C   UNL d   1      58.609  49.686  50.743  0.00  0.00    -0.001 A 
ATOM     21  C   UNL d   1      57.254  49.668  49.890  0.00  0.00     0.005 A 
ATOM     22  C   UNL d   1      58.653  49.679  49.937  0.00  0.00    -0.000 A 
ATOM     23  C   UNL d   1      57.971  49.670  49.514  0.00  0.00     0.000 A 
ENDROOT
BRANCH  17  24
ATOM     24  O   UNL d   1      56.394  49.705  54.677  0.00  0.00    -0.273 OA
BRANCH  24  25
ATOM     25  C   UNL d   1      56.423  49.236  55.103  0.00  0.00     0.300 C 
ATOM     26  O   UNL d   1      56.080  48.823  54.905  0.00  0.00    -0.259 OA
ATOM     27  C   UNL d   1      56.796  49.222  55.694  0.00  0.00     0.074 C 
ENDBRANCH  24  25
ENDBRANCH  17  24
BRANCH  16  28
ATOM     28  O   UNL d   1      60.479  49.706  51.382  0.00  0.00    -0.273 OA
BRANCH  28  29
ATOM     29  C   UNL d   1      60.955  49.476  51.509  0.00  0.00     0.300 C 
ATOM     30  O   UNL d   1      61.078  49.702  52.083  0.00  0.00    -0.259 OA
ATOM     31  C   UNL d   1      61.305  49.073  51.159  0.00  0.00     0.074 C 
ENDBRANCH  28  29
ENDBRANCH  16  28
TORSDOF 4
ENDMDL
