MODEL 1
REMARK VINA RESULT:      -6.8      0.000      0.000
REMARK  5 active torsions:
REMARK  status: ('A' for Active; 'I' for Inactive)
REMARK    1  A    between atoms: C_7  and  N_1 
REMARK    2  A    between atoms: C_8  and  N_6 
REMARK    3  A    between atoms: C_15  and  C_7 
REMARK    4  A    between atoms: N_9  and  C_15 
REMARK    5  A    between atoms: O_20  and  C_14 
ROOT
ATOM      1  N   UNL d   1     -48.821  14.223  23.027  0.00  0.00    -0.300 N 
ATOM      2  N   UNL d   1     -47.376  13.447  23.206  0.00  0.00    -0.299 N 
ATOM      3  C   UNL d   1     -48.152  14.493  22.622  0.00  0.00     0.100 A 
ATOM      4  C   UNL d   1     -48.766  13.566  23.522  0.00  0.00     0.100 A 
ATOM      5  C   UNL d   1     -47.430  14.105  22.711  0.00  0.00     0.100 A 
ATOM      6  C   UNL d   1     -48.044  13.178  23.612  0.00  0.00     0.100 A 
ENDROOT
BRANCH   2   7
ATOM      7  C   UNL d   1     -46.653  13.059  23.296  0.00  0.00     0.100 C 
BRANCH   7   8
ATOM      8  C   UNL d   1     -46.427  12.475  22.756  0.00  0.00     0.105 C 
BRANCH   8   9
ATOM      9  N   UNL d   1     -45.781  11.981  22.917  0.00  0.00    -0.239 N 
ATOM     10  C   UNL d   1     -44.998  12.111  22.698  0.00  0.00     0.267 A 
ATOM     11  C   UNL d   1     -44.547  11.474  22.975  0.00  0.00     0.061 A 
ATOM     12  O   UNL d   1     -44.715  12.761  22.278  0.00  0.00    -0.267 OA
ATOM     13  C   UNL d   1     -43.744  11.311  22.919  0.00  0.00     0.005 A 
ATOM     14  C   UNL d   1     -45.052  10.951  23.365  0.00  0.00     0.061 A 
ATOM     15  C   UNL d   1     -43.443  10.619  23.255  0.00  0.00     0.000 A 
ATOM     16  C   UNL d   1     -43.956  10.093  23.648  0.00  0.00     0.000 A 
ATOM     17  C   UNL d   1     -44.754  10.265  23.698  0.00  0.00     0.005 A 
ATOM     18  C   UNL d   1     -45.815  11.260  23.331  0.00  0.00     0.267 A 
ATOM     19  O   UNL d   1     -46.495  10.913  23.653  0.00  0.00    -0.267 OA
ENDBRANCH   8   9
ENDBRANCH   7   8
ENDBRANCH   2   7
BRANCH   1  20
ATOM     20  C   UNL d   1     -49.545  14.614  22.936  0.00  0.00     0.086 A 
ATOM     21  C   UNL d   1     -50.076  14.368  22.352  0.00  0.00     0.110 A 
ATOM     22  C   UNL d   1     -50.803  14.762  22.261  0.00  0.00     0.026 A 
ATOM     23  C   UNL d   1     -50.995  15.396  22.752  0.00  0.00     0.002 A 
ATOM     24  C   UNL d   1     -50.464  15.643  23.336  0.00  0.00     0.002 A 
ATOM     25  C   UNL d   1     -49.742  15.255  23.429  0.00  0.00     0.019 A 
BRANCH  21  26
ATOM     26  O   UNL d   1     -49.899  13.736  21.854  0.00  0.00    -0.327 OA
ATOM     27  C   UNL d   1     -50.474  13.407  21.359  0.00  0.00     0.181 C 
ENDBRANCH  21  26
ENDBRANCH   1  20
TORSDOF 5
ENDMDL
