MODEL 1
REMARK VINA RESULT:      -8.3      0.000      0.000
REMARK  6 active torsions:
REMARK  status: ('A' for Active; 'I' for Inactive)
REMARK       I    between atoms: C_3  and  N_1 
REMARK    1  A    between atoms: C_4  and  N_1 
REMARK    2  A    between atoms: S_2  and  C_12 
REMARK    3  A    between atoms: C_6  and  C_3 
REMARK    4  A    between atoms: N_5  and  C_6 
REMARK       I    between atoms: C_7  and  N_5 
REMARK    5  A    between atoms: C_8  and  C_6 
REMARK    6  A    between atoms: C_12  and  C_8 
ROOT
ATOM      1  N   UNL d   1      52.284  33.254  53.733  0.00  0.00    -0.207 NA
ATOM      2  C   UNL d   1      52.834  32.787  53.334  0.00  0.00     0.297 C 
ATOM      3  O   UNL d   1      52.810  32.741  52.505  0.00  0.00    -0.264 OA
ENDROOT
BRANCH   2   4
ATOM      4  C   UNL d   1      53.411  32.366  53.758  0.00  0.00     0.143 C 
BRANCH   4   5
ATOM      5  N   UNL d   1      53.812  32.732  54.380  0.00  0.00    -0.203 NA
ATOM      6  C   UNL d   1      54.598  32.961  54.286  0.00  0.00     0.280 C 
ATOM      7  O   UNL d   1      54.983  32.824  53.569  0.00  0.00    -0.265 OA
ATOM      8  C   UNL d   1      55.000  33.328  54.908  0.00  0.00     0.068 C 
ENDBRANCH   4   5
BRANCH   4   9
ATOM      9  C   UNL d   1      53.581  31.584  53.560  0.00  0.00     0.036 C 
BRANCH   9  10
ATOM     10  C   UNL d   1      53.288  30.969  54.025  0.00  0.00     0.096 C 
BRANCH  10  11
ATOM     11  S   UNL d   1      53.357  30.190  53.766  0.00  0.00     0.192 S 
ATOM     12  O   UNL d   1      53.335  30.133  54.595  0.00  0.00    -0.222 OA
ATOM     13  O   UNL d   1      53.424  29.360  53.719  0.00  0.00    -0.222 OA
ATOM     14  C   UNL d   1      53.396  30.028  52.959  0.00  0.00     0.145 C 
ENDBRANCH  10  11
ENDBRANCH   9  10
ENDBRANCH   4   9
ENDBRANCH   2   4
BRANCH   1  15
ATOM     15  C   UNL d   1      51.700  33.680  53.296  0.00  0.00     0.085 A 
ATOM     16  C   UNL d   1      51.877  34.423  53.014  0.00  0.00     0.018 A 
ATOM     17  C   UNL d   1      51.294  34.835  52.585  0.00  0.00     0.002 A 
ATOM     18  C   UNL d   1      52.606  34.771  53.142  0.00  0.00     0.002 C 
ATOM     19  C   UNL d   1      50.550  34.503  52.444  0.00  0.00     0.000 A 
ATOM     20  C   UNL d   1      50.389  33.744  52.740  0.00  0.00     0.002 A 
ATOM     21  C   UNL d   1      50.969  33.321  53.174  0.00  0.00     0.018 A 
ATOM     22  C   UNL d   1      50.791  32.575  53.457  0.00  0.00     0.002 C 
ENDBRANCH   1  15
TORSDOF 6
ENDMDL
MODEL 2
REMARK VINA RESULT:      -8.1      1.227      2.206
REMARK  6 active torsions:
REMARK  status: ('A' for Active; 'I' for Inactive)
REMARK       I    between atoms: C_3  and  N_1 
REMARK    1  A    between atoms: C_4  and  N_1 
REMARK    2  A    between atoms: S_2  and  C_12 
REMARK    3  A    between atoms: C_6  and  C_3 
REMARK    4  A    between atoms: N_5  and  C_6 
REMARK       I    between atoms: C_7  and  N_5 
REMARK    5  A    between atoms: C_8  and  C_6 
REMARK    6  A    between atoms: C_12  and  C_8 
ROOT
ATOM      1  N   UNL d   1      52.284  33.259  53.718  0.00  0.00    -0.207 NA
ATOM      2  C   UNL d   1      52.875  32.804  53.366  0.00  0.00     0.297 C 
ATOM      3  O   UNL d   1      52.898  32.727  52.540  0.00  0.00    -0.264 OA
ENDROOT
BRANCH   2   4
ATOM      4  C   UNL d   1      53.445  32.424  53.837  0.00  0.00     0.143 C 
BRANCH   4   5
ATOM      5  N   UNL d   1      53.327  31.641  54.073  0.00  0.00    -0.203 NA
ATOM      6  C   UNL d   1      53.649  31.024  53.633  0.00  0.00     0.280 C 
ATOM      7  O   UNL d   1      54.088  31.188  52.955  0.00  0.00    -0.265 OA
ATOM      8  C   UNL d   1      53.530  30.241  53.870  0.00  0.00     0.068 C 
ENDBRANCH   4   5
BRANCH   4   9
ATOM      9  C   UNL d   1      54.127  32.826  54.066  0.00  0.00     0.036 C 
BRANCH   9  10
ATOM     10  C   UNL d   1      54.288  32.938  54.867  0.00  0.00     0.096 C 
BRANCH  10  11
ATOM     11  S   UNL d   1      54.893  33.447  55.097  0.00  0.00     0.192 S 
ATOM     12  O   UNL d   1      54.464  33.304  55.795  0.00  0.00    -0.222 OA
ATOM     13  O   UNL d   1      55.411  33.941  55.527  0.00  0.00    -0.222 OA
ATOM     14  C   UNL d   1      55.439  33.712  54.541  0.00  0.00     0.145 C 
ENDBRANCH  10  11
ENDBRANCH   9  10
ENDBRANCH   4   9
ENDBRANCH   2   4
BRANCH   1  15
ATOM     15  C   UNL d   1      51.707  33.642  53.235  0.00  0.00     0.085 A 
ATOM     16  C   UNL d   1      51.885  34.362  52.898  0.00  0.00     0.018 A 
ATOM     17  C   UNL d   1      51.308  34.731  52.423  0.00  0.00     0.002 A 
ATOM     18  C   UNL d   1      52.608  34.726  53.012  0.00  0.00     0.002 C 
ATOM     19  C   UNL d   1      50.570  34.381  52.293  0.00  0.00     0.000 A 
ATOM     20  C   UNL d   1      50.408  33.648  52.646  0.00  0.00     0.002 A 
ATOM     21  C   UNL d   1      50.983  33.267  53.126  0.00  0.00     0.018 A 
ATOM     22  C   UNL d   1      50.804  32.545  53.465  0.00  0.00     0.002 C 
ENDBRANCH   1  15
TORSDOF 6
ENDMDL
MODEL 3
REMARK VINA RESULT:      -7.7      1.686      3.634
REMARK  6 active torsions:
REMARK  status: ('A' for Active; 'I' for Inactive)
REMARK       I    between atoms: C_3  and  N_1 
REMARK    1  A    between atoms: C_4  and  N_1 
REMARK    2  A    between atoms: S_2  and  C_12 
REMARK    3  A    between atoms: C_6  and  C_3 
REMARK    4  A    between atoms: N_5  and  C_6 
REMARK       I    between atoms: C_7  and  N_5 
REMARK    5  A    between atoms: C_8  and  C_6 
REMARK    6  A    between atoms: C_12  and  C_8 
ROOT
ATOM      1  N   UNL d   1      53.079  33.273  54.397  0.00  0.00    -0.207 NA
ATOM      2  C   UNL d   1      53.083  33.054  53.602  0.00  0.00     0.297 C 
ATOM      3  O   UNL d   1      53.770  33.162  53.149  0.00  0.00    -0.264 OA
ENDROOT
BRANCH   2   4
ATOM      4  C   UNL d   1      52.403  32.725  53.256  0.00  0.00     0.143 C 
BRANCH   4   5
ATOM      5  N   UNL d   1      52.216  31.932  53.390  0.00  0.00    -0.203 NA
ATOM      6  C   UNL d   1      52.471  31.353  52.862  0.00  0.00     0.280 C 
ATOM      7  O   UNL d   1      52.913  31.567  52.199  0.00  0.00    -0.265 OA
ATOM      8  C   UNL d   1      52.285  30.559  52.996  0.00  0.00     0.068 C 
ENDBRANCH   4   5
BRANCH   4   9
ATOM      9  C   UNL d   1      51.916  33.189  52.780  0.00  0.00     0.036 C 
BRANCH   9  10
ATOM     10  C   UNL d   1      51.140  33.343  53.013  0.00  0.00     0.096 C 
BRANCH  10  11
ATOM     11  S   UNL d   1      50.682  33.881  52.589  0.00  0.00     0.192 S 
ATOM     12  O   UNL d   1      50.261  33.762  53.296  0.00  0.00    -0.222 OA
ATOM     13  O   UNL d   1      50.091  34.412  52.336  0.00  0.00    -0.222 OA
ATOM     14  C   UNL d   1      50.932  34.134  51.845  0.00  0.00     0.145 C 
ENDBRANCH  10  11
ENDBRANCH   9  10
ENDBRANCH   4   9
ENDBRANCH   2   4
BRANCH   1  15
ATOM     15  C   UNL d   1      53.773  33.607  54.743  0.00  0.00     0.085 A 
ATOM     16  C   UNL d   1      53.907  34.407  54.675  0.00  0.00     0.018 A 
ATOM     17  C   UNL d   1      54.595  34.725  55.021  0.00  0.00     0.002 A 
ATOM     18  C   UNL d   1      53.388  34.900  54.280  0.00  0.00     0.002 C 
ATOM     19  C   UNL d   1      55.134  34.245  55.425  0.00  0.00     0.000 A 
ATOM     20  C   UNL d   1      54.979  33.432  55.484  0.00  0.00     0.002 A 
ATOM     21  C   UNL d   1      54.289  33.102  55.139  0.00  0.00     0.018 A 
ATOM     22  C   UNL d   1      54.154  32.298  55.207  0.00  0.00     0.002 C 
ENDBRANCH   1  15
TORSDOF 6
ENDMDL
MODEL 4
REMARK VINA RESULT:      -7.6      1.855      3.714
REMARK  6 active torsions:
REMARK  status: ('A' for Active; 'I' for Inactive)
REMARK       I    between atoms: C_3  and  N_1 
REMARK    1  A    between atoms: C_4  and  N_1 
REMARK    2  A    between atoms: S_2  and  C_12 
REMARK    3  A    between atoms: C_6  and  C_3 
REMARK    4  A    between atoms: N_5  and  C_6 
REMARK       I    between atoms: C_7  and  N_5 
REMARK    5  A    between atoms: C_8  and  C_6 
REMARK    6  A    between atoms: C_12  and  C_8 
ROOT
ATOM      1  N   UNL d   1      52.537  32.516  53.676  0.00  0.00    -0.207 NA
ATOM      2  C   UNL d   1      52.574  33.104  53.099  0.00  0.00     0.297 C 
ATOM      3  O   UNL d   1      52.998  32.967  52.399  0.00  0.00    -0.264 OA
ENDROOT
BRANCH   2   4
ATOM      4  C   UNL d   1      52.188  33.831  53.218  0.00  0.00     0.143 C 
BRANCH   4   5
ATOM      5  N   UNL d   1      52.385  34.298  53.870  0.00  0.00    -0.203 NA
ATOM      6  C   UNL d   1      52.841  34.977  53.769  0.00  0.00     0.280 C 
ATOM      7  O   UNL d   1      53.100  35.189  53.016  0.00  0.00    -0.265 OA
ATOM      8  C   UNL d   1      53.037  35.444  54.421  0.00  0.00     0.068 C 
ENDBRANCH   4   5
BRANCH   4   9
ATOM      9  C   UNL d   1      51.612  34.084  52.687  0.00  0.00     0.036 C 
BRANCH   9  10
ATOM     10  C   UNL d   1      50.822  34.115  52.922  0.00  0.00     0.096 C 
BRANCH  10  11
ATOM     11  S   UNL d   1      50.238  34.312  52.375  0.00  0.00     0.192 S 
ATOM     12  O   UNL d   1      49.889  34.460  53.115  0.00  0.00    -0.222 OA
ATOM     13  O   UNL d   1      49.533  34.559  52.002  0.00  0.00    -0.222 OA
ATOM     14  C   UNL d   1      50.389  34.236  51.568  0.00  0.00     0.145 C 
ENDBRANCH  10  11
ENDBRANCH   9  10
ENDBRANCH   4   9
ENDBRANCH   2   4
BRANCH   1  15
ATOM     15  C   UNL d   1      52.931  31.780  53.550  0.00  0.00     0.085 A 
ATOM     16  C   UNL d   1      53.701  31.692  53.801  0.00  0.00     0.018 A 
ATOM     17  C   UNL d   1      54.079  30.961  53.671  0.00  0.00     0.002 A 
ATOM     18  C   UNL d   1      54.106  32.297  54.173  0.00  0.00     0.002 C 
ATOM     19  C   UNL d   1      53.689  30.335  53.297  0.00  0.00     0.000 A 
ATOM     20  C   UNL d   1      52.905  30.445  53.048  0.00  0.00     0.002 A 
ATOM     21  C   UNL d   1      52.515  31.178  53.174  0.00  0.00     0.018 A 
ATOM     22  C   UNL d   1      51.742  31.266  52.922  0.00  0.00     0.002 C 
ENDBRANCH   1  15
TORSDOF 6
ENDMDL
MODEL 5
REMARK VINA RESULT:      -7.6      1.846      3.921
REMARK  6 active torsions:
REMARK  status: ('A' for Active; 'I' for Inactive)
REMARK       I    between atoms: C_3  and  N_1 
REMARK    1  A    between atoms: C_4  and  N_1 
REMARK    2  A    between atoms: S_2  and  C_12 
REMARK    3  A    between atoms: C_6  and  C_3 
REMARK    4  A    between atoms: N_5  and  C_6 
REMARK       I    between atoms: C_7  and  N_5 
REMARK    5  A    between atoms: C_8  and  C_6 
REMARK    6  A    between atoms: C_12  and  C_8 
ROOT
ATOM      1  N   UNL d   1      52.581  32.370  53.686  0.00  0.00    -0.207 NA
ATOM      2  C   UNL d   1      52.511  32.941  53.094  0.00  0.00     0.297 C 
ATOM      3  O   UNL d   1      52.782  32.774  52.328  0.00  0.00    -0.264 OA
ENDROOT
BRANCH   2   4
ATOM      4  C   UNL d   1      52.170  33.679  53.265  0.00  0.00     0.143 C 
BRANCH   4   5
ATOM      5  N   UNL d   1      51.348  33.762  53.265  0.00  0.00    -0.203 NA
ATOM      6  C   UNL d   1      50.964  34.073  52.606  0.00  0.00     0.280 C 
ATOM      7  O   UNL d   1      51.402  34.301  51.945  0.00  0.00    -0.265 OA
ATOM      8  C   UNL d   1      50.142  34.156  52.607  0.00  0.00     0.068 C 
ENDBRANCH   4   5
BRANCH   4   9
ATOM      9  C   UNL d   1      52.651  34.327  53.433  0.00  0.00     0.036 C 
BRANCH   9  10
ATOM     10  C   UNL d   1      52.615  34.683  54.176  0.00  0.00     0.096 C 
BRANCH  10  11
ATOM     11  S   UNL d   1      53.106  35.322  54.349  0.00  0.00     0.192 S 
ATOM     12  O   UNL d   1      52.833  35.062  55.090  0.00  0.00    -0.222 OA
ATOM     13  O   UNL d   1      53.546  35.920  54.730  0.00  0.00    -0.222 OA
ATOM     14  C   UNL d   1      53.482  35.727  53.738  0.00  0.00     0.145 C 
ENDBRANCH  10  11
ENDBRANCH   9  10
ENDBRANCH   4   9
ENDBRANCH   2   4
BRANCH   1  15
ATOM     15  C   UNL d   1      52.928  31.621  53.507  0.00  0.00     0.085 A 
ATOM     16  C   UNL d   1      53.737  31.537  53.548  0.00  0.00     0.018 A 
ATOM     17  C   UNL d   1      54.068  30.794  53.369  0.00  0.00     0.002 A 
ATOM     18  C   UNL d   1      54.226  32.158  53.757  0.00  0.00     0.002 C 
ATOM     19  C   UNL d   1      53.593  30.152  53.155  0.00  0.00     0.000 A 
ATOM     20  C   UNL d   1      52.771  30.258  53.119  0.00  0.00     0.002 A 
ATOM     21  C   UNL d   1      52.427  31.003  53.297  0.00  0.00     0.018 A 
ATOM     22  C   UNL d   1      51.615  31.087  53.256  0.00  0.00     0.002 C 
ENDBRANCH   1  15
TORSDOF 6
ENDMDL
MODEL 6
REMARK VINA RESULT:      -7.1      1.700      3.610
REMARK  6 active torsions:
REMARK  status: ('A' for Active; 'I' for Inactive)
REMARK       I    between atoms: C_3  and  N_1 
REMARK    1  A    between atoms: C_4  and  N_1 
REMARK    2  A    between atoms: S_2  and  C_12 
REMARK    3  A    between atoms: C_6  and  C_3 
REMARK    4  A    between atoms: N_5  and  C_6 
REMARK       I    between atoms: C_7  and  N_5 
REMARK    5  A    between atoms: C_8  and  C_6 
REMARK    6  A    between atoms: C_12  and  C_8 
ROOT
ATOM      1  N   UNL d   1      53.038  31.529  54.087  0.00  0.00    -0.207 NA
ATOM      2  C   UNL d   1      53.655  32.043  53.900  0.00  0.00     0.297 C 
ATOM      3  O   UNL d   1      54.319  31.757  53.492  0.00  0.00    -0.264 OA
ENDROOT
BRANCH   2   4
ATOM      4  C   UNL d   1      53.612  32.843  54.118  0.00  0.00     0.143 C 
BRANCH   4   5
ATOM      5  N   UNL d   1      53.933  33.090  54.838  0.00  0.00    -0.203 NA
ATOM      6  C   UNL d   1      54.706  33.374  54.870  0.00  0.00     0.280 C 
ATOM      7  O   UNL d   1      55.159  33.412  54.182  0.00  0.00    -0.265 OA
ATOM      8  C   UNL d   1      55.027  33.621  55.590  0.00  0.00     0.068 C 
ENDBRANCH   4   5
BRANCH   4   9
ATOM      9  C   UNL d   1      53.251  33.390  53.618  0.00  0.00     0.036 C 
BRANCH   9  10
ATOM     10  C   UNL d   1      52.610  33.833  53.888  0.00  0.00     0.096 C 
BRANCH  10  11
ATOM     11  S   UNL d   1      52.196  34.316  53.365  0.00  0.00     0.192 S 
ATOM     12  O   UNL d   1      51.616  34.028  53.888  0.00  0.00    -0.222 OA
ATOM     13  O   UNL d   1      51.605  34.743  52.959  0.00  0.00    -0.222 OA
ATOM     14  C   UNL d   1      52.597  34.703  52.759  0.00  0.00     0.145 C 
ENDBRANCH  10  11
ENDBRANCH   9  10
ENDBRANCH   4   9
ENDBRANCH   2   4
BRANCH   1  15
ATOM     15  C   UNL d   1      53.087  30.716  53.863  0.00  0.00     0.085 A 
ATOM     16  C   UNL d   1      52.926  30.505  53.093  0.00  0.00     0.018 A 
ATOM     17  C   UNL d   1      52.978  29.700  52.883  0.00  0.00     0.002 A 
ATOM     18  C   UNL d   1      52.718  31.058  52.528  0.00  0.00     0.002 C 
ATOM     19  C   UNL d   1      53.187  29.124  53.438  0.00  0.00     0.000 A 
ATOM     20  C   UNL d   1      53.347  29.359  54.217  0.00  0.00     0.002 A 
ATOM     21  C   UNL d   1      53.298  30.167  54.439  0.00  0.00     0.018 A 
ATOM     22  C   UNL d   1      53.460  30.379  55.212  0.00  0.00     0.002 C 
ENDBRANCH   1  15
TORSDOF 6
ENDMDL
MODEL 7
REMARK VINA RESULT:      -7.0      1.146      3.163
REMARK  6 active torsions:
REMARK  status: ('A' for Active; 'I' for Inactive)
REMARK       I    between atoms: C_3  and  N_1 
REMARK    1  A    between atoms: C_4  and  N_1 
REMARK    2  A    between atoms: S_2  and  C_12 
REMARK    3  A    between atoms: C_6  and  C_3 
REMARK    4  A    between atoms: N_5  and  C_6 
REMARK       I    between atoms: C_7  and  N_5 
REMARK    5  A    between atoms: C_8  and  C_6 
REMARK    6  A    between atoms: C_12  and  C_8 
ROOT
ATOM      1  N   UNL d   1      53.897  32.610  54.003  0.00  0.00    -0.207 NA
ATOM      2  C   UNL d   1      53.340  32.976  53.517  0.00  0.00     0.297 C 
ATOM      3  O   UNL d   1      53.375  33.797  53.396  0.00  0.00    -0.264 OA
ENDROOT
BRANCH   2   4
ATOM      4  C   UNL d   1      52.745  32.526  53.151  0.00  0.00     0.143 C 
BRANCH   4   5
ATOM      5  N   UNL d   1      52.252  32.876  52.588  0.00  0.00    -0.203 NA
ATOM      6  C   UNL d   1      51.551  33.239  52.823  0.00  0.00     0.280 C 
ATOM      7  O   UNL d   1      51.342  33.252  53.621  0.00  0.00    -0.265 OA
ATOM      8  C   UNL d   1      51.057  33.590  52.261  0.00  0.00     0.068 C 
ENDBRANCH   4   5
BRANCH   4   9
ATOM      9  C   UNL d   1      52.648  31.731  53.347  0.00  0.00     0.036 C 
BRANCH   9  10
ATOM     10  C   UNL d   1      52.707  31.153  52.762  0.00  0.00     0.096 C 
BRANCH  10  11
ATOM     11  S   UNL d   1      52.677  30.356  52.968  0.00  0.00     0.192 S 
ATOM     12  O   UNL d   1      52.991  30.360  52.199  0.00  0.00    -0.222 OA
ATOM     13  O   UNL d   1      52.730  29.523  52.976  0.00  0.00    -0.222 OA
ATOM     14  C   UNL d   1      52.389  30.134  53.708  0.00  0.00     0.145 C 
ENDBRANCH  10  11
ENDBRANCH   9  10
ENDBRANCH   4   9
ENDBRANCH   2   4
BRANCH   1  15
ATOM     15  C   UNL d   1      54.499  33.073  54.373  0.00  0.00     0.085 A 
ATOM     16  C   UNL d   1      55.155  33.291  53.943  0.00  0.00     0.018 A 
ATOM     17  C   UNL d   1      55.742  33.748  54.318  0.00  0.00     0.002 A 
ATOM     18  C   UNL d   1      55.249  33.075  53.160  0.00  0.00     0.002 C 
ATOM     19  C   UNL d   1      55.668  33.978  55.108  0.00  0.00     0.000 A 
ATOM     20  C   UNL d   1      54.991  33.746  55.530  0.00  0.00     0.002 A 
ATOM     21  C   UNL d   1      54.394  33.286  55.161  0.00  0.00     0.018 A 
ATOM     22  C   UNL d   1      53.735  33.067  55.593  0.00  0.00     0.002 C 
ENDBRANCH   1  15
TORSDOF 6
ENDMDL
