MODEL 1
REMARK VINA RESULT:       6.3      0.000      0.000
REMARK  2 active torsions:
REMARK  status: ('A' for Active; 'I' for Inactive)
REMARK       I    between atoms: N_2  and  C_1 
REMARK    1  A    between atoms: C_4  and  N_2 
REMARK    2  A    between atoms: O_8  and  C_7 
ROOT
ATOM      1  C   UNL d   1     -51.488  24.379  33.340  0.00  0.00     0.102 A 
ATOM      2  C   UNL d   1     -51.778  25.152  33.311  0.00  0.00     0.044 A 
ATOM      3  C   UNL d   1     -51.256  25.791  33.336  0.00  0.00     0.096 A 
ATOM      4  C   UNL d   1     -50.154  24.882  33.417  0.00  0.00     0.004 A 
ATOM      5  C   UNL d   1     -50.676  24.243  33.392  0.00  0.00     0.020 A 
ATOM      6  C   UNL d   1     -50.443  25.655  33.389  0.00  0.00     0.024 A 
ENDROOT
BRANCH   1   7
ATOM      7  N   UNL d   1     -52.009  23.736  33.315  0.00  0.00    -0.056 NA
ATOM      8  C   UNL d   1     -52.828  23.859  33.344  0.00  0.00     0.787 C 
ATOM      9  N   UNL d   1     -53.350  23.221  33.320  0.00  0.00     0.064 N 
ATOM     10  N   UNL d   1     -53.119  24.631  33.397  0.00  0.00     0.064 N 
ENDBRANCH   1   7
BRANCH   3  11
ATOM     11  O   UNL d   1     -51.545  26.564  33.308  0.00  0.00    -0.328 OA
ATOM     12  C   UNL d   1     -51.023  27.202  33.329  0.00  0.00     0.181 C 
ENDBRANCH   3  11
TORSDOF 2
ENDMDL
