MODEL 1
REMARK VINA RESULT:      -3.8      0.000      0.000
REMARK  6 active torsions:
REMARK  status: ('A' for Active; 'I' for Inactive)
REMARK    1  A    between atoms: N_2  and  C_1 
REMARK       I    between atoms: C_4  and  N_2 
REMARK    2  A    between atoms: C_6  and  C_4 
REMARK    3  A    between atoms: C_9  and  C_6 
REMARK    4  A    between atoms: C_8  and  O_15 
REMARK    5  A    between atoms: O_15  and  C_9 
REMARK    6  A    between atoms: O_17  and  C_10 
ROOT
ATOM      1  C   UNL d   1      57.788  -0.011  31.046  0.00  0.00     0.128 C 
ENDROOT
BRANCH   1   2
ATOM      2  C   UNL d   1      57.980  -0.044  30.238  0.00  0.00     0.089 C 
BRANCH   2   3
ATOM      3  C   UNL d   1      58.766   0.035  30.001  0.00  0.00     0.283 C 
ATOM      4  N   UNL d   1      59.024  -0.351  29.320  0.00  0.00    -0.183 NA
ATOM      5  O   UNL d   1      59.288   0.496  30.442  0.00  0.00    -0.265 OA
BRANCH   4   6
ATOM      6  C   UNL d   1      59.815  -0.271  29.083  0.00  0.00     0.197 A 
ATOM      7  N   UNL d   1      60.455  -0.704  29.362  0.00  0.00    -0.219 NA
ATOM      8  C   UNL d   1      61.128  -0.441  28.977  0.00  0.00     0.108 A 
ATOM      9  C   UNL d   1      60.902   0.159  28.455  0.00  0.00     0.059 A 
ATOM     10  S   UNL d   1      60.090   0.266  28.519  0.00  0.00    -0.046 SA
ENDBRANCH   4   6
ENDBRANCH   2   3
ENDBRANCH   1   2
BRANCH   1  11
ATOM     11  O   UNL d   1      56.989  -0.209  31.081  0.00  0.00    -0.305 OA
BRANCH  11  12
ATOM     12  C   UNL d   1      56.600  -0.210  31.807  0.00  0.00     0.100 A 
ATOM     13  C   UNL d   1      56.358   0.504  32.147  0.00  0.00     0.027 A 
ATOM     14  C   UNL d   1      55.969   0.503  32.873  0.00  0.00     0.026 A 
ATOM     15  C   UNL d   1      55.820  -0.210  33.261  0.00  0.00     0.094 A 
ATOM     16  C   UNL d   1      56.060  -0.921  32.924  0.00  0.00     0.026 A 
ATOM     17  C   UNL d   1      56.451  -0.923  32.195  0.00  0.00     0.027 A 
BRANCH  15  18
ATOM     18  O   UNL d   1      55.427  -0.206  33.993  0.00  0.00    -0.328 OA
ATOM     19  C   UNL d   1      54.924   0.415  34.190  0.00  0.00     0.181 C 
ENDBRANCH  15  18
ENDBRANCH  11  12
ENDBRANCH   1  11
TORSDOF 6
ENDMDL
MODEL 2
REMARK VINA RESULT:      -3.6      2.389      5.299
REMARK  6 active torsions:
REMARK  status: ('A' for Active; 'I' for Inactive)
REMARK    1  A    between atoms: N_2  and  C_1 
REMARK       I    between atoms: C_4  and  N_2 
REMARK    2  A    between atoms: C_6  and  C_4 
REMARK    3  A    between atoms: C_9  and  C_6 
REMARK    4  A    between atoms: C_8  and  O_15 
REMARK    5  A    between atoms: O_15  and  C_9 
REMARK    6  A    between atoms: O_17  and  C_10 
ROOT
ATOM      1  C   UNL d   1      57.716  -0.428  30.836  0.00  0.00     0.128 C 
ENDROOT
BRANCH   1   2
ATOM      2  C   UNL d   1      57.146   0.109  31.115  0.00  0.00     0.089 C 
BRANCH   2   3
ATOM      3  C   UNL d   1      56.767  -0.034  31.834  0.00  0.00     0.283 C 
ATOM      4  N   UNL d   1      56.396   0.589  32.226  0.00  0.00    -0.183 NA
ATOM      5  O   UNL d   1      56.760  -0.793  32.155  0.00  0.00    -0.265 OA
BRANCH   4   6
ATOM      6  C   UNL d   1      56.015   0.444  32.948  0.00  0.00     0.197 A 
ATOM      7  N   UNL d   1      55.301   0.049  33.054  0.00  0.00    -0.219 NA
ATOM      8  C   UNL d   1      55.135   0.033  33.855  0.00  0.00     0.108 A 
ATOM      9  C   UNL d   1      55.751   0.421  34.249  0.00  0.00     0.059 A 
ATOM     10  S   UNL d   1      56.296   0.675  33.690  0.00  0.00    -0.046 SA
ENDBRANCH   4   6
ENDBRANCH   2   3
ENDBRANCH   1   2
BRANCH   1  11
ATOM     11  O   UNL d   1      57.922  -0.148  30.089  0.00  0.00    -0.305 OA
BRANCH  11  12
ATOM     12  C   UNL d   1      58.580  -0.459  29.703  0.00  0.00     0.100 A 
ATOM     13  C   UNL d   1      58.539  -1.210  29.358  0.00  0.00     0.027 A 
ATOM     14  C   UNL d   1      59.197  -1.520  28.972  0.00  0.00     0.026 A 
ATOM     15  C   UNL d   1      59.896  -1.084  28.929  0.00  0.00     0.094 A 
ATOM     16  C   UNL d   1      59.937  -0.337  29.272  0.00  0.00     0.026 A 
ATOM     17  C   UNL d   1      59.279  -0.023  29.660  0.00  0.00     0.027 A 
BRANCH  15  18
ATOM     18  O   UNL d   1      60.556  -1.402  28.539  0.00  0.00    -0.328 OA
ATOM     19  C   UNL d   1      60.686  -2.215  28.537  0.00  0.00     0.181 C 
ENDBRANCH  15  18
ENDBRANCH  11  12
ENDBRANCH   1  11
TORSDOF 6
ENDMDL
MODEL 3
REMARK VINA RESULT:      -3.3      1.166      1.700
REMARK  6 active torsions:
REMARK  status: ('A' for Active; 'I' for Inactive)
REMARK    1  A    between atoms: N_2  and  C_1 
REMARK       I    between atoms: C_4  and  N_2 
REMARK    2  A    between atoms: C_6  and  C_4 
REMARK    3  A    between atoms: C_9  and  C_6 
REMARK    4  A    between atoms: C_8  and  O_15 
REMARK    5  A    between atoms: O_15  and  C_9 
REMARK    6  A    between atoms: O_17  and  C_10 
ROOT
ATOM      1  C   UNL d   1      56.556   0.093  31.782  0.00  0.00     0.128 C 
ENDROOT
BRANCH   1   2
ATOM      2  C   UNL d   1      57.111  -0.384  31.388  0.00  0.00     0.089 C 
BRANCH   2   3
ATOM      3  C   UNL d   1      57.517  -0.085  30.735  0.00  0.00     0.283 C 
ATOM      4  N   UNL d   1      58.196  -0.470  30.471  0.00  0.00    -0.183 NA
ATOM      5  O   UNL d   1      57.245   0.592  30.352  0.00  0.00    -0.265 OA
BRANCH   4   6
ATOM      6  C   UNL d   1      58.604  -0.169  29.814  0.00  0.00     0.197 A 
ATOM      7  N   UNL d   1      58.464  -0.354  29.025  0.00  0.00    -0.219 NA
ATOM      8  C   UNL d   1      58.993   0.070  28.567  0.00  0.00     0.108 A 
ATOM      9  C   UNL d   1      59.464   0.521  29.076  0.00  0.00     0.059 A 
ATOM     10  S   UNL d   1      59.225   0.375  29.848  0.00  0.00    -0.046 SA
ENDBRANCH   4   6
ENDBRANCH   2   3
ENDBRANCH   1   2
BRANCH   1  11
ATOM     11  O   UNL d   1      56.163  -0.418  32.294  0.00  0.00    -0.305 OA
BRANCH  11  12
ATOM     12  C   UNL d   1      55.898  -0.144  33.023  0.00  0.00     0.100 A 
ATOM     13  C   UNL d   1      55.178  -0.411  33.329  0.00  0.00     0.027 A 
ATOM     14  C   UNL d   1      54.913  -0.136  34.058  0.00  0.00     0.026 A 
ATOM     15  C   UNL d   1      55.365   0.406  34.485  0.00  0.00     0.094 A 
ATOM     16  C   UNL d   1      56.082   0.673  34.183  0.00  0.00     0.026 A 
ATOM     17  C   UNL d   1      56.351   0.399  33.450  0.00  0.00     0.027 A 
BRANCH  15  18
ATOM     18  O   UNL d   1      55.094   0.680  35.221  0.00  0.00    -0.328 OA
ATOM     19  C   UNL d   1      55.589   0.663  35.878  0.00  0.00     0.181 C 
ENDBRANCH  15  18
ENDBRANCH  11  12
ENDBRANCH   1  11
TORSDOF 6
ENDMDL
MODEL 4
REMARK VINA RESULT:      -1.8      2.457      5.277
REMARK  6 active torsions:
REMARK  status: ('A' for Active; 'I' for Inactive)
REMARK    1  A    between atoms: N_2  and  C_1 
REMARK       I    between atoms: C_4  and  N_2 
REMARK    2  A    between atoms: C_6  and  C_4 
REMARK    3  A    between atoms: C_9  and  C_6 
REMARK    4  A    between atoms: C_8  and  O_15 
REMARK    5  A    between atoms: O_15  and  C_9 
REMARK    6  A    between atoms: O_17  and  C_10 
ROOT
ATOM      1  C   UNL d   1      57.486  -0.173  31.282  0.00  0.00     0.128 C 
ENDROOT
BRANCH   1   2
ATOM      2  C   UNL d   1      56.679  -0.136  31.474  0.00  0.00     0.089 C 
BRANCH   2   3
ATOM      3  C   UNL d   1      56.446  -0.132  32.266  0.00  0.00     0.283 C 
ATOM      4  N   UNL d   1      56.107   0.548  32.584  0.00  0.00    -0.183 NA
ATOM      5  O   UNL d   1      56.553  -0.803  32.732  0.00  0.00    -0.265 OA
BRANCH   4   6
ATOM      6  C   UNL d   1      55.874   0.550  33.381  0.00  0.00     0.197 A 
ATOM      7  N   UNL d   1      56.359   0.682  34.031  0.00  0.00    -0.219 NA
ATOM      8  C   UNL d   1      55.899   0.633  34.706  0.00  0.00     0.108 A 
ATOM      9  C   UNL d   1      55.123   0.469  34.471  0.00  0.00     0.059 A 
ATOM     10  S   UNL d   1      55.105   0.418  33.652  0.00  0.00    -0.046 SA
ENDBRANCH   4   6
ENDBRANCH   2   3
ENDBRANCH   1   2
BRANCH   1  11
ATOM     11  O   UNL d   1      57.511  -0.120  30.460  0.00  0.00    -0.305 OA
BRANCH  11  12
ATOM     12  C   UNL d   1      58.237  -0.108  30.073  0.00  0.00     0.100 A 
ATOM     13  C   UNL d   1      58.457  -0.742  29.589  0.00  0.00     0.027 A 
ATOM     14  C   UNL d   1      59.183  -0.730  29.201  0.00  0.00     0.026 A 
ATOM     15  C   UNL d   1      59.692  -0.087  29.294  0.00  0.00     0.094 A 
ATOM     16  C   UNL d   1      59.474   0.544  29.775  0.00  0.00     0.026 A 
ATOM     17  C   UNL d   1      58.745   0.535  30.166  0.00  0.00     0.027 A 
BRANCH  15  18
ATOM     18  O   UNL d   1      60.423  -0.079  28.901  0.00  0.00    -0.328 OA
ATOM     19  C   UNL d   1      61.124  -0.029  29.330  0.00  0.00     0.181 C 
ENDBRANCH  15  18
ENDBRANCH  11  12
ENDBRANCH   1  11
TORSDOF 6
ENDMDL
MODEL 5
REMARK VINA RESULT:      -1.3      9.681     10.251
REMARK  6 active torsions:
REMARK  status: ('A' for Active; 'I' for Inactive)
REMARK    1  A    between atoms: N_2  and  C_1 
REMARK       I    between atoms: C_4  and  N_2 
REMARK    2  A    between atoms: C_6  and  C_4 
REMARK    3  A    between atoms: C_9  and  C_6 
REMARK    4  A    between atoms: C_8  and  O_15 
REMARK    5  A    between atoms: O_15  and  C_9 
REMARK    6  A    between atoms: O_17  and  C_10 
ROOT
ATOM      1  C   UNL d   1      59.015  -9.564  32.881  0.00  0.00     0.128 C 
ENDROOT
BRANCH   1   2
ATOM      2  C   UNL d   1      58.986  -9.646  33.707  0.00  0.00     0.089 C 
BRANCH   2   3
ATOM      3  C   UNL d   1      59.492  -9.197  34.180  0.00  0.00     0.283 C 
ATOM      4  N   UNL d   1      59.390  -9.200  34.998  0.00  0.00    -0.183 NA
ATOM      5  O   UNL d   1      60.094  -8.750  33.836  0.00  0.00    -0.265 OA
BRANCH   4   6
ATOM      6  C   UNL d   1      59.899  -8.748  35.472  0.00  0.00     0.197 A 
ATOM      7  N   UNL d   1      59.805  -7.957  35.675  0.00  0.00    -0.219 NA
ATOM      8  C   UNL d   1      60.436  -7.738  36.148  0.00  0.00     0.108 A 
ATOM      9  C   UNL d   1      60.925  -8.399  36.239  0.00  0.00     0.059 A 
ATOM     10  S   UNL d   1      60.595  -9.025  35.821  0.00  0.00    -0.046 SA
ENDBRANCH   4   6
ENDBRANCH   2   3
ENDBRANCH   1   2
BRANCH   1  11
ATOM     11  O   UNL d   1      58.239  -9.396  32.658  0.00  0.00    -0.305 OA
BRANCH  11  12
ATOM     12  C   UNL d   1      58.011  -9.485  31.872  0.00  0.00     0.100 A 
ATOM     13  C   UNL d   1      58.551  -9.330  31.265  0.00  0.00     0.027 A 
ATOM     14  C   UNL d   1      58.323  -9.419  30.479  0.00  0.00     0.026 A 
ATOM     15  C   UNL d   1      57.556  -9.663  30.296  0.00  0.00     0.094 A 
ATOM     16  C   UNL d   1      57.018  -9.818  30.899  0.00  0.00     0.026 A 
ATOM     17  C   UNL d   1      57.244  -9.729  31.689  0.00  0.00     0.027 A 
BRANCH  15  18
ATOM     18  O   UNL d   1      57.331  -9.752  29.502  0.00  0.00    -0.328 OA
ATOM     19  C   UNL d   1      57.761  -9.382  28.905  0.00  0.00     0.181 C 
ENDBRANCH  15  18
ENDBRANCH  11  12
ENDBRANCH   1  11
TORSDOF 6
ENDMDL
