MODEL 1
REMARK VINA RESULT:      43.2      0.000      0.000
REMARK  3 active torsions:
REMARK  status: ('A' for Active; 'I' for Inactive)
REMARK    1  A    between atoms: N_4  and  C_1 
REMARK    2  A    between atoms: C_11  and  C_3 
REMARK       I    between atoms: C_5  and  N_4 
REMARK    3  A    between atoms: C_8  and  C_5 
ROOT
ATOM      1  N   UNL d   1      44.004 -12.264  43.816  0.00  0.00    -0.183 NA
ATOM      2  C   UNL d   1      43.994 -12.836  44.413  0.00  0.00     0.281 C 
ATOM      3  O   UNL d   1      43.362 -12.843  44.953  0.00  0.00    -0.265 OA
ENDROOT
BRANCH   1   4
ATOM      4  C   UNL d   1      44.620 -12.239  43.271  0.00  0.00     0.197 A 
ATOM      5  N   UNL d   1      44.541 -12.322  42.451  0.00  0.00    -0.219 NA
ATOM      6  C   UNL d   1      45.301 -12.261  42.113  0.00  0.00     0.108 A 
ATOM      7  C   UNL d   1      45.843 -12.140  42.727  0.00  0.00     0.059 A 
ATOM      8  S   UNL d   1      45.420 -12.127  43.445  0.00  0.00    -0.046 SA
BRANCH   6   9
ATOM      9  C   UNL d   1      45.479 -12.312  41.302  0.00  0.00     0.100 A 
ATOM     10  N   UNL d   1      46.260 -12.329  41.056  0.00  0.00    -0.242 NA
ATOM     11  C   UNL d   1      46.446 -12.379  40.252  0.00  0.00     0.099 A 
ATOM     12  C   UNL d   1      45.830 -12.412  39.709  0.00  0.00     0.021 A 
ATOM     13  C   UNL d   1      45.055 -12.396  39.955  0.00  0.00     0.003 A 
ATOM     14  C   UNL d   1      44.859 -12.345  40.749  0.00  0.00     0.021 A 
ENDBRANCH   6   9
ENDBRANCH   1   4
BRANCH   2  15
ATOM     15  C   UNL d   1      44.628 -13.382  44.443  0.00  0.00     0.060 A 
ATOM     16  C   UNL d   1      44.499 -14.176  44.276  0.00  0.00     0.032 A 
ATOM     17  C   UNL d   1      45.122 -14.717  44.305  0.00  0.00     0.123 A 
ATOM     18  O   UNL d   1      44.994 -15.517  44.138  0.00  0.00    -0.301 OA
ATOM     19  C   UNL d   1      45.884 -14.442  44.507  0.00  0.00     0.123 A 
ATOM     20  C   UNL d   1      45.622 -16.056  44.168  0.00  0.00     0.149 A 
ATOM     21  C   UNL d   1      46.388 -15.782  44.370  0.00  0.00     0.149 A 
ATOM     22  O   UNL d   1      46.517 -14.988  44.537  0.00  0.00    -0.301 OA
ATOM     23  C   UNL d   1      46.006 -13.650  44.672  0.00  0.00     0.027 A 
ATOM     24  C   UNL d   1      45.381 -13.116  44.642  0.00  0.00     0.007 A 
ENDBRANCH   2  15
TORSDOF 3
ENDMDL
MODEL 2
REMARK VINA RESULT:      44.0      5.955      7.115
REMARK  3 active torsions:
REMARK  status: ('A' for Active; 'I' for Inactive)
REMARK    1  A    between atoms: N_4  and  C_1 
REMARK    2  A    between atoms: C_11  and  C_3 
REMARK       I    between atoms: C_5  and  N_4 
REMARK    3  A    between atoms: C_8  and  C_5 
ROOT
ATOM      1  N   UNL d   1      44.213 -16.795  37.878  0.00  0.00    -0.183 NA
ATOM      2  C   UNL d   1      45.014 -16.612  37.964  0.00  0.00     0.281 C 
ATOM      3  O   UNL d   1      45.488 -17.095  38.447  0.00  0.00    -0.265 OA
ENDROOT
BRANCH   1   4
ATOM      4  C   UNL d   1      43.726 -16.331  37.405  0.00  0.00     0.197 A 
ATOM      5  N   UNL d   1      43.134 -15.820  37.678  0.00  0.00    -0.219 NA
ATOM      6  C   UNL d   1      42.779 -15.461  37.015  0.00  0.00     0.108 A 
ATOM      7  C   UNL d   1      43.153 -15.754  36.337  0.00  0.00     0.059 A 
ATOM      8  S   UNL d   1      43.740 -16.293  36.579  0.00  0.00    -0.046 SA
BRANCH   6   9
ATOM      9  C   UNL d   1      42.157 -14.908  37.034  0.00  0.00     0.100 A 
ATOM     10  N   UNL d   1      41.951 -14.551  37.742  0.00  0.00    -0.242 NA
ATOM     11  C   UNL d   1      41.336 -14.001  37.772  0.00  0.00     0.099 A 
ATOM     12  C   UNL d   1      40.937 -13.821  37.075  0.00  0.00     0.021 A 
ATOM     13  C   UNL d   1      41.143 -14.177  36.373  0.00  0.00     0.003 A 
ATOM     14  C   UNL d   1      41.752 -14.723  36.333  0.00  0.00     0.021 A 
ENDBRANCH   6   9
ENDBRANCH   1   4
BRANCH   2  15
ATOM     15  C   UNL d   1      45.309 -15.943  37.556  0.00  0.00     0.060 A 
ATOM     16  C   UNL d   1      45.429 -15.234  37.954  0.00  0.00     0.032 A 
ATOM     17  C   UNL d   1      45.719 -14.573  37.554  0.00  0.00     0.123 A 
ATOM     18  O   UNL d   1      45.841 -13.858  37.952  0.00  0.00    -0.301 OA
ATOM     19  C   UNL d   1      45.889 -14.639  36.739  0.00  0.00     0.123 A 
ATOM     20  C   UNL d   1      46.133 -13.198  37.547  0.00  0.00     0.149 A 
ATOM     21  C   UNL d   1      46.303 -13.261  36.729  0.00  0.00     0.149 A 
ATOM     22  O   UNL d   1      46.184 -13.970  36.331  0.00  0.00    -0.301 OA
ATOM     23  C   UNL d   1      45.768 -15.347  36.348  0.00  0.00     0.027 A 
ATOM     24  C   UNL d   1      45.478 -16.002  36.753  0.00  0.00     0.007 A 
ENDBRANCH   2  15
TORSDOF 3
ENDMDL
