MODEL 1
REMARK VINA RESULT:      -4.7      0.000      0.000
REMARK  2 active torsions:
REMARK  status: ('A' for Active; 'I' for Inactive)
REMARK    1  A    between atoms: S_4  and  C_1 
REMARK    2  A    between atoms: C_9  and  S_4 
ROOT
ATOM      1  C   UNL d   1     -41.571-122.474 -51.444  0.00  0.00     0.107 A 
ATOM      2  C   UNL d   1     -41.551-123.297 -51.324  0.00  0.00     0.201 A 
ATOM      3  C   UNL d   1     -41.991-121.978 -50.982  0.00  0.00     0.201 A 
ATOM      4  C   UNL d   1     -42.436-123.087 -50.202  0.00  0.00     0.043 A 
ATOM      5  C   UNL d   1     -41.990-123.608 -50.693  0.00  0.00     0.020 A 
ATOM      6  C   UNL d   1     -42.430-122.274 -50.354  0.00  0.00     0.020 A 
ATOM      7  O   UNL d   1     -41.971-121.182 -51.150  0.00  0.00    -0.286 OA
ATOM      8  O   UNL d   1     -41.123-123.817 -51.793  0.00  0.00    -0.286 OA
ATOM      9  C   UNL d   1     -42.921-122.836 -49.611  0.00  0.00     0.009 C 
ATOM     10  C   UNL d   1     -42.611-123.805 -49.846  0.00  0.00     0.009 C 
ENDROOT
BRANCH   1  11
ATOM     11  S   UNL d   1     -41.123-122.141 -52.091  0.00  0.00    -0.081 SA
BRANCH  11  12
ATOM     12  C   UNL d   1     -41.443-122.189 -52.869  0.00  0.00     0.030 A 
ATOM     13  C   UNL d   1     -41.998-121.640 -53.143  0.00  0.00     0.007 A 
ATOM     14  C   UNL d   1     -42.292-121.715 -53.909  0.00  0.00     0.007 A 
ATOM     15  C   UNL d   1     -42.041-122.325 -54.399  0.00  0.00     0.035 A 
ATOM     16  C   UNL d   1     -41.487-122.866 -54.115  0.00  0.00     0.007 A 
ATOM     17 BR   UNL d   1     -42.348-122.387 -55.173  0.00  0.00    -0.049 Br
ATOM     18  C   UNL d   1     -41.183-122.806 -53.352  0.00  0.00     0.007 A 
ENDBRANCH  11  12
ENDBRANCH   1  11
TORSDOF 2
ENDMDL
MODEL 2
REMARK VINA RESULT:      -3.6      0.716      1.500
REMARK  2 active torsions:
REMARK  status: ('A' for Active; 'I' for Inactive)
REMARK    1  A    between atoms: S_4  and  C_1 
REMARK    2  A    between atoms: C_9  and  S_4 
ROOT
ATOM      1  C   UNL d   1     -41.481-122.458 -52.338  0.00  0.00     0.107 A 
ATOM      2  C   UNL d   1     -41.616-121.783 -51.870  0.00  0.00     0.201 A 
ATOM      3  C   UNL d   1     -41.673-123.195 -52.102  0.00  0.00     0.201 A 
ATOM      4  C   UNL d   1     -42.169-122.668 -50.872  0.00  0.00     0.043 A 
ATOM      5  C   UNL d   1     -41.965-121.890 -51.125  0.00  0.00     0.020 A 
ATOM      6  C   UNL d   1     -42.019-123.314 -51.367  0.00  0.00     0.020 A 
ATOM      7  O   UNL d   1     -41.516-123.815 -52.605  0.00  0.00    -0.286 OA
ATOM      8  O   UNL d   1     -41.424-121.020 -52.102  0.00  0.00    -0.286 OA
ATOM      9  C   UNL d   1     -42.447-123.262 -50.406  0.00  0.00     0.009 C 
ATOM     10  C   UNL d   1     -42.414-122.236 -50.220  0.00  0.00     0.009 C 
ENDROOT
BRANCH   1  11
ATOM     11  S   UNL d   1     -41.123-122.361 -53.107  0.00  0.00    -0.081 SA
BRANCH  11  12
ATOM     12  C   UNL d   1     -41.626-122.277 -53.778  0.00  0.00     0.030 A 
ATOM     13  C   UNL d   1     -42.220-121.702 -53.803  0.00  0.00     0.007 A 
ATOM     14  C   UNL d   1     -42.696-121.645 -54.474  0.00  0.00     0.007 A 
ATOM     15  C   UNL d   1     -42.586-122.150 -55.112  0.00  0.00     0.035 A 
ATOM     16  C   UNL d   1     -41.990-122.719 -55.076  0.00  0.00     0.007 A 
ATOM     17 BR   UNL d   1     -43.076-122.081 -55.785  0.00  0.00    -0.049 Br
ATOM     18  C   UNL d   1     -41.506-122.789 -54.413  0.00  0.00     0.007 A 
ENDBRANCH  11  12
ENDBRANCH   1  11
TORSDOF 2
ENDMDL
MODEL 3
REMARK VINA RESULT:      -1.9      2.320      3.966
REMARK  2 active torsions:
REMARK  status: ('A' for Active; 'I' for Inactive)
REMARK    1  A    between atoms: S_4  and  C_1 
REMARK    2  A    between atoms: C_9  and  S_4 
ROOT
ATOM      1  C   UNL d   1     -42.322-122.469 -50.704  0.00  0.00     0.107 A 
ATOM      2  C   UNL d   1     -42.418-123.257 -50.956  0.00  0.00     0.201 A 
ATOM      3  C   UNL d   1     -41.891-121.934 -51.108  0.00  0.00     0.201 A 
ATOM      4  C   UNL d   1     -41.590-122.925 -52.091  0.00  0.00     0.043 A 
ATOM      5  C   UNL d   1     -42.047-123.488 -51.660  0.00  0.00     0.020 A 
ATOM      6  C   UNL d   1     -41.518-122.151 -51.807  0.00  0.00     0.020 A 
ATOM      7  O   UNL d   1     -41.833-121.179 -50.811  0.00  0.00    -0.286 OA
ATOM      8  O   UNL d   1     -42.859-123.816 -50.548  0.00  0.00    -0.286 OA
ATOM      9  C   UNL d   1     -41.123-122.613 -52.667  0.00  0.00     0.009 C 
ATOM     10  C   UNL d   1     -41.499-123.582 -52.572  0.00  0.00     0.009 C 
ENDROOT
BRANCH   1  11
ATOM     11  S   UNL d   1     -42.700-122.219 -49.980  0.00  0.00    -0.081 SA
BRANCH  11  12
ATOM     12  C   UNL d   1     -42.411-122.525 -49.249  0.00  0.00     0.030 A 
ATOM     13  C   UNL d   1     -41.602-122.553 -49.081  0.00  0.00     0.007 A 
ATOM     14  C   UNL d   1     -41.352-122.858 -48.357  0.00  0.00     0.007 A 
ATOM     15  C   UNL d   1     -41.895-123.133 -47.807  0.00  0.00     0.035 A 
ATOM     16  C   UNL d   1     -42.700-123.101 -47.985  0.00  0.00     0.007 A 
ATOM     17 BR   UNL d   1     -41.627-123.440 -47.078  0.00  0.00    -0.049 Br
ATOM     18  C   UNL d   1     -42.966-122.799 -48.703  0.00  0.00     0.007 A 
ENDBRANCH  11  12
ENDBRANCH   1  11
TORSDOF 2
ENDMDL
