MODEL 1
REMARK VINA RESULT:      43.9      0.000      0.000
REMARK  3 active torsions:
REMARK  status: ('A' for Active; 'I' for Inactive)
REMARK    1  A    between atoms: C_7  and  C_3 
REMARK       I    between atoms: N_10  and  C_7 
REMARK    2  A    between atoms: C_16  and  N_10 
REMARK    3  A    between atoms: C_15  and  C_16 
ROOT
ATOM      1  C   UNL d   1     -51.459  24.853  33.347  0.00  0.00     0.063 A 
ATOM      2  C   UNL d   1     -50.881  25.448  33.361  0.00  0.00     0.033 A 
ATOM      3  C   UNL d   1     -51.271  26.179  33.382  0.00  0.00     0.158 A 
ATOM      4  C   UNL d   1     -52.200  25.214  33.359  0.00  0.00     0.099 A 
ATOM      5  O   UNL d   1     -52.084  26.033  33.381  0.00  0.00    -0.302 OA
ATOM      6  C   UNL d   1     -51.388  24.027  33.324  0.00  0.00     0.194 A 
ATOM      7  C   UNL d   1     -52.875  24.750  33.349  0.00  0.00     0.002 A 
ATOM      8  C   UNL d   1     -52.828  23.934  33.327  0.00  0.00     0.042 A 
ATOM      9  C   UNL d   1     -52.082  23.572  33.315  0.00  0.00     0.019 A 
ATOM     10  O   UNL d   1     -50.638  23.662  33.312  0.00  0.00    -0.287 OA
ATOM     11  C   UNL d   1     -50.056  25.504  33.359  0.00  0.00     0.002 C 
ATOM     12  C   UNL d   1     -53.190  23.189  33.308  0.00  0.00     0.009 C 
ATOM     13  C   UNL d   1     -53.637  24.088  33.334  0.00  0.00     0.009 C 
ENDROOT
BRANCH   3  14
ATOM     14  C   UNL d   1     -50.914  26.922  33.401  0.00  0.00     0.302 C 
ATOM     15  N   UNL d   1     -50.094  26.988  33.515  0.00  0.00    -0.205 NA
ATOM     16  O   UNL d   1     -51.373  27.608  33.306  0.00  0.00    -0.263 OA
BRANCH  15  17
ATOM     17  C   UNL d   1     -49.733  27.730  33.534  0.00  0.00     0.104 C 
BRANCH  17  18
ATOM     18  C   UNL d   1     -49.268  27.946  34.179  0.00  0.00     0.038 A 
ATOM     19  C   UNL d   1     -49.151  27.410  34.797  0.00  0.00     0.101 A 
ATOM     20  N   UNL d   1     -48.688  27.630  35.436  0.00  0.00    -0.242 NA
ATOM     21  C   UNL d   1     -48.342  28.369  35.472  0.00  0.00     0.099 A 
ATOM     22  C   UNL d   1     -48.462  28.905  34.849  0.00  0.00     0.021 A 
ATOM     23  C   UNL d   1     -48.926  28.690  34.204  0.00  0.00     0.005 A 
ENDBRANCH  17  18
ENDBRANCH  15  17
ENDBRANCH   3  14
TORSDOF 3
ENDMDL
