MODEL 1
REMARK VINA RESULT:      -3.9      0.000      0.000
REMARK  7 active torsions:
REMARK  status: ('A' for Active; 'I' for Inactive)
REMARK    1  A    between atoms: S_10  and  C_4 
REMARK    2  A    between atoms: C_19  and  C_9 
REMARK    3  A    between atoms: C_13  and  S_10 
REMARK    4  A    between atoms: C_11  and  C_13 
REMARK       I    between atoms: N_14  and  C_11 
REMARK    5  A    between atoms: C_16  and  N_14 
REMARK    6  A    between atoms: C_20  and  C_16 
REMARK    7  A    between atoms: C_18  and  C_20 
ROOT
ATOM      1  C   UNL d   1      31.587  17.612 -24.020  0.00  0.00     0.141 A 
ATOM      2  C   UNL d   1      31.371  16.832 -24.173  0.00  0.00     0.110 A 
ATOM      3  O   UNL d   1      30.958  18.100 -24.242  0.00  0.00    -0.303 OA
ATOM      4  C   UNL d   1      32.328  17.781 -23.699  0.00  0.00     0.137 A 
ATOM      5  N   UNL d   1      32.853  17.167 -23.531  0.00  0.00    -0.218 NA
ATOM      6  C   UNL d   1      30.609  16.835 -24.489  0.00  0.00     0.043 A 
ATOM      7  N   UNL d   1      31.897  16.218 -24.005  0.00  0.00    -0.225 NA
ATOM      8  C   UNL d   1      30.354  17.619 -24.532  0.00  0.00     0.102 A 
ATOM      9  C   UNL d   1      32.637  16.387 -23.683  0.00  0.00     0.163 A 
ATOM     10  C   UNL d   1      30.114  16.225 -24.744  0.00  0.00     0.004 A 
ATOM     11  C   UNL d   1      29.605  17.793 -24.829  0.00  0.00     0.025 A 
ATOM     12  C   UNL d   1      29.364  16.401 -25.041  0.00  0.00     0.000 A 
ATOM     13  C   UNL d   1      29.109  17.183 -25.084  0.00  0.00     0.002 A 
ENDROOT
BRANCH   4  14
ATOM     14  S   UNL d   1      32.544  18.563 -23.546  0.00  0.00    -0.060 SA
BRANCH  14  15
ATOM     15  C   UNL d   1      32.910  18.757 -22.833  0.00  0.00     0.099 C 
BRANCH  15  16
ATOM     16  C   UNL d   1      33.004  19.550 -22.622  0.00  0.00     0.286 C 
ATOM     17  O   UNL d   1      33.181  20.112 -23.202  0.00  0.00    -0.265 OA
ATOM     18  N   UNL d   1      32.923  19.780 -21.835  0.00  0.00    -0.206 NA
BRANCH  18  19
ATOM     19  C   UNL d   1      33.017  20.571 -21.625  0.00  0.00     0.102 C 
BRANCH  19  20
ATOM     20  C   UNL d   1      32.460  20.940 -21.141  0.00  0.00     0.021 C 
BRANCH  20  21
ATOM     21  C   UNL d   1      32.580  21.717 -20.889  0.00  0.00     0.002 A 
ATOM     22  C   UNL d   1      33.119  21.877 -20.284  0.00  0.00     0.000 A 
ATOM     23  C   UNL d   1      33.239  22.652 -20.032  0.00  0.00     0.000 A 
ATOM     24  C   UNL d   1      32.821  23.269 -20.385  0.00  0.00     0.000 A 
ATOM     25  C   UNL d   1      32.283  23.112 -20.989  0.00  0.00     0.000 A 
ATOM     26  C   UNL d   1      32.162  22.334 -21.241  0.00  0.00     0.000 A 
ENDBRANCH  20  21
ENDBRANCH  19  20
ENDBRANCH  18  19
ENDBRANCH  15  16
ENDBRANCH  14  15
ENDBRANCH   4  14
BRANCH   9  27
ATOM     27  C   UNL d   1      33.162  15.772 -23.515  0.00  0.00     0.039 C 
ATOM     28  C   UNL d   1      33.194  15.453 -22.755  0.00  0.00     0.003 C 
ENDBRANCH   9  27
TORSDOF 7
ENDMDL
MODEL 2
REMARK VINA RESULT:      -1.8      1.386      5.785
REMARK  7 active torsions:
REMARK  status: ('A' for Active; 'I' for Inactive)
REMARK    1  A    between atoms: S_10  and  C_4 
REMARK    2  A    between atoms: C_19  and  C_9 
REMARK    3  A    between atoms: C_13  and  S_10 
REMARK    4  A    between atoms: C_11  and  C_13 
REMARK       I    between atoms: N_14  and  C_11 
REMARK    5  A    between atoms: C_16  and  N_14 
REMARK    6  A    between atoms: C_20  and  C_16 
REMARK    7  A    between atoms: C_18  and  C_20 
ROOT
ATOM      1  C   UNL d   1      33.135  20.963 -22.648  0.00  0.00     0.141 A 
ATOM      2  C   UNL d   1      33.188  21.559 -22.081  0.00  0.00     0.110 A 
ATOM      3  O   UNL d   1      33.109  21.321 -23.393  0.00  0.00    -0.303 OA
ATOM      4  C   UNL d   1      33.116  20.172 -22.416  0.00  0.00     0.137 A 
ATOM      5  N   UNL d   1      33.150  19.976 -21.615  0.00  0.00    -0.218 NA
ATOM      6  C   UNL d   1      33.195  22.285 -22.473  0.00  0.00     0.043 A 
ATOM      7  N   UNL d   1      33.222  21.363 -21.280  0.00  0.00    -0.225 NA
ATOM      8  C   UNL d   1      33.147  22.138 -23.284  0.00  0.00     0.102 A 
ATOM      9  C   UNL d   1      33.204  20.572 -21.048  0.00  0.00     0.163 A 
ATOM     10  C   UNL d   1      33.240  23.062 -22.197  0.00  0.00     0.004 A 
ATOM     11  C   UNL d   1      33.144  22.766 -23.818  0.00  0.00     0.025 A 
ATOM     12  C   UNL d   1      33.237  23.690 -22.732  0.00  0.00     0.000 A 
ATOM     13  C   UNL d   1      33.188  23.543 -23.541  0.00  0.00     0.002 A 
ENDROOT
BRANCH   4  14
ATOM     14  S   UNL d   1      33.063  19.576 -22.985  0.00  0.00    -0.060 SA
BRANCH  14  15
ATOM     15  C   UNL d   1      32.872  18.807 -22.758  0.00  0.00     0.099 C 
BRANCH  15  16
ATOM     16  C   UNL d   1      32.729  18.231 -23.333  0.00  0.00     0.286 C 
ATOM     17  O   UNL d   1      33.241  18.159 -23.978  0.00  0.00    -0.265 OA
ATOM     18  N   UNL d   1      32.078  17.730 -23.264  0.00  0.00    -0.206 NA
BRANCH  18  19
ATOM     19  C   UNL d   1      31.937  17.156 -23.838  0.00  0.00     0.102 C 
BRANCH  19  20
ATOM     20  C   UNL d   1      31.527  16.468 -23.643  0.00  0.00     0.021 C 
BRANCH  20  21
ATOM     21  C   UNL d   1      30.750  16.362 -23.901  0.00  0.00     0.002 A 
ATOM     22  C   UNL d   1      30.204  15.971 -23.419  0.00  0.00     0.000 A 
ATOM     23  C   UNL d   1      29.429  15.865 -23.676  0.00  0.00     0.000 A 
ATOM     24  C   UNL d   1      29.197  16.148 -24.415  0.00  0.00     0.000 A 
ATOM     25  C   UNL d   1      29.740  16.539 -24.897  0.00  0.00     0.000 A 
ATOM     26  C   UNL d   1      30.518  16.645 -24.639  0.00  0.00     0.000 A 
ENDBRANCH  20  21
ENDBRANCH  19  20
ENDBRANCH  18  19
ENDBRANCH  15  16
ENDBRANCH  14  15
ENDBRANCH   4  14
BRANCH   9  27
ATOM     27  C   UNL d   1      33.238  20.377 -20.246  0.00  0.00     0.039 C 
ATOM     28  C   UNL d   1      32.982  20.919 -19.679  0.00  0.00     0.003 C 
ENDBRANCH   9  27
TORSDOF 7
ENDMDL
