MODEL 1
REMARK VINA RESULT:      -4.3      0.000      0.000
REMARK  5 active torsions:
REMARK  status: ('A' for Active; 'I' for Inactive)
REMARK    1  A    between atoms: C_6  and  N_1 
REMARK    2  A    between atoms: C_13  and  C_6 
REMARK    3  A    between atoms: O_11  and  C_7 
REMARK    4  A    between atoms: O_19  and  C_8 
REMARK    5  A    between atoms: C_20  and  O_11 
ROOT
ATOM      1  C   UNL d   1     -41.205-122.359 -52.657  0.00  0.00     0.122 A 
ATOM      2  C   UNL d   1     -41.199-121.905 -51.971  0.00  0.00     0.117 A 
ATOM      3  C   UNL d   1     -41.220-122.270 -51.230  0.00  0.00     0.028 A 
ATOM      4  C   UNL d   1     -41.248-123.091 -51.188  0.00  0.00     0.020 A 
ATOM      5  C   UNL d   1     -41.233-123.182 -52.602  0.00  0.00     0.027 A 
ATOM      6  C   UNL d   1     -41.254-123.541 -51.869  0.00  0.00     0.004 A 
ENDROOT
BRANCH   4   7
ATOM      7  C   UNL d   1     -41.269-123.452 -50.446  0.00  0.00     0.085 C 
BRANCH   7   8
ATOM      8  N   UNL d   1     -41.980-123.495 -50.031  0.00  0.00    -0.251 N 
ATOM      9  C   UNL d   1     -42.746-123.660 -50.321  0.00  0.00     0.378 A 
ATOM     10  O   UNL d   1     -43.272-123.638 -49.682  0.00  0.00    -0.258 OA
ATOM     11  O   UNL d   1     -42.936-123.818 -51.106  0.00  0.00    -0.237 OA
ATOM     12  C   UNL d   1     -42.837-123.459 -49.000  0.00  0.00     0.121 A 
ATOM     13  C   UNL d   1     -42.039-123.371 -49.215  0.00  0.00     0.092 A 
ATOM     14  C   UNL d   1     -43.054-123.364 -48.207  0.00  0.00     0.026 A 
ATOM     15  C   UNL d   1     -41.471-123.191 -48.650  0.00  0.00     0.020 A 
ATOM     16  C   UNL d   1     -41.699-123.098 -47.863  0.00  0.00     0.002 A 
ATOM     17  C   UNL d   1     -42.487-123.184 -47.642  0.00  0.00     0.002 A 
ATOM     18  C   UNL d   1     -41.123-122.917 -47.297  0.00  0.00     0.000 C 
ENDBRANCH   7   8
ENDBRANCH   4   7
BRANCH   2  19
ATOM     19  O   UNL d   1     -41.172-121.089 -52.014  0.00  0.00    -0.326 OA
ATOM     20  C   UNL d   1     -41.215-120.645 -51.318  0.00  0.00     0.181 C 
ENDBRANCH   2  19
BRANCH   1  21
ATOM     21  O   UNL d   1     -41.184-121.999 -53.395  0.00  0.00    -0.305 OA
BRANCH  21  22
ATOM     22  C   UNL d   1     -41.598-122.327 -54.021  0.00  0.00     0.100 C 
ATOM     23  C   UNL d   1     -41.234-122.868 -54.515  0.00  0.00     0.027 C 
ATOM     24  C   UNL d   1     -42.383-122.112 -54.154  0.00  0.00     0.027 C 
ENDBRANCH  21  22
ENDBRANCH   1  21
TORSDOF 5
ENDMDL
