MODEL 1
REMARK VINA RESULT:      -5.3      0.000      0.000
REMARK  5 active torsions:
REMARK  status: ('A' for Active; 'I' for Inactive)
REMARK    1  A    between atoms: C_2  and  C_1 
REMARK    2  A    between atoms: C_6  and  C_2 
REMARK    3  A    between atoms: S_3  and  C_11 
REMARK    4  A    between atoms: N_7  and  S_3 
REMARK    5  A    between atoms: C_15  and  C_6 
ROOT
ATOM      1  C   UNL d   1      58.674  -0.070  29.590  0.00  0.00     0.141 C 
ATOM      2  C   UNL d   1      58.127   0.273  29.057  0.00  0.00     0.107 C 
ATOM      3  N   UNL d   1      57.597   0.616  28.551  0.00  0.00    -0.191 NA
ENDROOT
BRANCH   1   4
ATOM      4  C   UNL d   1      59.017  -0.797  29.405  0.00  0.00     0.161 A 
ATOM      5  N   UNL d   1      59.716  -0.908  28.971  0.00  0.00    -0.287 N 
ATOM      6  C   UNL d   1      59.863  -1.714  28.913  0.00  0.00     0.083 A 
ATOM      7  C   UNL d   1      60.200  -0.297  28.641  0.00  0.00     0.101 C 
ATOM      8  C   UNL d   1      60.464  -2.132  28.554  0.00  0.00     0.019 A 
ATOM      9  C   UNL d   1      59.236  -2.115  29.324  0.00  0.00     0.099 A 
ATOM     10  C   UNL d   1      60.451  -2.959  28.598  0.00  0.00     0.002 A 
ATOM     11  C   UNL d   1      59.824  -3.359  29.009  0.00  0.00     0.002 A 
ATOM     12  C   UNL d   1      59.224  -2.923  29.367  0.00  0.00     0.021 A 
ATOM     13  N   UNL d   1      58.730  -1.537  29.617  0.00  0.00    -0.226 NA
ENDBRANCH   1   4
BRANCH   1  14
ATOM     14  C   UNL d   1      58.868   0.310  30.288  0.00  0.00     0.208 C 
ATOM     15  O   UNL d   1      59.603   0.652  30.370  0.00  0.00    -0.286 OA
BRANCH  14  16
ATOM     16  C   UNL d   1      58.318   0.347  30.908  0.00  0.00     0.040 A 
ATOM     17  C   UNL d   1      57.537   0.076  30.781  0.00  0.00     0.004 A 
ATOM     18  C   UNL d   1      56.991   0.113  31.398  0.00  0.00     0.013 A 
ATOM     19  C   UNL d   1      57.214   0.411  32.125  0.00  0.00     0.104 A 
ATOM     20  C   UNL d   1      57.995   0.682  32.254  0.00  0.00     0.013 A 
ATOM     21  C   UNL d   1      58.541   0.646  31.637  0.00  0.00     0.004 A 
BRANCH  19  22
ATOM     22  S   UNL d   1      56.664   0.448  32.747  0.00  0.00     0.271 S 
ATOM     23  O   UNL d   1      56.058   0.682  32.197  0.00  0.00    -0.200 OA
ATOM     24  O   UNL d   1      57.255   0.219  33.283  0.00  0.00    -0.200 OA
BRANCH  22  25
ATOM     25  N   UNL d   1      56.117   0.484  33.364  0.00  0.00    -0.229 N 
ATOM     26  C   UNL d   1      55.317   0.443  33.204  0.00  0.00     0.092 A 
ATOM     27  C   UNL d   1      54.767   0.479  33.824  0.00  0.00     0.020 A 
ATOM     28  C   UNL d   1      55.022   0.557  34.601  0.00  0.00     0.003 A 
ATOM     29  C   UNL d   1      55.820   0.597  34.750  0.00  0.00     0.020 A 
ATOM     30  C   UNL d   1      56.370   0.561  34.129  0.00  0.00     0.092 A 
ENDBRANCH  22  25
ENDBRANCH  19  22
ENDBRANCH  14  16
ENDBRANCH   1  14
TORSDOF 5
ENDMDL
MODEL 2
REMARK VINA RESULT:      -2.6      1.244      1.853
REMARK  5 active torsions:
REMARK  status: ('A' for Active; 'I' for Inactive)
REMARK    1  A    between atoms: C_2  and  C_1 
REMARK    2  A    between atoms: C_6  and  C_2 
REMARK    3  A    between atoms: S_3  and  C_11 
REMARK    4  A    between atoms: N_7  and  S_3 
REMARK    5  A    between atoms: C_15  and  C_6 
ROOT
ATOM      1  C   UNL d   1      57.951  -0.541  30.450  0.00  0.00     0.141 C 
ATOM      2  C   UNL d   1      57.736  -1.323  30.652  0.00  0.00     0.107 C 
ATOM      3  N   UNL d   1      57.515  -2.076  30.853  0.00  0.00    -0.191 NA
ENDROOT
BRANCH   1   4
ATOM      4  C   UNL d   1      58.669  -0.404  30.067  0.00  0.00     0.161 A 
ATOM      5  N   UNL d   1      58.907  -0.740  29.346  0.00  0.00    -0.287 N 
ATOM      6  C   UNL d   1      59.657  -0.460  29.162  0.00  0.00     0.083 A 
ATOM      7  C   UNL d   1      58.457  -1.281  28.875  0.00  0.00     0.101 C 
ATOM      8  C   UNL d   1      60.150  -0.604  28.529  0.00  0.00     0.019 A 
ATOM      9  C   UNL d   1      59.891   0.065  29.788  0.00  0.00     0.099 A 
ATOM     10  C   UNL d   1      60.887  -0.227  28.507  0.00  0.00     0.002 A 
ATOM     11  C   UNL d   1      61.120   0.299  29.133  0.00  0.00     0.002 A 
ATOM     12  C   UNL d   1      60.611   0.434  29.766  0.00  0.00     0.021 A 
ATOM     13  N   UNL d   1      59.274   0.086  30.330  0.00  0.00    -0.226 NA
ENDBRANCH   1   4
BRANCH   1  14
ATOM     14  C   UNL d   1      57.456   0.086  30.628  0.00  0.00     0.208 C 
ATOM     15  O   UNL d   1      57.259   0.623  30.048  0.00  0.00    -0.286 OA
BRANCH  14  16
ATOM     16  C   UNL d   1      57.155   0.173  31.397  0.00  0.00     0.040 A 
ATOM     17  C   UNL d   1      56.419  -0.173  31.590  0.00  0.00     0.004 A 
ATOM     18  C   UNL d   1      56.120  -0.086  32.355  0.00  0.00     0.013 A 
ATOM     19  C   UNL d   1      56.543   0.334  32.914  0.00  0.00     0.104 A 
ATOM     20  C   UNL d   1      57.279   0.680  32.721  0.00  0.00     0.013 A 
ATOM     21  C   UNL d   1      57.578   0.593  31.957  0.00  0.00     0.004 A 
BRANCH  19  22
ATOM     22  S   UNL d   1      56.242   0.421  33.684  0.00  0.00     0.271 S 
ATOM     23  O   UNL d   1      55.449   0.406  33.376  0.00  0.00    -0.200 OA
ATOM     24  O   UNL d   1      57.016   0.437  33.984  0.00  0.00    -0.200 OA
BRANCH  22  25
ATOM     25  N   UNL d   1      55.944   0.508  34.448  0.00  0.00    -0.229 N 
ATOM     26  C   UNL d   1      55.139   0.595  34.565  0.00  0.00     0.092 A 
ATOM     27  C   UNL d   1      54.839   0.682  35.334  0.00  0.00     0.020 A 
ATOM     28  C   UNL d   1      55.345   0.682  35.980  0.00  0.00     0.003 A 
ATOM     29  C   UNL d   1      56.143   0.595  35.854  0.00  0.00     0.020 A 
ATOM     30  C   UNL d   1      56.444   0.508  35.085  0.00  0.00     0.092 A 
ENDBRANCH  22  25
ENDBRANCH  19  22
ENDBRANCH  14  16
ENDBRANCH   1  14
TORSDOF 5
ENDMDL
