MODEL 1
REMARK VINA RESULT:      72.6      0.000      0.000
REMARK  3 active torsions:
REMARK  status: ('A' for Active; 'I' for Inactive)
REMARK    1  A    between atoms: C_11  and  N_1 
REMARK    2  A    between atoms: C_3  and  C_2 
REMARK    3  A    between atoms: C_13  and  C_16 
ROOT
ATOM      1  N   UNL d   1     -49.703  27.827  34.151  0.00  0.00    -0.260 N 
ATOM      2  C   UNL d   1     -50.269  26.712  33.702  0.00  0.00     0.093 A 
ATOM      3  C   UNL d   1     -50.218  28.058  33.593  0.00  0.00     0.153 A 
ATOM      4  C   UNL d   1     -49.716  26.997  34.237  0.00  0.00     0.272 A 
ATOM      5  S   UNL d   1     -50.578  27.373  33.306  0.00  0.00    -0.053 SA
ATOM      6  S   UNL d   1     -50.358  28.840  33.356  0.00  0.00    -0.052 SA
ATOM      7  O   UNL d   1     -49.263  26.541  34.757  0.00  0.00    -0.266 OA
ENDROOT
BRANCH   2   8
ATOM      8  C   UNL d   1     -50.489  25.941  33.569  0.00  0.00     0.068 A 
ATOM      9  C   UNL d   1     -49.964  25.329  33.439  0.00  0.00     0.258 A 
ATOM     10  N   UNL d   1     -50.372  24.643  33.329  0.00  0.00    -0.321 N 
ATOM     11  O   UNL d   1     -49.140  25.406  33.424  0.00  0.00    -0.267 OA
ATOM     12  H   UNL d   1     -50.037  23.902  33.181  0.00  0.00     0.169 HD
ATOM     13  C   UNL d   1     -51.177  24.816  33.389  0.00  0.00     0.059 A 
ATOM     14  C   UNL d   1     -51.258  25.613  33.537  0.00  0.00     0.021 A 
ATOM     15  C   UNL d   1     -51.854  24.326  33.324  0.00  0.00     0.017 A 
ATOM     16  C   UNL d   1     -52.000  25.947  33.625  0.00  0.00     0.002 A 
ATOM     17  C   UNL d   1     -52.673  25.477  33.563  0.00  0.00     0.000 A 
ATOM     18  C   UNL d   1     -52.601  24.666  33.413  0.00  0.00     0.002 A 
ENDBRANCH   2   8
BRANCH   1  19
ATOM     19  C   UNL d   1     -49.213  28.294  34.598  0.00  0.00     0.068 A 
ATOM     20  C   UNL d   1     -48.976  29.029  34.341  0.00  0.00     0.018 A 
ATOM     21  C   UNL d   1     -48.469  29.496  34.820  0.00  0.00     0.008 A 
ATOM     22  C   UNL d   1     -48.219  29.205  35.541  0.00  0.00     0.065 A 
ATOM     23  C   UNL d   1     -48.461  28.457  35.800  0.00  0.00     0.008 A 
ATOM     24  C   UNL d   1     -48.949  28.009  35.338  0.00  0.00     0.018 A 
BRANCH  22  25
ATOM     25  C   UNL d   1     -47.703  29.693  36.014  0.00  0.00     0.211 C 
ATOM     26  O   UNL d   1     -47.041  30.053  35.668  0.00  0.00    -0.644 OA
ATOM     27  O   UNL d   1     -47.863  29.808  36.820  0.00  0.00    -0.644 OA
ENDBRANCH  22  25
ENDBRANCH   1  19
TORSDOF 3
ENDMDL
