MODEL 1
REMARK VINA RESULT:      66.7      0.000      0.000
REMARK  9 active torsions:
REMARK  status: ('A' for Active; 'I' for Inactive)
REMARK    1  A    between atoms: C_5  and  C_1 
REMARK    2  A    between atoms: N_6  and  C_2 
REMARK    3  A    between atoms: C_7  and  C_5 
REMARK    4  A    between atoms: C_8  and  C_5 
REMARK    5  A    between atoms: O_13  and  C_7 
REMARK    6  A    between atoms: C_17  and  N_12 
REMARK    7  A    between atoms: C_20  and  O_13 
REMARK    8  A    between atoms: C_21  and  C_17 
REMARK    9  A    between atoms: C_24  and  C_20 
ROOT
ATOM      1  C   UNL d   1      44.414 -16.108  37.297  0.00  0.00     0.117 A 
ATOM      2  C   UNL d   1      44.062 -16.319  38.009  0.00  0.00     0.145 A 
ATOM      3  N   UNL d   1      43.278 -16.105  38.169  0.00  0.00    -0.230 NA
ATOM      4  N   UNL d   1      43.981 -15.678  36.737  0.00  0.00    -0.241 NA
ATOM      5  C   UNL d   1      42.845 -15.675  37.608  0.00  0.00     0.100 A 
ATOM      6  C   UNL d   1      43.205 -15.463  36.888  0.00  0.00     0.099 A 
ATOM      7  C   UNL d   1      42.061 -15.459  37.764  0.00  0.00     0.021 A 
ATOM      8  C   UNL d   1      42.775 -15.039  36.335  0.00  0.00     0.021 A 
ATOM      9  C   UNL d   1      41.640 -15.034  37.203  0.00  0.00     0.002 A 
ATOM     10  C   UNL d   1      41.991 -14.819  36.483  0.00  0.00     0.002 A 
ENDROOT
BRANCH   2  11
ATOM     11  N   UNL d   1      44.619 -16.739  38.456  0.00  0.00    -0.189 NA
ATOM     12  C   UNL d   1      44.940 -17.177  38.846  0.00  0.00     0.076 A 
ATOM     13  C   UNL d   1      45.925 -17.225  39.164  0.00  0.00     0.093 A 
ATOM     14  N   UNL d   1      45.809 -17.970  39.637  0.00  0.00    -0.301 N 
ATOM     15  C   UNL d   1      45.521 -17.512  39.242  0.00  0.00     0.093 A 
ATOM     16  C   UNL d   1      44.477 -17.431  38.886  0.00  0.00     0.076 A 
BRANCH  14  17
ATOM     17  C   UNL d   1      45.931 -18.632  40.122  0.00  0.00     0.080 C 
BRANCH  17  18
ATOM     18  C   UNL d   1      46.050 -18.528  40.932  0.00  0.00     0.018 A 
ATOM     19  C   UNL d   1      46.530 -17.917  41.199  0.00  0.00     0.002 A 
ATOM     20  C   UNL d   1      46.646 -17.817  42.009  0.00  0.00     0.000 A 
ATOM     21  C   UNL d   1      46.282 -18.327  42.548  0.00  0.00     0.000 A 
ATOM     22  C   UNL d   1      45.801 -18.938  42.271  0.00  0.00     0.000 A 
ATOM     23  C   UNL d   1      45.686 -19.038  41.462  0.00  0.00     0.002 A 
ENDBRANCH  17  18
ENDBRANCH  14  17
ENDBRANCH   2  11
BRANCH   1  24
ATOM     24  C   UNL d   1      45.189 -16.395  37.298  0.00  0.00     0.104 C 
BRANCH  24  25
ATOM     25  C   UNL d   1      45.879 -15.941  37.175  0.00  0.00     0.303 C 
ATOM     26  O   UNL d   1      46.438 -16.185  36.619  0.00  0.00    -0.259 OA
BRANCH  25  27
ATOM     27  O   UNL d   1      45.998 -15.249  37.612  0.00  0.00    -0.271 OA
BRANCH  27  28
ATOM     28  C   UNL d   1      46.646 -14.764  37.455  0.00  0.00     0.126 C 
BRANCH  28  29
ATOM     29  C   UNL d   1      46.541 -13.956  37.335  0.00  0.00     0.025 C 
ATOM     30  C   UNL d   1      46.591 -13.436  37.969  0.00  0.00     0.002 C 
ATOM     31  C   UNL d   1      46.386 -13.668  36.575  0.00  0.00     0.002 C 
ENDBRANCH  28  29
ENDBRANCH  27  28
ENDBRANCH  25  27
ENDBRANCH  24  25
BRANCH  24  32
ATOM     32  C   UNL d   1      45.164 -17.205  37.440  0.00  0.00     0.129 C 
ATOM     33  N   UNL d   1      44.774 -17.777  36.980  0.00  0.00    -0.146 N 
ENDBRANCH  24  32
ENDBRANCH   1  24
TORSDOF 9
ENDMDL
MODEL 2
REMARK VINA RESULT:      68.2      1.161      2.917
REMARK  9 active torsions:
REMARK  status: ('A' for Active; 'I' for Inactive)
REMARK    1  A    between atoms: C_5  and  C_1 
REMARK    2  A    between atoms: N_6  and  C_2 
REMARK    3  A    between atoms: C_7  and  C_5 
REMARK    4  A    between atoms: C_8  and  C_5 
REMARK    5  A    between atoms: O_13  and  C_7 
REMARK    6  A    between atoms: C_17  and  N_12 
REMARK    7  A    between atoms: C_20  and  O_13 
REMARK    8  A    between atoms: C_21  and  C_17 
REMARK    9  A    between atoms: C_24  and  C_20 
ROOT
ATOM      1  C   UNL d   1      44.797 -15.311  37.233  0.00  0.00     0.117 A 
ATOM      2  C   UNL d   1      45.371 -15.418  37.811  0.00  0.00     0.145 A 
ATOM      3  N   UNL d   1      45.981 -14.864  37.902  0.00  0.00    -0.230 NA
ATOM      4  N   UNL d   1      44.829 -14.647  36.739  0.00  0.00    -0.241 NA
ATOM      5  C   UNL d   1      46.013 -14.200  37.408  0.00  0.00     0.100 A 
ATOM      6  C   UNL d   1      45.429 -14.096  36.824  0.00  0.00     0.099 A 
ATOM      7  C   UNL d   1      46.621 -13.644  37.495  0.00  0.00     0.021 A 
ATOM      8  C   UNL d   1      45.462 -13.439  36.336  0.00  0.00     0.021 A 
ATOM      9  C   UNL d   1      46.644 -12.990  37.002  0.00  0.00     0.002 A 
ATOM     10  C   UNL d   1      46.066 -12.879  36.417  0.00  0.00     0.002 A 
ENDROOT
BRANCH   2  11
ATOM     11  N   UNL d   1      45.202 -16.120  38.216  0.00  0.00    -0.189 NA
ATOM     12  C   UNL d   1      45.228 -16.703  38.541  0.00  0.00     0.076 A 
ATOM     13  C   UNL d   1      44.484 -17.309  38.933  0.00  0.00     0.093 A 
ATOM     14  N   UNL d   1      45.051 -17.925  39.238  0.00  0.00    -0.301 N 
ATOM     15  C   UNL d   1      44.985 -17.342  38.916  0.00  0.00     0.093 A 
ATOM     16  C   UNL d   1      45.754 -16.673  38.486  0.00  0.00     0.076 A 
BRANCH  14  17
ATOM     17  C   UNL d   1      45.376 -18.601  39.592  0.00  0.00     0.080 C 
BRANCH  17  18
ATOM     18  C   UNL d   1      45.725 -18.543  40.338  0.00  0.00     0.018 A 
ATOM     19  C   UNL d   1      45.730 -17.822  40.731  0.00  0.00     0.002 A 
ATOM     20  C   UNL d   1      46.080 -17.769  41.476  0.00  0.00     0.000 A 
ATOM     21  C   UNL d   1      46.422 -18.436  41.823  0.00  0.00     0.000 A 
ATOM     22  C   UNL d   1      46.413 -19.156  41.422  0.00  0.00     0.000 A 
ATOM     23  C   UNL d   1      46.064 -19.209  40.677  0.00  0.00     0.002 A 
ENDBRANCH  17  18
ENDBRANCH  14  17
ENDBRANCH   2  11
BRANCH   1  24
ATOM     24  C   UNL d   1      44.268 -15.946  37.276  0.00  0.00     0.104 C 
BRANCH  24  25
ATOM     25  C   UNL d   1      43.472 -15.904  37.525  0.00  0.00     0.303 C 
ATOM     26  O   UNL d   1      43.290 -15.950  38.328  0.00  0.00    -0.259 OA
BRANCH  25  27
ATOM     27  O   UNL d   1      42.871 -15.815  36.964  0.00  0.00    -0.271 OA
BRANCH  27  28
ATOM     28  C   UNL d   1      42.099 -15.653  37.204  0.00  0.00     0.126 C 
BRANCH  28  29
ATOM     29  C   UNL d   1      41.481 -15.672  36.659  0.00  0.00     0.025 C 
ATOM     30  C   UNL d   1      41.246 -16.388  36.330  0.00  0.00     0.002 C 
ATOM     31  C   UNL d   1      41.099 -14.972  36.443  0.00  0.00     0.002 C 
ENDBRANCH  28  29
ENDBRANCH  27  28
ENDBRANCH  25  27
ENDBRANCH  24  25
BRANCH  24  32
ATOM     32  C   UNL d   1      44.661 -16.627  37.032  0.00  0.00     0.129 C 
ATOM     33  N   UNL d   1      44.447 -17.120  36.397  0.00  0.00    -0.146 N 
ENDBRANCH  24  32
ENDBRANCH   1  24
TORSDOF 9
ENDMDL
