MODEL 1
REMARK VINA RESULT:      -5.4      0.000      0.000
REMARK  2 active torsions:
REMARK  status: ('A' for Active; 'I' for Inactive)
REMARK       I    between atoms: N_2  and  C_1 
REMARK    1  A    between atoms: C_4  and  C_1 
REMARK    2  A    between atoms: C_3  and  N_2 
ROOT
ATOM      1  C   UNL d   1      57.962  -0.455  30.421  0.00  0.00     0.085 A 
ATOM      2  C   UNL d   1      58.945  -0.606  29.407  0.00  0.00     0.002 A 
ATOM      3  C   UNL d   1      58.360  -0.925  29.896  0.00  0.00     0.018 A 
ATOM      4  C   UNL d   1      59.131   0.188  29.445  0.00  0.00     0.000 A 
ATOM      5  C   UNL d   1      59.349  -1.079  28.876  0.00  0.00     0.000 A 
ATOM      6  C   UNL d   1      58.144   0.356  30.469  0.00  0.00     0.019 A 
ATOM      7  C   UNL d   1      58.730   0.676  29.979  0.00  0.00     0.002 A 
ATOM      8  C   UNL d   1      59.728   0.343  28.899  0.00  0.00     0.000 A 
ATOM      9  C   UNL d   1      59.889  -0.613  28.472  0.00  0.00     0.000 A 
ATOM     10  C   UNL d   1      58.174  -1.721  29.857  0.00  0.00     0.002 A 
ATOM     11  C   UNL d   1      58.582  -2.220  29.314  0.00  0.00     0.000 A 
ATOM     12  C   UNL d   1      59.166  -1.900  28.826  0.00  0.00     0.000 A 
ENDROOT
BRANCH   1  13
ATOM     13  N   UNL d   1      57.383  -0.772  30.905  0.00  0.00    -0.206 NA
ATOM     14  C   UNL d   1      57.185  -0.381  31.584  0.00  0.00     0.302 C 
ATOM     15  O   UNL d   1      57.552   0.266  31.735  0.00  0.00    -0.263 OA
BRANCH  14  16
ATOM     16  C   UNL d   1      56.609  -0.646  32.116  0.00  0.00     0.158 A 
ATOM     17  O   UNL d   1      56.502  -1.432  32.324  0.00  0.00    -0.300 OA
ATOM     18  C   UNL d   1      55.863  -1.466  32.876  0.00  0.00     0.123 A 
ATOM     19  C   UNL d   1      55.590  -0.712  32.997  0.00  0.00     0.029 A 
ATOM     20  C   UNL d   1      56.035  -0.186  32.539  0.00  0.00     0.032 A 
ENDBRANCH  14  16
ENDBRANCH   1  13
TORSDOF 2
ENDMDL
MODEL 2
REMARK VINA RESULT:      -4.3      0.663      1.672
REMARK  2 active torsions:
REMARK  status: ('A' for Active; 'I' for Inactive)
REMARK       I    between atoms: N_2  and  C_1 
REMARK    1  A    between atoms: C_4  and  C_1 
REMARK    2  A    between atoms: C_3  and  N_2 
ROOT
ATOM      1  C   UNL d   1      58.201  -0.758  30.225  0.00  0.00     0.085 A 
ATOM      2  C   UNL d   1      59.295  -0.860  29.326  0.00  0.00     0.002 A 
ATOM      3  C   UNL d   1      58.857  -0.432  29.881  0.00  0.00     0.018 A 
ATOM      4  C   UNL d   1      59.074  -1.618  29.116  0.00  0.00     0.000 A 
ATOM      5  C   UNL d   1      59.958  -0.534  28.976  0.00  0.00     0.000 A 
ATOM      6  C   UNL d   1      57.966  -1.529  30.019  0.00  0.00     0.019 A 
ATOM      7  C   UNL d   1      58.405  -1.958  29.464  0.00  0.00     0.002 A 
ATOM      8  C   UNL d   1      59.610  -1.901  28.559  0.00  0.00     0.000 A 
ATOM      9  C   UNL d   1      60.274  -1.083  28.455  0.00  0.00     0.000 A 
ATOM     10  C   UNL d   1      59.079   0.327  30.090  0.00  0.00     0.002 A 
ATOM     11  C   UNL d   1      59.760   0.676  29.738  0.00  0.00     0.000 A 
ATOM     12  C   UNL d   1      60.198   0.247  29.183  0.00  0.00     0.000 A 
ENDROOT
BRANCH   1  13
ATOM     13  N   UNL d   1      57.767  -0.333  30.775  0.00  0.00    -0.206 NA
ATOM     14  C   UNL d   1      57.222  -0.722  31.227  0.00  0.00     0.302 C 
ATOM     15  O   UNL d   1      57.143  -1.468  31.114  0.00  0.00    -0.263 OA
BRANCH  14  16
ATOM     16  C   UNL d   1      56.751  -0.353  31.799  0.00  0.00     0.158 A 
ATOM     17  O   UNL d   1      56.571   0.447  31.801  0.00  0.00    -0.300 OA
ATOM     18  C   UNL d   1      56.082   0.598  32.473  0.00  0.00     0.123 A 
ATOM     19  C   UNL d   1      55.971  -0.101  32.869  0.00  0.00     0.029 A 
ATOM     20  C   UNL d   1      56.374  -0.705  32.473  0.00  0.00     0.032 A 
ENDBRANCH  14  16
ENDBRANCH   1  13
TORSDOF 2
ENDMDL
MODEL 3
REMARK VINA RESULT:      -4.1      1.310      1.773
REMARK  2 active torsions:
REMARK  status: ('A' for Active; 'I' for Inactive)
REMARK       I    between atoms: N_2  and  C_1 
REMARK    1  A    between atoms: C_4  and  C_1 
REMARK    2  A    between atoms: C_3  and  N_2 
ROOT
ATOM      1  C   UNL d   1      58.207   0.442  30.595  0.00  0.00     0.085 A 
ATOM      2  C   UNL d   1      59.452   0.520  29.918  0.00  0.00     0.002 A 
ATOM      3  C   UNL d   1      59.012   0.521  30.617  0.00  0.00     0.018 A 
ATOM      4  C   UNL d   1      59.083   0.441  29.194  0.00  0.00     0.000 A 
ATOM      5  C   UNL d   1      60.266   0.599  29.937  0.00  0.00     0.000 A 
ATOM      6  C   UNL d   1      57.819   0.361  29.863  0.00  0.00     0.019 A 
ATOM      7  C   UNL d   1      58.260   0.361  29.162  0.00  0.00     0.002 A 
ATOM      8  C   UNL d   1      59.658   0.460  28.604  0.00  0.00     0.000 A 
ATOM      9  C   UNL d   1      60.547   0.579  29.167  0.00  0.00     0.000 A 
ATOM     10  C   UNL d   1      59.382   0.600  31.343  0.00  0.00     0.002 A 
ATOM     11  C   UNL d   1      60.220   0.682  31.377  0.00  0.00     0.000 A 
ATOM     12  C   UNL d   1      60.660   0.682  30.677  0.00  0.00     0.000 A 
ENDROOT
BRANCH   1  13
ATOM     13  N   UNL d   1      57.771   0.443  31.289  0.00  0.00    -0.206 NA
ATOM     14  C   UNL d   1      57.147  -0.068  31.358  0.00  0.00     0.302 C 
ATOM     15  O   UNL d   1      57.001  -0.523  30.769  0.00  0.00    -0.263 OA
BRANCH  14  16
ATOM     16  C   UNL d   1      56.667  -0.118  32.030  0.00  0.00     0.158 A 
ATOM     17  O   UNL d   1      56.305   0.526  32.386  0.00  0.00    -0.300 OA
ATOM     18  C   UNL d   1      55.868   0.239  33.051  0.00  0.00     0.123 A 
ATOM     19  C   UNL d   1      55.968  -0.564  33.093  0.00  0.00     0.029 A 
ATOM     20  C   UNL d   1      56.458  -0.810  32.474  0.00  0.00     0.032 A 
ENDBRANCH  14  16
ENDBRANCH   1  13
TORSDOF 2
ENDMDL
MODEL 4
REMARK VINA RESULT:      -3.7      1.561      4.553
REMARK  2 active torsions:
REMARK  status: ('A' for Active; 'I' for Inactive)
REMARK       I    between atoms: N_2  and  C_1 
REMARK    1  A    between atoms: C_4  and  C_1 
REMARK    2  A    between atoms: C_3  and  N_2 
ROOT
ATOM      1  C   UNL d   1      57.209   0.655  32.171  0.00  0.00     0.085 A 
ATOM      2  C   UNL d   1      56.536   0.669  33.421  0.00  0.00     0.002 A 
ATOM      3  C   UNL d   1      57.234   0.664  32.980  0.00  0.00     0.018 A 
ATOM      4  C   UNL d   1      55.808   0.666  33.050  0.00  0.00     0.000 A 
ATOM      5  C   UNL d   1      56.559   0.678  34.239  0.00  0.00     0.000 A 
ATOM      6  C   UNL d   1      56.473   0.652  31.781  0.00  0.00     0.019 A 
ATOM      7  C   UNL d   1      55.773   0.657  32.223  0.00  0.00     0.002 A 
ATOM      8  C   UNL d   1      55.220   0.673  33.626  0.00  0.00     0.000 A 
ATOM      9  C   UNL d   1      55.788   0.682  34.520  0.00  0.00     0.000 A 
ATOM     10  C   UNL d   1      57.963   0.667  33.353  0.00  0.00     0.002 A 
ATOM     11  C   UNL d   1      58.000   0.676  34.195  0.00  0.00     0.000 A 
ATOM     12  C   UNL d   1      57.302   0.682  34.635  0.00  0.00     0.000 A 
ENDROOT
BRANCH   1  13
ATOM     13  N   UNL d   1      57.901   0.650  31.734  0.00  0.00    -0.206 NA
ATOM     14  C   UNL d   1      57.871   0.428  30.957  0.00  0.00     0.302 C 
ATOM     15  O   UNL d   1      57.194   0.236  30.675  0.00  0.00    -0.263 OA
BRANCH  14  16
ATOM     16  C   UNL d   1      58.533   0.401  30.461  0.00  0.00     0.158 A 
ATOM     17  O   UNL d   1      59.289   0.621  30.690  0.00  0.00    -0.300 OA
ATOM     18  C   UNL d   1      59.800   0.511  30.025  0.00  0.00     0.123 A 
ATOM     19  C   UNL d   1      59.357   0.230  29.407  0.00  0.00     0.029 A 
ATOM     20  C   UNL d   1      58.570   0.153  29.651  0.00  0.00     0.032 A 
ENDBRANCH  14  16
ENDBRANCH   1  13
TORSDOF 2
ENDMDL
MODEL 5
REMARK VINA RESULT:      -3.4      1.119      1.318
REMARK  2 active torsions:
REMARK  status: ('A' for Active; 'I' for Inactive)
REMARK       I    between atoms: N_2  and  C_1 
REMARK    1  A    between atoms: C_4  and  C_1 
REMARK    2  A    between atoms: C_3  and  N_2 
ROOT
ATOM      1  C   UNL d   1      58.203   0.237  31.001  0.00  0.00     0.085 A 
ATOM      2  C   UNL d   1      59.111   0.294  29.912  0.00  0.00     0.002 A 
ATOM      3  C   UNL d   1      58.360   0.129  30.214  0.00  0.00     0.018 A 
ATOM      4  C   UNL d   1      59.706   0.568  30.399  0.00  0.00     0.000 A 
ATOM      5  C   UNL d   1      59.273   0.187  29.117  0.00  0.00     0.000 A 
ATOM      6  C   UNL d   1      58.801   0.515  31.508  0.00  0.00     0.019 A 
ATOM      7  C   UNL d   1      59.554   0.681  31.204  0.00  0.00     0.002 A 
ATOM      8  C   UNL d   1      60.384   0.682  29.946  0.00  0.00     0.000 A 
ATOM      9  C   UNL d   1      60.055   0.394  28.981  0.00  0.00     0.000 A 
ATOM     10  C   UNL d   1      57.765  -0.145  29.725  0.00  0.00     0.002 A 
ATOM     11  C   UNL d   1      57.918  -0.260  28.905  0.00  0.00     0.000 A 
ATOM     12  C   UNL d   1      58.669  -0.095  28.602  0.00  0.00     0.000 A 
ENDROOT
BRANCH   1  13
ATOM     13  N   UNL d   1      57.458   0.073  31.301  0.00  0.00    -0.206 NA
ATOM     14  C   UNL d   1      57.315   0.212  32.084  0.00  0.00     0.302 C 
ATOM     15  O   UNL d   1      57.885   0.489  32.501  0.00  0.00    -0.263 OA
BRANCH  14  16
ATOM     16  C   UNL d   1      56.586   0.068  32.450  0.00  0.00     0.158 A 
ATOM     17  O   UNL d   1      56.054   0.655  32.661  0.00  0.00    -0.300 OA
ATOM     18  C   UNL d   1      55.385   0.278  33.016  0.00  0.00     0.123 A 
ATOM     19  C   UNL d   1      55.514  -0.522  33.018  0.00  0.00     0.029 A 
ATOM     20  C   UNL d   1      56.250  -0.678  32.673  0.00  0.00     0.032 A 
ENDBRANCH  14  16
ENDBRANCH   1  13
TORSDOF 2
ENDMDL
