MODEL 1
REMARK VINA RESULT:      84.8      0.000      0.000
REMARK  6 active torsions:
REMARK  status: ('A' for Active; 'I' for Inactive)
REMARK    1  A    between atoms: C_16  and  N_1 
REMARK    2  A    between atoms: C_11  and  C_2 
REMARK    3  A    between atoms: S_15  and  C_3 
REMARK    4  A    between atoms: C_8  and  C_11 
REMARK    5  A    between atoms: C_13  and  C_17 
REMARK       I    between atoms: N_14  and  C_13 
REMARK    6  A    between atoms: C_17  and  S_15 
ROOT
ATOM      1  N   UNL d   1      60.380  48.402  51.030  0.00  0.00    -0.269 N 
ATOM      2  C   UNL d   1      60.529  47.720  50.577  0.00  0.00     0.172 A 
ATOM      3  C   UNL d   1      59.583  48.585  50.939  0.00  0.00     0.201 A 
ATOM      4  N   UNL d   1      59.830  47.495  50.216  0.00  0.00    -0.128 NA
ATOM      5  N   UNL d   1      59.244  48.035  50.444  0.00  0.00    -0.121 NA
ENDROOT
BRANCH   3   6
ATOM      6  S   UNL d   1      59.178  49.228  51.292  0.00  0.00    -0.043 SA
BRANCH   6   7
ATOM      7  C   UNL d   1      58.659  49.692  50.834  0.00  0.00     0.099 C 
BRANCH   7   8
ATOM      8  C   UNL d   1      57.849  49.597  50.922  0.00  0.00     0.271 C 
ATOM      9  N   UNL d   1      57.357  49.602  50.261  0.00  0.00    -0.272 N 
ATOM     10  C   UNL d   1      56.537  49.506  50.347  0.00  0.00     0.083 A 
ATOM     11  C   UNL d   1      57.676  49.702  49.506  0.00  0.00     0.083 A 
ATOM     12  C   UNL d   1      56.045  49.511  49.686  0.00  0.00     0.019 A 
ATOM     13  C   UNL d   1      56.373  49.612  48.933  0.00  0.00     0.003 A 
ATOM     14  C   UNL d   1      57.184  49.707  48.844  0.00  0.00     0.019 A 
ATOM     15  O   UNL d   1      57.519  49.496  51.680  0.00  0.00    -0.266 OA
ENDBRANCH   7   8
ENDBRANCH   6   7
ENDBRANCH   3   6
BRANCH   1  16
ATOM     16  C   UNL d   1      60.902  48.836  51.493  0.00  0.00     0.067 A 
ATOM     17  C   UNL d   1      60.759  48.907  52.312  0.00  0.00     0.018 A 
ATOM     18  C   UNL d   1      61.282  49.345  52.788  0.00  0.00     0.002 A 
ATOM     19  C   UNL d   1      61.937  49.702  52.434  0.00  0.00     0.000 A 
ATOM     20  C   UNL d   1      62.082  49.637  51.634  0.00  0.00     0.002 A 
ATOM     21  C   UNL d   1      61.558  49.199  51.158  0.00  0.00     0.018 A 
ENDBRANCH   1  16
BRANCH   2  22
ATOM     22  C   UNL d   1      61.298  47.401  50.561  0.00  0.00     0.059 C 
BRANCH  22  23
ATOM     23  C   UNL d   1      61.421  46.645  50.237  0.00  0.00     0.094 A 
ATOM     24  C   UNL d   1      62.030  46.514  49.695  0.00  0.00     0.082 A 
ATOM     25  C   UNL d   1      62.143  45.764  49.380  0.00  0.00     0.285 A 
ATOM     26  O   UNL d   1      62.752  45.633  48.838  0.00  0.00    -0.265 OA
ATOM     27  N   UNL d   1      61.649  45.144  49.605  0.00  0.00    -0.152 NA
ATOM     28  C   UNL d   1      61.048  45.266  50.138  0.00  0.00     0.371 A 
ATOM     29  N   UNL d   1      60.927  46.025  50.462  0.00  0.00    -0.191 NA
ATOM     30  O   UNL d   1      60.557  44.619  50.352  0.00  0.00    -0.242 OA
ENDBRANCH  22  23
ENDBRANCH   2  22
TORSDOF 6
ENDMDL
