MODEL 1
REMARK VINA RESULT:      -8.9      0.000      0.000
REMARK  4 active torsions:
REMARK  status: ('A' for Active; 'I' for Inactive)
REMARK    1  A    between atoms: N_2  and  S_1 
REMARK    2  A    between atoms: C_3  and  S_1 
REMARK    3  A    between atoms: O_15  and  C_13 
REMARK    4  A    between atoms: C_19  and  O_15 
ROOT
ATOM      1  C   UNL d   1     -47.943  12.161  23.151  0.00  0.00     0.105 A 
ATOM      2  C   UNL d   1     -47.306  12.675  22.987  0.00  0.00     0.014 A 
ATOM      3  C   UNL d   1     -46.534  12.435  23.139  0.00  0.00     0.024 A 
ATOM      4  C   UNL d   1     -47.779  11.410  23.467  0.00  0.00     0.015 A 
ATOM      5  C   UNL d   1     -46.380  11.690  23.451  0.00  0.00     0.100 A 
ATOM      6  C   UNL d   1     -47.004  11.176  23.616  0.00  0.00     0.025 A 
ATOM      7  C   UNL d   1     -47.458  13.423  22.673  0.00  0.00     0.001 A 
ATOM      8  C   UNL d   1     -45.911  12.946  22.975  0.00  0.00     0.002 A 
ATOM      9  C   UNL d   1     -46.835  13.934  22.510  0.00  0.00     0.000 A 
ATOM     10  C   UNL d   1     -46.054  13.695  22.661  0.00  0.00     0.000 A 
ENDROOT
BRANCH   1  11
ATOM     11  S   UNL d   1     -48.718  12.394  23.002  0.00  0.00     0.286 S 
ATOM     12  O   UNL d   1     -48.717  12.841  23.697  0.00  0.00    -0.198 OA
ATOM     13  O   UNL d   1     -48.718  11.944  22.302  0.00  0.00    -0.198 OA
BRANCH  11  14
ATOM     14  N   UNL d   1     -49.505  12.631  22.850  0.00  0.00    -0.150 N 
ATOM     15  N   UNL d   1     -49.745  13.180  22.274  0.00  0.00    -0.155 NA
ATOM     16  C   UNL d   1     -50.567  13.248  22.316  0.00  0.00     0.104 A 
ATOM     17  C   UNL d   1     -51.044  13.735  21.842  0.00  0.00     0.022 C 
ATOM     18  C   UNL d   1     -50.835  12.742  22.918  0.00  0.00     0.042 A 
ATOM     19  C   UNL d   1     -50.177  12.364  23.244  0.00  0.00     0.115 A 
ENDBRANCH  11  14
ENDBRANCH   1  11
BRANCH   5  20
ATOM     20  O   UNL d   1     -45.605  11.457  23.600  0.00  0.00    -0.305 OA
BRANCH  20  21
ATOM     21  C   UNL d   1     -45.427  10.661  23.698  0.00  0.00     0.123 C 
ATOM     22  C   UNL d   1     -44.645  10.404  23.697  0.00  0.00     0.029 C 
ENDBRANCH  20  21
ENDBRANCH   5  20
TORSDOF 4
ENDMDL
MODEL 2
REMARK VINA RESULT:      -7.9      1.827      4.312
REMARK  4 active torsions:
REMARK  status: ('A' for Active; 'I' for Inactive)
REMARK    1  A    between atoms: N_2  and  S_1 
REMARK    2  A    between atoms: C_3  and  S_1 
REMARK    3  A    between atoms: O_15  and  C_13 
REMARK    4  A    between atoms: C_19  and  O_15 
ROOT
ATOM      1  C   UNL d   1     -47.949  13.669  22.832  0.00  0.00     0.105 A 
ATOM      2  C   UNL d   1     -48.614  13.164  22.841  0.00  0.00     0.014 A 
ATOM      3  C   UNL d   1     -49.367  13.478  22.951  0.00  0.00     0.024 A 
ATOM      4  C   UNL d   1     -48.065  14.486  22.936  0.00  0.00     0.015 A 
ATOM      5  C   UNL d   1     -49.473  14.286  23.053  0.00  0.00     0.100 A 
ATOM      6  C   UNL d   1     -48.821  14.792  23.045  0.00  0.00     0.025 A 
ATOM      7  C   UNL d   1     -48.509  12.352  22.739  0.00  0.00     0.001 A 
ATOM      8  C   UNL d   1     -50.017  12.976  22.959  0.00  0.00     0.002 A 
ATOM      9  C   UNL d   1     -49.159  11.850  22.747  0.00  0.00     0.000 A 
ATOM     10  C   UNL d   1     -49.921  12.163  22.858  0.00  0.00     0.000 A 
ENDROOT
BRANCH   1  11
ATOM     11  S   UNL d   1     -47.193  13.364  22.722  0.00  0.00     0.286 S 
ATOM     12  O   UNL d   1     -47.304  13.383  21.903  0.00  0.00    -0.198 OA
ATOM     13  O   UNL d   1     -47.081  13.344  23.547  0.00  0.00    -0.198 OA
BRANCH  11  14
ATOM     14  N   UNL d   1     -46.425  13.053  22.611  0.00  0.00    -0.150 N 
ATOM     15  N   UNL d   1     -45.865  13.327  22.062  0.00  0.00    -0.155 NA
ATOM     16  C   UNL d   1     -45.186  12.864  22.140  0.00  0.00     0.104 A 
ATOM     17  C   UNL d   1     -44.485  12.941  21.701  0.00  0.00     0.022 C 
ATOM     18  C   UNL d   1     -45.326  12.302  22.737  0.00  0.00     0.042 A 
ATOM     19  C   UNL d   1     -46.091  12.423  23.024  0.00  0.00     0.115 A 
ENDBRANCH  11  14
ENDBRANCH   1  11
BRANCH   5  20
ATOM     20  O   UNL d   1     -50.230  14.592  23.163  0.00  0.00    -0.305 OA
BRANCH  20  21
ATOM     21  C   UNL d   1     -50.327  15.370  23.407  0.00  0.00     0.123 C 
ATOM     22  C   UNL d   1     -51.064  15.643  23.652  0.00  0.00     0.029 C 
ENDBRANCH  20  21
ENDBRANCH   5  20
TORSDOF 4
ENDMDL
MODEL 3
REMARK VINA RESULT:      -7.0      1.804      3.932
REMARK  4 active torsions:
REMARK  status: ('A' for Active; 'I' for Inactive)
REMARK    1  A    between atoms: N_2  and  S_1 
REMARK    2  A    between atoms: C_3  and  S_1 
REMARK    3  A    between atoms: O_15  and  C_13 
REMARK    4  A    between atoms: C_19  and  O_15 
ROOT
ATOM      1  C   UNL d   1     -47.370  12.833  22.907  0.00  0.00     0.105 A 
ATOM      2  C   UNL d   1     -47.735  13.582  22.863  0.00  0.00     0.014 A 
ATOM      3  C   UNL d   1     -48.535  13.660  23.037  0.00  0.00     0.024 A 
ATOM      4  C   UNL d   1     -47.829  12.176  23.127  0.00  0.00     0.015 A 
ATOM      5  C   UNL d   1     -48.983  13.006  23.254  0.00  0.00     0.100 A 
ATOM      6  C   UNL d   1     -48.629  12.262  23.299  0.00  0.00     0.025 A 
ATOM      7  C   UNL d   1     -47.287  14.240  22.645  0.00  0.00     0.001 A 
ATOM      8  C   UNL d   1     -48.889  14.400  22.992  0.00  0.00     0.002 A 
ATOM      9  C   UNL d   1     -47.641  14.981  22.601  0.00  0.00     0.000 A 
ATOM     10  C   UNL d   1     -48.450  15.063  22.775  0.00  0.00     0.000 A 
ENDROOT
BRANCH   1  11
ATOM     11  S   UNL d   1     -46.569  12.747  22.735  0.00  0.00     0.286 S 
ATOM     12  O   UNL d   1     -46.752  12.644  21.935  0.00  0.00    -0.198 OA
ATOM     13  O   UNL d   1     -46.385  12.851  23.540  0.00  0.00    -0.198 OA
BRANCH  11  14
ATOM     14  N   UNL d   1     -45.756  12.660  22.560  0.00  0.00    -0.150 N 
ATOM     15  N   UNL d   1     -45.341  13.067  21.967  0.00  0.00    -0.155 NA
ATOM     16  C   UNL d   1     -44.555  12.812  21.988  0.00  0.00     0.104 A 
ATOM     17  C   UNL d   1     -43.941  13.072  21.493  0.00  0.00     0.022 C 
ATOM     18  C   UNL d   1     -44.485  12.248  22.595  0.00  0.00     0.042 A 
ATOM     19  C   UNL d   1     -45.228  12.158  22.944  0.00  0.00     0.115 A 
ENDBRANCH  11  14
ENDBRANCH   1  11
BRANCH   5  20
ATOM     20  O   UNL d   1     -49.783  13.092  23.426  0.00  0.00    -0.305 OA
BRANCH  20  21
ATOM     21  C   UNL d   1     -50.281  12.440  23.398  0.00  0.00     0.123 C 
ATOM     22  C   UNL d   1     -51.064  12.500  23.646  0.00  0.00     0.029 C 
ENDBRANCH  20  21
ENDBRANCH   5  20
TORSDOF 4
ENDMDL
MODEL 4
REMARK VINA RESULT:      -6.8      8.855      9.878
REMARK  4 active torsions:
REMARK  status: ('A' for Active; 'I' for Inactive)
REMARK    1  A    between atoms: N_2  and  S_1 
REMARK    2  A    between atoms: C_3  and  S_1 
REMARK    3  A    between atoms: O_15  and  C_13 
REMARK    4  A    between atoms: C_19  and  O_15 
ROOT
ATOM      1  C   UNL d   1     -40.045  15.019  19.219  0.00  0.00     0.105 A 
ATOM      2  C   UNL d   1     -39.777  14.562  18.575  0.00  0.00     0.014 A 
ATOM      3  C   UNL d   1     -40.094  14.683  17.824  0.00  0.00     0.024 A 
ATOM      4  C   UNL d   1     -40.632  15.593  19.086  0.00  0.00     0.015 A 
ATOM      5  C   UNL d   1     -40.674  15.251  17.701  0.00  0.00     0.100 A 
ATOM      6  C   UNL d   1     -40.944  15.708  18.333  0.00  0.00     0.025 A 
ATOM      7  C   UNL d   1     -39.194  13.990  18.696  0.00  0.00     0.001 A 
ATOM      8  C   UNL d   1     -39.826  14.229  17.194  0.00  0.00     0.002 A 
ATOM      9  C   UNL d   1     -38.927  13.536  18.066  0.00  0.00     0.000 A 
ATOM     10  C   UNL d   1     -39.244  13.656  17.307  0.00  0.00     0.000 A 
ENDROOT
BRANCH   1  11
ATOM     11  S   UNL d   1     -39.733  14.904  19.972  0.00  0.00     0.286 S 
ATOM     12  O   UNL d   1     -39.125  15.437  19.801  0.00  0.00    -0.198 OA
ATOM     13  O   UNL d   1     -40.346  14.368  20.143  0.00  0.00    -0.198 OA
BRANCH  11  14
ATOM     14  N   UNL d   1     -39.417  14.787  20.737  0.00  0.00    -0.150 N 
ATOM     15  N   UNL d   1     -39.506  14.103  21.200  0.00  0.00    -0.155 NA
ATOM     16  C   UNL d   1     -39.105  14.225  21.912  0.00  0.00     0.104 A 
ATOM     17  C   UNL d   1     -39.047  13.687  22.542  0.00  0.00     0.022 C 
ATOM     18  C   UNL d   1     -38.768  14.985  21.889  0.00  0.00     0.042 A 
ATOM     19  C   UNL d   1     -38.963  15.327  21.163  0.00  0.00     0.115 A 
ENDBRANCH  11  14
ENDBRANCH   1  11
BRANCH   5  20
ATOM     20  O   UNL d   1     -40.985  15.367  16.948  0.00  0.00    -0.305 OA
BRANCH  20  21
ATOM     21  C   UNL d   1     -41.594  15.906  16.834  0.00  0.00     0.123 C 
ATOM     22  C   UNL d   1     -42.011  15.922  16.124  0.00  0.00     0.029 C 
ENDBRANCH  20  21
ENDBRANCH   5  20
TORSDOF 4
ENDMDL
MODEL 5
REMARK VINA RESULT:      -6.7      8.567      9.323
REMARK  4 active torsions:
REMARK  status: ('A' for Active; 'I' for Inactive)
REMARK    1  A    between atoms: N_2  and  S_1 
REMARK    2  A    between atoms: C_3  and  S_1 
REMARK    3  A    between atoms: O_15  and  C_13 
REMARK    4  A    between atoms: C_19  and  O_15 
ROOT
ATOM      1  C   UNL d   1     -39.730  14.788  19.220  0.00  0.00     0.105 A 
ATOM      2  C   UNL d   1     -40.031  15.067  19.946  0.00  0.00     0.014 A 
ATOM      3  C   UNL d   1     -39.738  14.768  20.655  0.00  0.00     0.024 A 
ATOM      4  C   UNL d   1     -39.134  14.208  19.229  0.00  0.00     0.015 A 
ATOM      5  C   UNL d   1     -39.150  14.195  20.656  0.00  0.00     0.100 A 
ATOM      6  C   UNL d   1     -38.847  13.914  19.942  0.00  0.00     0.025 A 
ATOM      7  C   UNL d   1     -40.622  15.643  19.947  0.00  0.00     0.001 A 
ATOM      8  C   UNL d   1     -40.039  15.047  21.367  0.00  0.00     0.002 A 
ATOM      9  C   UNL d   1     -40.923  15.922  20.659  0.00  0.00     0.000 A 
ATOM     10  C   UNL d   1     -40.630  15.622  21.377  0.00  0.00     0.000 A 
ENDROOT
BRANCH   1  11
ATOM     11  S   UNL d   1     -40.017  15.082  18.507  0.00  0.00     0.286 S 
ATOM     12  O   UNL d   1     -39.482  15.711  18.551  0.00  0.00    -0.198 OA
ATOM     13  O   UNL d   1     -40.556  14.449  18.463  0.00  0.00    -0.198 OA
BRANCH  11  14
ATOM     14  N   UNL d   1     -40.310  15.381  17.783  0.00  0.00    -0.150 N 
ATOM     15  N   UNL d   1     -41.109  15.414  17.558  0.00  0.00    -0.155 NA
ATOM     16  C   UNL d   1     -41.147  15.748  16.803  0.00  0.00     0.104 A 
ATOM     17  C   UNL d   1     -41.836  15.887  16.362  0.00  0.00     0.022 C 
ATOM     18  C   UNL d   1     -40.371  15.922  16.562  0.00  0.00     0.042 A 
ATOM     19  C   UNL d   1     -39.859  15.694  17.169  0.00  0.00     0.115 A 
ENDBRANCH  11  14
ENDBRANCH   1  11
BRANCH   5  20
ATOM     20  O   UNL d   1     -38.862  13.900  21.369  0.00  0.00    -0.305 OA
BRANCH  20  21
ATOM     21  C   UNL d   1     -38.259  13.343  21.370  0.00  0.00     0.123 C 
ATOM     22  C   UNL d   1     -37.958  13.053  22.079  0.00  0.00     0.029 C 
ENDBRANCH  20  21
ENDBRANCH   5  20
TORSDOF 4
ENDMDL
MODEL 6
REMARK VINA RESULT:      -6.6      8.562     10.059
REMARK  4 active torsions:
REMARK  status: ('A' for Active; 'I' for Inactive)
REMARK    1  A    between atoms: N_2  and  S_1 
REMARK    2  A    between atoms: C_3  and  S_1 
REMARK    3  A    between atoms: O_15  and  C_13 
REMARK    4  A    between atoms: C_19  and  O_15 
ROOT
ATOM      1  C   UNL d   1     -39.501  14.607  18.559  0.00  0.00     0.105 A 
ATOM      2  C   UNL d   1     -39.935  14.977  17.949  0.00  0.00     0.014 A 
ATOM      3  C   UNL d   1     -39.743  14.832  17.162  0.00  0.00     0.024 A 
ATOM      4  C   UNL d   1     -38.880  14.094  18.355  0.00  0.00     0.015 A 
ATOM      5  C   UNL d   1     -39.126  14.324  16.968  0.00  0.00     0.100 A 
ATOM      6  C   UNL d   1     -38.694  13.954  17.566  0.00  0.00     0.025 A 
ATOM      7  C   UNL d   1     -40.554  15.487  18.142  0.00  0.00     0.001 A 
ATOM      8  C   UNL d   1     -40.172  15.199  16.566  0.00  0.00     0.002 A 
ATOM      9  C   UNL d   1     -40.983  15.855  17.546  0.00  0.00     0.000 A 
ATOM     10  C   UNL d   1     -40.793  15.711  16.750  0.00  0.00     0.000 A 
ENDROOT
BRANCH   1  11
ATOM     11  S   UNL d   1     -39.688  14.747  19.349  0.00  0.00     0.286 S 
ATOM     12  O   UNL d   1     -39.171  15.393  19.356  0.00  0.00    -0.198 OA
ATOM     13  O   UNL d   1     -40.207  14.097  19.342  0.00  0.00    -0.198 OA
BRANCH  11  14
ATOM     14  N   UNL d   1     -39.877  14.889  20.151  0.00  0.00    -0.150 N 
ATOM     15  N   UNL d   1     -39.560  15.494  20.625  0.00  0.00    -0.155 NA
ATOM     16  C   UNL d   1     -39.898  15.431  21.375  0.00  0.00     0.104 A 
ATOM     17  C   UNL d   1     -39.742  15.922  22.027  0.00  0.00     0.022 C 
ATOM     18  C   UNL d   1     -40.425  14.788  21.366  0.00  0.00     0.042 A 
ATOM     19  C   UNL d   1     -40.408  14.458  20.609  0.00  0.00     0.115 A 
ENDBRANCH  11  14
ENDBRANCH   1  11
BRANCH   5  20
ATOM     20  O   UNL d   1     -38.940  14.184  16.179  0.00  0.00    -0.305 OA
BRANCH  20  21
ATOM     21  C   UNL d   1     -38.261  13.765  15.985  0.00  0.00     0.123 C 
ATOM     22  C   UNL d   1     -38.054  13.644  15.198  0.00  0.00     0.029 C 
ENDBRANCH  20  21
ENDBRANCH   5  20
TORSDOF 4
ENDMDL
MODEL 7
REMARK VINA RESULT:      -6.1      8.884     10.389
REMARK  4 active torsions:
REMARK  status: ('A' for Active; 'I' for Inactive)
REMARK    1  A    between atoms: N_2  and  S_1 
REMARK    2  A    between atoms: C_3  and  S_1 
REMARK    3  A    between atoms: O_15  and  C_13 
REMARK    4  A    between atoms: C_19  and  O_15 
ROOT
ATOM      1  C   UNL d   1     -39.523  14.894  18.028  0.00  0.00     0.105 A 
ATOM      2  C   UNL d   1     -39.112  14.246  17.698  0.00  0.00     0.014 A 
ATOM      3  C   UNL d   1     -38.745  14.322  16.966  0.00  0.00     0.024 A 
ATOM      4  C   UNL d   1     -39.552  15.608  17.603  0.00  0.00     0.015 A 
ATOM      5  C   UNL d   1     -38.778  15.032  16.552  0.00  0.00     0.100 A 
ATOM      6  C   UNL d   1     -39.182  15.676  16.871  0.00  0.00     0.025 A 
ATOM      7  C   UNL d   1     -39.078  13.533  18.112  0.00  0.00     0.001 A 
ATOM      8  C   UNL d   1     -38.342  13.681  16.646  0.00  0.00     0.002 A 
ATOM      9  C   UNL d   1     -38.675  12.892  17.793  0.00  0.00     0.000 A 
ATOM     10  C   UNL d   1     -38.303  12.965  17.053  0.00  0.00     0.000 A 
ENDROOT
BRANCH   1  11
ATOM     11  S   UNL d   1     -39.893  14.826  18.760  0.00  0.00     0.286 S 
ATOM     12  O   UNL d   1     -39.199  15.077  19.134  0.00  0.00    -0.198 OA
ATOM     13  O   UNL d   1     -40.591  14.573  18.384  0.00  0.00    -0.198 OA
BRANCH  11  14
ATOM     14  N   UNL d   1     -40.268  14.757  19.504  0.00  0.00    -0.150 N 
ATOM     15  N   UNL d   1     -40.912  14.261  19.679  0.00  0.00    -0.155 NA
ATOM     16  C   UNL d   1     -41.105  14.367  20.475  0.00  0.00     0.104 A 
ATOM     17  C   UNL d   1     -41.714  13.983  20.888  0.00  0.00     0.022 C 
ATOM     18  C   UNL d   1     -40.581  14.929  20.792  0.00  0.00     0.042 A 
ATOM     19  C   UNL d   1     -40.067  15.166  20.190  0.00  0.00     0.115 A 
ENDBRANCH  11  14
ENDBRANCH   1  11
BRANCH   5  20
ATOM     20  O   UNL d   1     -38.408  15.100  15.820  0.00  0.00    -0.305 OA
BRANCH  20  21
ATOM     21  C   UNL d   1     -38.237  15.842  15.514  0.00  0.00     0.123 C 
ATOM     22  C   UNL d   1     -37.940  15.922  14.750  0.00  0.00     0.029 C 
ENDBRANCH  20  21
ENDBRANCH   5  20
TORSDOF 4
ENDMDL
