MODEL 1
REMARK VINA RESULT:      25.2      0.000      0.000
REMARK  3 active torsions:
REMARK  status: ('A' for Active; 'I' for Inactive)
REMARK    1  A    between atoms: C_8  and  C_3 
REMARK    2  A    between atoms: O_18  and  C_12 
REMARK    3  A    between atoms: O_19  and  C_13 
ROOT
ATOM      1  S   UNL d   1      46.193 -17.874  44.294  0.00  0.00     0.211 S 
ATOM      2  C   UNL d   1      46.322 -18.723  44.133  0.00  0.00     0.103 A 
ATOM      3  C   UNL d   1      46.005 -17.258  43.735  0.00  0.00     0.093 A 
ATOM      4  N   UNL d   1      46.133 -18.744  42.771  0.00  0.00    -0.321 N 
ATOM      5  C   UNL d   1      45.962 -17.947  42.565  0.00  0.00     0.258 A 
ATOM      6  C   UNL d   1      46.282 -19.081  43.399  0.00  0.00     0.070 A 
ATOM      7  C   UNL d   1      45.907 -17.344  42.931  0.00  0.00     0.072 A 
ATOM      8  O   UNL d   1      46.202 -17.405  44.953  0.00  0.00    -0.217 OA
ATOM      9  O   UNL d   1      46.384 -18.476  44.887  0.00  0.00    -0.217 OA
ATOM     10  O   UNL d   1      45.815 -17.832  41.663  0.00  0.00    -0.267 OA
ATOM     11  C   UNL d   1      46.495 -19.167  44.802  0.00  0.00     0.013 A 
ATOM     12  C   UNL d   1      46.414 -19.881  43.327  0.00  0.00     0.018 A 
ATOM     13  C   UNL d   1      46.630 -19.982  44.734  0.00  0.00     0.001 A 
ATOM     14  C   UNL d   1      46.587 -20.328  43.987  0.00  0.00     0.002 A 
ATOM     15  H   UNL d   1      46.131 -19.249  42.116  0.00  0.00     0.169 HD
ENDROOT
BRANCH   3  16
ATOM     16  C   UNL d   1      45.911 -16.492  44.040  0.00  0.00     0.013 A 
ATOM     17  C   UNL d   1      45.181 -16.252  44.346  0.00  0.00     0.027 A 
ATOM     18  C   UNL d   1      45.097 -15.488  44.649  0.00  0.00     0.116 A 
ATOM     19  C   UNL d   1      45.725 -14.972  44.648  0.00  0.00     0.116 A 
ATOM     20  C   UNL d   1      46.462 -15.207  44.342  0.00  0.00     0.026 A 
ATOM     21  C   UNL d   1      46.559 -15.969  44.036  0.00  0.00     0.003 A 
BRANCH  18  22
ATOM     22  O   UNL d   1      44.365 -15.248  44.955  0.00  0.00    -0.326 OA
ATOM     23  C   UNL d   1      43.895 -14.710  44.545  0.00  0.00     0.181 C 
ENDBRANCH  18  22
BRANCH  19  24
ATOM     24  O   UNL d   1      45.635 -14.204  44.953  0.00  0.00    -0.326 OA
ATOM     25  C   UNL d   1      46.111 -13.597  44.684  0.00  0.00     0.181 C 
ENDBRANCH  19  24
ENDBRANCH   3  16
TORSDOF 3
ENDMDL
MODEL 2
REMARK VINA RESULT:      26.5      1.030      2.067
REMARK  3 active torsions:
REMARK  status: ('A' for Active; 'I' for Inactive)
REMARK    1  A    between atoms: C_8  and  C_3 
REMARK    2  A    between atoms: O_18  and  C_12 
REMARK    3  A    between atoms: O_19  and  C_13 
ROOT
ATOM      1  S   UNL d   1      46.063 -18.054  42.930  0.00  0.00     0.211 S 
ATOM      2  C   UNL d   1      46.257 -18.769  42.467  0.00  0.00     0.103 A 
ATOM      3  C   UNL d   1      46.064 -17.961  43.777  0.00  0.00     0.093 A 
ATOM      4  N   UNL d   1      46.549 -19.644  43.487  0.00  0.00    -0.321 N 
ATOM      5  C   UNL d   1      46.442 -19.198  44.192  0.00  0.00     0.258 A 
ATOM      6  C   UNL d   1      46.480 -19.492  42.779  0.00  0.00     0.070 A 
ATOM      7  C   UNL d   1      46.250 -18.531  44.328  0.00  0.00     0.072 A 
ATOM      8  O   UNL d   1      45.835 -17.298  42.751  0.00  0.00    -0.217 OA
ATOM      9  O   UNL d   1      46.051 -18.114  42.065  0.00  0.00    -0.217 OA
ATOM     10  O   UNL d   1      46.611 -19.685  44.955  0.00  0.00    -0.267 OA
ATOM     11  C   UNL d   1      46.200 -18.668  41.654  0.00  0.00     0.013 A 
ATOM     12  C   UNL d   1      46.647 -20.115  42.282  0.00  0.00     0.018 A 
ATOM     13  C   UNL d   1      46.369 -19.300  41.145  0.00  0.00     0.001 A 
ATOM     14  C   UNL d   1      46.592 -20.022  41.475  0.00  0.00     0.002 A 
ATOM     15  H   UNL d   1      46.783 -20.424  43.637  0.00  0.00     0.169 HD
ENDROOT
BRANCH   3  16
ATOM     16  C   UNL d   1      45.855 -17.214  44.072  0.00  0.00     0.013 A 
ATOM     17  C   UNL d   1      46.232 -16.534  43.789  0.00  0.00     0.027 A 
ATOM     18  C   UNL d   1      46.017 -15.795  44.088  0.00  0.00     0.116 A 
ATOM     19  C   UNL d   1      45.440 -15.731  44.656  0.00  0.00     0.116 A 
ATOM     20  C   UNL d   1      45.056 -16.410  44.945  0.00  0.00     0.026 A 
ATOM     21  C   UNL d   1      45.262 -17.157  44.654  0.00  0.00     0.003 A 
BRANCH  18  22
ATOM     22  O   UNL d   1      46.395 -15.115  43.805  0.00  0.00    -0.326 OA
ATOM     23  C   UNL d   1      46.461 -14.443  44.277  0.00  0.00     0.181 C 
ENDBRANCH  18  22
BRANCH  19  24
ATOM     24  O   UNL d   1      45.227 -14.984  44.954  0.00  0.00    -0.326 OA
ATOM     25  C   UNL d   1      44.485 -14.677  44.802  0.00  0.00     0.181 C 
ENDBRANCH  19  24
ENDBRANCH   3  16
TORSDOF 3
ENDMDL
