MODEL 1
REMARK VINA RESULT:      32.0      0.000      0.000
REMARK  4 active torsions:
REMARK  status: ('A' for Active; 'I' for Inactive)
REMARK    1  A    between atoms: N_7  and  C_3 
REMARK       I    between atoms: C_8  and  N_7 
REMARK    2  A    between atoms: C_10  and  C_8 
REMARK    3  A    between atoms: C_12  and  C_10 
REMARK    4  A    between atoms: C_16  and  C_12 
ROOT
ATOM      1  N   UNL d   1      14.002  12.802  -2.808  0.00  0.00    -0.190 NA
ATOM      2  C   UNL d   1      13.440  12.202  -2.798  0.00  0.00     0.281 C 
ATOM      3  O   UNL d   1      13.252  11.824  -2.090  0.00  0.00    -0.265 OA
ENDROOT
BRANCH   1   4
ATOM      4  C   UNL d   1      14.380  13.028  -2.108  0.00  0.00     0.159 A 
ATOM      5  N   UNL d   1      14.537  13.820  -1.957  0.00  0.00    -0.241 N 
ATOM      6  C   UNL d   1      14.910  14.041  -1.265  0.00  0.00     0.343 A 
ATOM      7  C   UNL d   1      14.315  14.393  -2.508  0.00  0.00     0.105 C 
ATOM      8  N   UNL d   1      15.131  13.468  -0.715  0.00  0.00    -0.224 N 
ATOM      9  O   UNL d   1      15.066  14.839  -1.115  0.00  0.00    -0.245 OA
ATOM     10  C   UNL d   1      14.981  12.668  -0.851  0.00  0.00     0.271 A 
ATOM     11  C   UNL d   1      15.509  13.692  -0.014  0.00  0.00     0.107 C 
ATOM     12  C   UNL d   1      14.602  12.454  -1.558  0.00  0.00     0.099 A 
ATOM     13  O   UNL d   1      15.201  12.100  -0.306  0.00  0.00    -0.266 OA
ENDBRANCH   1   4
BRANCH   2  14
ATOM     14  C   UNL d   1      13.065  11.979  -3.497  0.00  0.00     0.063 C 
BRANCH  14  15
ATOM     15  C   UNL d   1      13.512  11.779  -4.153  0.00  0.00     0.005 C 
BRANCH  15  16
ATOM     16  C   UNL d   1      13.367  12.128  -4.873  0.00  0.00     0.000 A 
ATOM     17  C   UNL d   1      13.682  11.786  -5.558  0.00  0.00     0.000 A 
ATOM     18  C   UNL d   1      13.537  12.138  -6.303  0.00  0.00     0.000 A 
ATOM     19  C   UNL d   1      13.088  12.811  -6.345  0.00  0.00     0.000 A 
ATOM     20  C   UNL d   1      12.771  13.155  -5.663  0.00  0.00     0.000 A 
ATOM     21  C   UNL d   1      12.916  12.804  -4.920  0.00  0.00     0.000 A 
ENDBRANCH  15  16
ENDBRANCH  14  15
ENDBRANCH   2  14
TORSDOF 4
ENDMDL
