MODEL 1
REMARK VINA RESULT:      -9.8      0.000      0.000
REMARK  8 active torsions:
REMARK  status: ('A' for Active; 'I' for Inactive)
REMARK    1  A    between atoms: N_5  and  C_1 
REMARK    2  A    between atoms: N_8  and  C_3 
REMARK    3  A    between atoms: C_17  and  N_8 
REMARK    4  A    between atoms: C_28  and  N_9 
REMARK    5  A    between atoms: C_10  and  C_17 
REMARK    6  A    between atoms: C_20  and  O_27 
REMARK    7  A    between atoms: O_27  and  C_29 
REMARK    8  A    between atoms: C_29  and  C_28 
ROOT
ATOM      1  C   UNL d   1      52.450  33.609  53.428  0.00  0.00     0.737 A 
ATOM      2  N   UNL d   1      52.807  32.890  53.337  0.00  0.00    -0.041 NA
ATOM      3  C   UNL d   1      53.485  32.722  53.726  0.00  0.00     0.182 A 
ATOM      4  N   UNL d   1      52.780  34.161  53.916  0.00  0.00    -0.060 NA
ATOM      5  C   UNL d   1      53.816  33.271  54.213  0.00  0.00     0.055 A 
ATOM      6  C   UNL d   1      53.469  33.987  54.310  0.00  0.00     0.103 A 
ATOM      7  C   UNL d   1      54.497  33.099  54.602  0.00  0.00     0.005 A 
ATOM      8  C   UNL d   1      53.802  34.535  54.798  0.00  0.00     0.020 A 
ATOM      9  C   UNL d   1      54.824  33.640  55.082  0.00  0.00     0.000 A 
ATOM     10  C   UNL d   1      54.477  34.357  55.180  0.00  0.00     0.002 A 
ENDROOT
BRANCH   1  11
ATOM     11  N   UNL d   1      51.755  33.785  53.031  0.00  0.00    -0.134 N 
ATOM     12  C   UNL d   1      51.018  33.586  53.371  0.00  0.00     0.117 A 
ATOM     13  C   UNL d   1      50.320  33.764  52.970  0.00  0.00     0.100 A 
ATOM     14  N   UNL d   1      50.344  34.139  52.233  0.00  0.00    -0.298 N 
ATOM     15  C   UNL d   1      51.081  34.338  51.893  0.00  0.00     0.100 A 
ATOM     16  C   UNL d   1      51.781  34.158  52.297  0.00  0.00     0.117 A 
BRANCH  14  17
ATOM     17  C   UNL d   1      49.646  34.317  51.831  0.00  0.00     0.107 C 
BRANCH  17  18
ATOM     18  C   UNL d   1      49.101  34.851  52.154  0.00  0.00     0.142 C 
BRANCH  18  19
ATOM     19  O   UNL d   1      48.522  35.211  51.675  0.00  0.00    -0.304 OA
BRANCH  19  20
ATOM     20  C   UNL d   1      47.869  35.582  52.009  0.00  0.00     0.100 A 
ATOM     21  C   UNL d   1      47.943  35.982  52.736  0.00  0.00     0.025 A 
ATOM     22  C   UNL d   1      47.286  36.354  53.068  0.00  0.00     0.002 A 
ATOM     23  C   UNL d   1      46.546  36.332  52.680  0.00  0.00     0.000 A 
ATOM     24  C   UNL d   1      46.473  35.932  51.954  0.00  0.00     0.002 A 
ATOM     25  C   UNL d   1      45.885  36.709  53.019  0.00  0.00     0.000 C 
ATOM     26  C   UNL d   1      47.142  35.556  51.620  0.00  0.00     0.025 A 
ENDBRANCH  19  20
ENDBRANCH  18  19
ENDBRANCH  17  18
ENDBRANCH  14  17
ENDBRANCH   1  11
BRANCH   3  27
ATOM     27  N   UNL d   1      53.827  32.015  53.630  0.00  0.00    -0.223 NA
BRANCH  27  28
ATOM     28  C   UNL d   1      53.402  31.375  53.606  0.00  0.00     0.125 C 
BRANCH  28  29
ATOM     29  C   UNL d   1      53.310  30.495  53.790  0.00  0.00     0.119 A 
ATOM     30  O   UNL d   1      53.440  29.772  54.523  0.00  0.00    -0.304 OA
ATOM     31  C   UNL d   1      53.126  28.827  54.111  0.00  0.00     0.123 A 
ATOM     32  C   UNL d   1      52.947  29.258  53.385  0.00  0.00     0.029 A 
ATOM     33  C   UNL d   1      53.019  29.950  53.240  0.00  0.00     0.028 A 
ENDBRANCH  28  29
ENDBRANCH  27  28
ENDBRANCH   3  27
TORSDOF 8
ENDMDL
MODEL 2
REMARK VINA RESULT:      -8.2      1.185      2.809
REMARK  8 active torsions:
REMARK  status: ('A' for Active; 'I' for Inactive)
REMARK    1  A    between atoms: N_5  and  C_1 
REMARK    2  A    between atoms: N_8  and  C_3 
REMARK    3  A    between atoms: C_17  and  N_8 
REMARK    4  A    between atoms: C_28  and  N_9 
REMARK    5  A    between atoms: C_10  and  C_17 
REMARK    6  A    between atoms: C_20  and  O_27 
REMARK    7  A    between atoms: O_27  and  C_29 
REMARK    8  A    between atoms: C_29  and  C_28 
ROOT
ATOM      1  C   UNL d   1      52.127  32.396  53.029  0.00  0.00     0.737 A 
ATOM      2  N   UNL d   1      52.877  32.555  53.281  0.00  0.00    -0.041 NA
ATOM      3  C   UNL d   1      53.392  31.959  53.417  0.00  0.00     0.182 A 
ATOM      4  N   UNL d   1      51.895  31.632  52.913  0.00  0.00    -0.060 NA
ATOM      5  C   UNL d   1      53.165  31.196  53.303  0.00  0.00     0.055 A 
ATOM      6  C   UNL d   1      52.422  31.028  53.052  0.00  0.00     0.103 A 
ATOM      7  C   UNL d   1      53.686  30.600  53.441  0.00  0.00     0.005 A 
ATOM      8  C   UNL d   1      52.195  30.264  52.939  0.00  0.00     0.020 A 
ATOM      9  C   UNL d   1      53.461  29.847  53.328  0.00  0.00     0.000 A 
ATOM     10  C   UNL d   1      52.717  29.679  53.078  0.00  0.00     0.002 A 
ENDROOT
BRANCH   1  11
ATOM     11  N   UNL d   1      51.595  33.004  52.888  0.00  0.00    -0.134 N 
ATOM     12  C   UNL d   1      50.886  33.051  53.329  0.00  0.00     0.117 A 
ATOM     13  C   UNL d   1      50.353  33.662  53.185  0.00  0.00     0.100 A 
ATOM     14  N   UNL d   1      50.514  34.232  52.607  0.00  0.00    -0.298 N 
ATOM     15  C   UNL d   1      51.222  34.186  52.165  0.00  0.00     0.100 A 
ATOM     16  C   UNL d   1      51.756  33.571  52.311  0.00  0.00     0.117 A 
BRANCH  14  17
ATOM     17  C   UNL d   1      49.980  34.844  52.463  0.00  0.00     0.107 C 
BRANCH  17  18
ATOM     18  C   UNL d   1      49.380  35.014  53.007  0.00  0.00     0.142 C 
BRANCH  18  19
ATOM     19  O   UNL d   1      49.071  35.784  53.075  0.00  0.00    -0.304 OA
BRANCH  19  20
ATOM     20  C   UNL d   1      48.288  35.908  53.292  0.00  0.00     0.100 A 
ATOM     21  C   UNL d   1      47.698  35.972  52.707  0.00  0.00     0.025 A 
ATOM     22  C   UNL d   1      46.914  36.097  52.928  0.00  0.00     0.002 A 
ATOM     23  C   UNL d   1      46.705  36.159  53.734  0.00  0.00     0.000 A 
ATOM     24  C   UNL d   1      47.295  36.094  54.318  0.00  0.00     0.002 A 
ATOM     25  C   UNL d   1      45.911  36.284  53.953  0.00  0.00     0.000 C 
ATOM     26  C   UNL d   1      48.091  35.968  54.091  0.00  0.00     0.025 A 
ENDBRANCH  19  20
ENDBRANCH  18  19
ENDBRANCH  17  18
ENDBRANCH  14  17
ENDBRANCH   1  11
BRANCH   3  27
ATOM     27  N   UNL d   1      54.126  32.125  53.665  0.00  0.00    -0.223 NA
BRANCH  27  28
ATOM     28  C   UNL d   1      54.258  32.728  54.123  0.00  0.00     0.125 C 
BRANCH  28  29
ATOM     29  C   UNL d   1      54.843  33.285  54.526  0.00  0.00     0.119 A 
ATOM     30  O   UNL d   1      55.745  33.784  54.409  0.00  0.00    -0.304 OA
ATOM     31  C   UNL d   1      55.933  34.340  55.313  0.00  0.00     0.123 A 
ATOM     32  C   UNL d   1      55.185  34.022  55.606  0.00  0.00     0.029 A 
ATOM     33  C   UNL d   1      54.725  33.584  55.289  0.00  0.00     0.028 A 
ENDBRANCH  28  29
ENDBRANCH  27  28
ENDBRANCH   3  27
TORSDOF 8
ENDMDL
