MODEL 1
REMARK VINA RESULT:      11.3      0.000      0.000
REMARK  2 active torsions:
REMARK  status: ('A' for Active; 'I' for Inactive)
REMARK    1  A    between atoms: C_6  and  C_1 
REMARK    2  A    between atoms: C_8  and  C_5 
ROOT
ATOM      1  C   UNL d   1      57.587  49.666  50.309  0.00  0.00     0.169 A 
ATOM      2  C   UNL d   1      58.377  49.656  50.054  0.00  0.00     0.048 A 
ATOM      3  N   UNL d   1      58.373  49.707  51.382  0.00  0.00    -0.148 NA
ATOM      4  N   UNL d   1      57.585  49.698  51.137  0.00  0.00    -0.142 NA
ATOM      5  C   UNL d   1      58.854  49.682  50.707  0.00  0.00     0.105 A 
ENDROOT
BRANCH   1   6
ATOM      6  C   UNL d   1      56.918  49.647  49.828  0.00  0.00     0.231 C 
ATOM      7  O   UNL d   1      56.996  49.671  49.007  0.00  0.00    -0.643 OA
ATOM      8  O   UNL d   1      56.167  49.604  50.171  0.00  0.00    -0.643 OA
ENDBRANCH   1   6
BRANCH   5   9
ATOM      9  C   UNL d   1      59.681  49.682  50.700  0.00  0.00     0.019 C 
ATOM     10  C   UNL d   1      60.098  49.664  51.403  0.00  0.00     0.002 C 
ATOM     11  C   UNL d   1      60.082  49.700  49.983  0.00  0.00     0.002 C 
ENDBRANCH   5   9
TORSDOF 2
ENDMDL
MODEL 2
REMARK VINA RESULT:      11.8      2.084      2.889
REMARK  2 active torsions:
REMARK  status: ('A' for Active; 'I' for Inactive)
REMARK    1  A    between atoms: C_6  and  C_1 
REMARK    2  A    between atoms: C_8  and  C_5 
ROOT
ATOM      1  C   UNL d   1      60.017  49.681  50.971  0.00  0.00     0.169 A 
ATOM      2  C   UNL d   1      59.452  49.669  50.362  0.00  0.00     0.048 A 
ATOM      3  N   UNL d   1      58.809  49.701  51.525  0.00  0.00    -0.148 NA
ATOM      4  N   UNL d   1      59.616  49.701  51.695  0.00  0.00    -0.142 NA
ATOM      5  C   UNL d   1      58.717  49.682  50.701  0.00  0.00     0.105 A 
ENDROOT
BRANCH   1   6
ATOM      6  C   UNL d   1      60.836  49.674  50.876  0.00  0.00     0.231 C 
ATOM      7  O   UNL d   1      61.168  49.708  50.121  0.00  0.00    -0.643 OA
ATOM      8  O   UNL d   1      61.326  49.633  51.541  0.00  0.00    -0.643 OA
ENDBRANCH   1   6
BRANCH   5   9
ATOM      9  C   UNL d   1      57.998  49.676  50.292  0.00  0.00     0.019 C 
ATOM     10  C   UNL d   1      57.292  49.662  50.703  0.00  0.00     0.002 C 
ATOM     11  C   UNL d   1      57.997  49.684  49.471  0.00  0.00     0.002 C 
ENDBRANCH   5   9
TORSDOF 2
ENDMDL
MODEL 3
REMARK VINA RESULT:      13.6      1.485      2.132
REMARK  2 active torsions:
REMARK  status: ('A' for Active; 'I' for Inactive)
REMARK    1  A    between atoms: C_6  and  C_1 
REMARK    2  A    between atoms: C_8  and  C_5 
ROOT
ATOM      1  C   UNL d   1      59.427  49.693  50.579  0.00  0.00     0.169 A 
ATOM      2  C   UNL d   1      59.639  49.679  51.382  0.00  0.00     0.048 A 
ATOM      3  N   UNL d   1      60.755  49.701  50.660  0.00  0.00    -0.148 NA
ATOM      4  N   UNL d   1      60.123  49.707  50.130  0.00  0.00    -0.142 NA
ATOM      5  C   UNL d   1      60.447  49.684  51.430  0.00  0.00     0.105 A 
ENDROOT
BRANCH   1   6
ATOM      6  C   UNL d   1      58.660  49.694  50.277  0.00  0.00     0.231 C 
ATOM      7  O   UNL d   1      58.012  49.693  50.787  0.00  0.00    -0.643 OA
ATOM      8  O   UNL d   1      58.542  49.696  49.458  0.00  0.00    -0.643 OA
ENDBRANCH   1   6
BRANCH   5   9
ATOM      9  C   UNL d   1      60.888  49.673  52.129  0.00  0.00     0.019 C 
ATOM     10  C   UNL d   1      60.510  49.695  52.854  0.00  0.00     0.002 C 
ATOM     11  C   UNL d   1      61.708  49.641  52.093  0.00  0.00     0.002 C 
ENDBRANCH   5   9
TORSDOF 2
ENDMDL
