MODEL 1
REMARK VINA RESULT:      22.9      0.000      0.000
REMARK  9 active torsions:
REMARK  status: ('A' for Active; 'I' for Inactive)
REMARK    1  A    between atoms: C_9  and  N_1 
REMARK    2  A    between atoms: S_8  and  C_2 
REMARK    3  A    between atoms: C_7  and  C_12 
REMARK       I    between atoms: N_13  and  C_7 
REMARK    4  A    between atoms: C_26  and  S_8 
REMARK    5  A    between atoms: C_27  and  N_13 
REMARK    6  A    between atoms: C_15  and  C_27 
REMARK    7  A    between atoms: C_16  and  C_26 
REMARK    8  A    between atoms: O_31  and  C_16 
REMARK    9  A    between atoms: C_33  and  O_31 
ROOT
ATOM      1  N   UNL d   1     -41.849-122.203 -53.572  0.00  0.00    -0.254 N 
ATOM      2  C   UNL d   1     -41.633-121.561 -53.118  0.00  0.00     0.182 A 
ATOM      3  C   UNL d   1     -42.011-122.926 -53.218  0.00  0.00     0.268 A 
ATOM      4  N   UNL d   1     -41.579-121.644 -52.306  0.00  0.00    -0.222 NA
ATOM      5  C   UNL d   1     -41.958-123.010 -52.409  0.00  0.00     0.074 A 
ATOM      6  C   UNL d   1     -41.739-122.362 -51.941  0.00  0.00     0.088 A 
ATOM      7  C   UNL d   1     -41.683-122.440 -51.118  0.00  0.00     0.024 A 
ATOM      8  C   UNL d   1     -42.118-123.732 -52.043  0.00  0.00     0.006 A 
ATOM      9  C   UNL d   1     -41.846-123.167 -50.763  0.00  0.00     0.059 A 
ATOM     10  O   UNL d   1     -42.229-123.574 -53.686  0.00  0.00    -0.267 OA
ATOM     11  C   UNL d   1     -42.064-123.815 -51.230  0.00  0.00     0.005 A 
ENDROOT
BRANCH   9  12
ATOM     12  C   UNL d   1     -41.790-123.249 -49.937  0.00  0.00     0.279 C 
ATOM     13  N   UNL d   1     -42.398-122.976 -49.475  0.00  0.00    -0.204 NA
ATOM     14  O   UNL d   1     -41.123-123.604 -49.616  0.00  0.00    -0.265 OA
BRANCH  13  15
ATOM     15  C   UNL d   1     -43.057-122.624 -49.814  0.00  0.00     0.127 C 
BRANCH  15  16
ATOM     16  C   UNL d   1     -43.809-122.923 -49.660  0.00  0.00     0.119 A 
ATOM     17  O   UNL d   1     -44.076-123.541 -49.210  0.00  0.00    -0.304 OA
ATOM     18  C   UNL d   1     -44.893-123.587 -49.259  0.00  0.00     0.123 A 
ATOM     19  C   UNL d   1     -45.127-122.970 -49.760  0.00  0.00     0.029 A 
ATOM     20  C   UNL d   1     -44.473-122.564 -50.007  0.00  0.00     0.028 A 
ENDBRANCH  15  16
ENDBRANCH  13  15
ENDBRANCH   9  12
BRANCH   2  21
ATOM     21  S   UNL d   1     -41.470-120.834 -53.474  0.00  0.00    -0.044 SA
BRANCH  21  22
ATOM     22  C   UNL d   1     -41.172-120.215 -53.029  0.00  0.00     0.107 C 
BRANCH  22  23
ATOM     23  C   UNL d   1     -41.497-119.462 -53.114  0.00  0.00     0.307 C 
ATOM     24  O   UNL d   1     -42.151-119.336 -53.607  0.00  0.00    -0.258 OA
BRANCH  23  25
ATOM     25  O   UNL d   1     -41.160-118.828 -52.699  0.00  0.00    -0.271 OA
BRANCH  25  26
ATOM     26  C   UNL d   1     -41.450-118.067 -52.829  0.00  0.00     0.126 C 
ATOM     27  C   UNL d   1     -41.126-117.625 -53.430  0.00  0.00     0.029 C 
ENDBRANCH  25  26
ENDBRANCH  23  25
ENDBRANCH  22  23
ENDBRANCH  21  22
ENDBRANCH   2  21
BRANCH   1  28
ATOM     28  C   UNL d   1     -41.904-122.123 -54.392  0.00  0.00     0.069 A 
ATOM     29  C   UNL d   1     -42.527-121.695 -54.723  0.00  0.00     0.020 A 
ATOM     30  C   UNL d   1     -42.586-121.613 -55.529  0.00  0.00     0.031 A 
ATOM     31  C   UNL d   1     -42.019-121.960 -56.016  0.00  0.00     0.140 A 
ATOM     32  C   UNL d   1     -41.396-122.387 -55.685  0.00  0.00     0.031 A 
ATOM     33  F   UNL d   1     -42.081-121.874 -56.844  0.00  0.00    -0.204 F 
ATOM     34  C   UNL d   1     -41.337-122.470 -54.876  0.00  0.00     0.020 A 
ENDBRANCH   1  28
TORSDOF 9
ENDMDL
