MODEL 1
REMARK VINA RESULT:      53.9      0.000      0.000
REMARK  4 active torsions:
REMARK  status: ('A' for Active; 'I' for Inactive)
REMARK    1  A    between atoms: C_9  and  C_2 
REMARK    2  A    between atoms: N_11  and  C_9 
REMARK    3  A    between atoms: C_14  and  N_11 
REMARK    4  A    between atoms: C_17  and  C_14 
ROOT
ATOM      1  C   UNL d   1      57.677  49.691  50.952  0.00  0.00     0.106 A 
ATOM      2  C   UNL d   1      59.095  49.702  50.777  0.00  0.00     0.025 A 
ATOM      3  C   UNL d   1      58.336  49.695  50.456  0.00  0.00     0.025 A 
ATOM      4  O   UNL d   1      57.776  49.694  51.769  0.00  0.00    -0.273 OA
ATOM      5  C   UNL d   1      56.919  49.685  50.630  0.00  0.00     0.062 A 
ATOM      6  C   UNL d   1      58.539  49.701  52.097  0.00  0.00     0.300 A 
ATOM      7  C   UNL d   1      59.198  49.705  51.601  0.00  0.00     0.070 A 
ATOM      8  C   UNL d   1      58.238  49.693  49.638  0.00  0.00     0.005 A 
ATOM      9  C   UNL d   1      56.825  49.682  49.810  0.00  0.00     0.198 A 
ATOM     10  O   UNL d   1      58.634  49.703  52.923  0.00  0.00    -0.259 OA
ATOM     11  C   UNL d   1      57.480  49.686  49.317  0.00  0.00     0.042 A 
ATOM     12  O   UNL d   1      56.063  49.676  49.486  0.00  0.00    -0.286 OA
ATOM     13  C   UNL d   1      56.260  49.681  51.126  0.00  0.00     0.005 C 
ENDROOT
BRANCH   2  14
ATOM     14  C   UNL d   1      59.747  49.706  50.285  0.00  0.00     0.081 C 
BRANCH  14  15
ATOM     15  N   UNL d   1      60.418  49.259  50.487  0.00  0.00    -0.301 N 
ATOM     16  C   UNL d   1      61.166  49.593  50.395  0.00  0.00     0.100 C 
BRANCH  15  17
ATOM     17  C   UNL d   1      60.335  48.489  50.777  0.00  0.00     0.080 C 
BRANCH  17  18
ATOM     18  C   UNL d   1      60.849  47.897  50.529  0.00  0.00     0.018 A 
ATOM     19  C   UNL d   1      61.455  48.075  50.024  0.00  0.00     0.002 A 
ATOM     20  C   UNL d   1      61.978  47.489  49.768  0.00  0.00     0.000 A 
ATOM     21  C   UNL d   1      61.878  46.701  50.035  0.00  0.00     0.000 A 
ATOM     22  C   UNL d   1      61.253  46.534  50.552  0.00  0.00     0.000 A 
ATOM     23  C   UNL d   1      60.745  47.124  50.796  0.00  0.00     0.002 A 
ENDBRANCH  17  18
ENDBRANCH  15  17
ENDBRANCH  14  15
ENDBRANCH   2  14
TORSDOF 4
ENDMDL
