MODEL 1
REMARK VINA RESULT:      43.5      0.000      0.000
REMARK  4 active torsions:
REMARK  status: ('A' for Active; 'I' for Inactive)
REMARK    1  A    between atoms: C_7  and  C_1 
REMARK    2  A    between atoms: C_6  and  N_2 
REMARK    3  A    between atoms: C_8  and  C_6 
REMARK    4  A    between atoms: C_9  and  C_7 
ROOT
ATOM      1  C   UNL d   1      14.344  13.656  -2.299  0.00  0.00     0.148 A 
ATOM      2  N   UNL d   1      13.822  13.756  -2.886  0.00  0.00    -0.289 N 
ATOM      3  N   UNL d   1      14.805  14.287  -2.188  0.00  0.00    -0.227 NA
ATOM      4  C   UNL d   1      13.951  14.546  -3.203  0.00  0.00     0.083 A 
ATOM      5  C   UNL d   1      14.547  14.868  -2.780  0.00  0.00     0.099 A 
ATOM      6  C   UNL d   1      13.615  14.988  -3.795  0.00  0.00     0.019 A 
ATOM      7  C   UNL d   1      14.846  15.653  -2.921  0.00  0.00     0.021 A 
ATOM      8  C   UNL d   1      13.856  15.743  -3.978  0.00  0.00     0.002 A 
ATOM      9  C   UNL d   1      14.451  16.064  -3.555  0.00  0.00     0.002 A 
ENDROOT
BRANCH   2  10
ATOM     10  C   UNL d   1      13.331  13.154  -3.045  0.00  0.00     0.082 C 
BRANCH  10  11
ATOM     11  C   UNL d   1      13.252  12.847  -3.783  0.00  0.00     0.018 A 
ATOM     12  C   UNL d   1      12.911  13.314  -4.371  0.00  0.00     0.002 A 
ATOM     13  C   UNL d   1      12.811  13.031  -5.154  0.00  0.00     0.000 A 
ATOM     14  C   UNL d   1      13.074  12.250  -5.311  0.00  0.00     0.000 A 
ATOM     15  C   UNL d   1      13.415  11.783  -4.723  0.00  0.00     0.000 A 
ATOM     16  C   UNL d   1      12.975  11.963  -6.097  0.00  0.00     0.000 C 
ATOM     17  C   UNL d   1      13.493  12.097  -3.978  0.00  0.00     0.002 A 
ENDBRANCH  10  11
ENDBRANCH   2  10
BRANCH   1  18
ATOM     18  C   UNL d   1      14.082  12.912  -2.144  0.00  0.00     0.037 C 
BRANCH  18  19
ATOM     19  C   UNL d   1      14.304  12.547  -1.437  0.00  0.00     0.003 A 
ATOM     20  C   UNL d   1      15.038  12.171  -1.379  0.00  0.00     0.000 A 
ATOM     21  C   UNL d   1      15.260  11.806  -0.672  0.00  0.00     0.000 A 
ATOM     22  C   UNL d   1      14.750  11.818  -0.024  0.00  0.00     0.000 A 
ATOM     23  C   UNL d   1      14.002  12.194  -0.063  0.00  0.00     0.000 A 
ATOM     24  C   UNL d   1      13.794  12.559  -0.789  0.00  0.00     0.000 A 
ENDBRANCH  18  19
ENDBRANCH   1  18
TORSDOF 4
ENDMDL
MODEL 2
REMARK VINA RESULT:      44.0      0.938      3.174
REMARK  4 active torsions:
REMARK  status: ('A' for Active; 'I' for Inactive)
REMARK    1  A    between atoms: C_7  and  C_1 
REMARK    2  A    between atoms: C_6  and  N_2 
REMARK    3  A    between atoms: C_8  and  C_6 
REMARK    4  A    between atoms: C_9  and  C_7 
ROOT
ATOM      1  C   UNL d   1      14.866  14.137  -1.583  0.00  0.00     0.148 A 
ATOM      2  N   UNL d   1      14.275  13.644  -1.769  0.00  0.00    -0.289 N 
ATOM      3  N   UNL d   1      15.290  13.888  -0.965  0.00  0.00    -0.227 NA
ATOM      4  C   UNL d   1      14.309  12.991  -1.210  0.00  0.00     0.083 A 
ATOM      5  C   UNL d   1      14.924  13.138  -0.723  0.00  0.00     0.099 A 
ATOM      6  C   UNL d   1      13.876  12.314  -1.092  0.00  0.00     0.019 A 
ATOM      7  C   UNL d   1      15.147  12.619  -0.085  0.00  0.00     0.021 A 
ATOM      8  C   UNL d   1      14.039  11.779  -0.502  0.00  0.00     0.002 A 
ATOM      9  C   UNL d   1      14.654  11.926  -0.015  0.00  0.00     0.002 A 
ENDROOT
BRANCH   2  10
ATOM     10  C   UNL d   1      13.814  13.843  -2.383  0.00  0.00     0.082 C 
BRANCH  10  11
ATOM     11  C   UNL d   1      13.636  13.325  -2.971  0.00  0.00     0.018 A 
ATOM     12  C   UNL d   1      13.485  13.621  -3.726  0.00  0.00     0.002 A 
ATOM     13  C   UNL d   1      13.295  13.115  -4.366  0.00  0.00     0.000 A 
ATOM     14  C   UNL d   1      13.266  12.292  -4.203  0.00  0.00     0.000 A 
ATOM     15  C   UNL d   1      13.417  11.996  -3.448  0.00  0.00     0.000 A 
ATOM     16  C   UNL d   1      13.075  11.781  -4.845  0.00  0.00     0.000 C 
ATOM     17  C   UNL d   1      13.597  12.523  -2.857  0.00  0.00     0.002 A 
ENDBRANCH  10  11
ENDBRANCH   2  10
BRANCH   1  18
ATOM     18  C   UNL d   1      14.679  14.646  -2.177  0.00  0.00     0.037 C 
BRANCH  18  19
ATOM     19  C   UNL d   1      14.835  15.451  -2.080  0.00  0.00     0.003 A 
ATOM     20  C   UNL d   1      15.020  15.749  -1.332  0.00  0.00     0.000 A 
ATOM     21  C   UNL d   1      15.176  16.554  -1.235  0.00  0.00     0.000 A 
ATOM     22  C   UNL d   1      15.148  17.061  -1.885  0.00  0.00     0.000 A 
ATOM     23  C   UNL d   1      14.962  16.778  -2.652  0.00  0.00     0.000 A 
ATOM     24  C   UNL d   1      14.806  15.958  -2.730  0.00  0.00     0.000 A 
ENDBRANCH  18  19
ENDBRANCH   1  18
TORSDOF 4
ENDMDL
