MODEL 1
REMARK VINA RESULT:     256.8      0.000      0.000
REMARK  6 active torsions:
REMARK  status: ('A' for Active; 'I' for Inactive)
REMARK    1  A    between atoms: C_8  and  C_1 
REMARK    2  A    between atoms: C_2  and  N_3 
REMARK       I    between atoms: N_3  and  C_8 
REMARK    3  A    between atoms: S_4  and  C_14 
REMARK    4  A    between atoms: C_23  and  N_7 
REMARK    5  A    between atoms: C_27  and  C_23 
REMARK    6  A    between atoms: O_26  and  C_27 
ROOT
ATOM      1  C   UNL d   1     -57.621-100.638 -43.447  0.00  0.00     0.182 A 
ATOM      2  N   UNL d   1     -57.077-101.213 -43.233  0.00  0.00    -0.283 N 
ATOM      3  S   UNL d   1     -57.921-100.303 -42.758  0.00  0.00    -0.048 SA
ATOM      4  C   UNL d   1     -57.559-100.674 -42.114  0.00  0.00     0.049 A 
ATOM      5  C   UNL d   1     -57.035-101.239 -42.409  0.00  0.00     0.072 A 
ATOM      6  C   UNL d   1     -57.195-101.032 -40.783  0.00  0.00     0.107 A 
ATOM      7  C   UNL d   1     -57.639-100.571 -41.301  0.00  0.00     0.021 A 
ATOM      8  C   UNL d   1     -56.591-101.701 -41.891  0.00  0.00     0.019 A 
ATOM      9  C   UNL d   1     -56.671-101.597 -41.079  0.00  0.00     0.015 A 
ENDROOT
BRANCH   1  10
ATOM     10  N   UNL d   1     -57.827-100.436 -44.220  0.00  0.00    -0.183 NA
ATOM     11  C   UNL d   1     -58.329 -99.798 -44.354  0.00  0.00     0.288 C 
ATOM     12  O   UNL d   1     -58.622 -99.367 -43.715  0.00  0.00    -0.265 OA
BRANCH  11  13
ATOM     13  C   UNL d   1     -58.539 -99.590 -45.124  0.00  0.00     0.098 A 
ATOM     14  S   UNL d   1     -58.058 -99.644 -45.783  0.00  0.00    -0.081 SA
ATOM     15  C   UNL d   1     -58.482 -99.382 -46.436  0.00  0.00     0.030 A 
ATOM     16  C   UNL d   1     -58.276 -99.314 -47.236  0.00  0.00     0.006 A 
ATOM     17  C   UNL d   1     -59.237 -99.161 -46.188  0.00  0.00     0.017 A 
ATOM     18  C   UNL d   1     -58.826 -99.026 -47.789  0.00  0.00     0.001 A 
ATOM     19  C   UNL d   1     -59.588 -98.805 -47.522  0.00  0.00     0.000 A 
ATOM     20  C   UNL d   1     -59.786 -98.873 -46.737  0.00  0.00     0.001 A 
ATOM     21  C   UNL d   1     -59.274 -99.291 -45.364  0.00  0.00     0.069 A 
ATOM     22 CL   UNL d   1     -59.926 -99.147 -44.885  0.00  0.00    -0.082 Cl
ENDBRANCH  11  13
ENDBRANCH   1  10
BRANCH   2  23
ATOM     23  C   UNL d   1     -56.641-101.689 -43.749  0.00  0.00     0.108 C 
BRANCH  23  24
ATOM     24  C   UNL d   1     -56.237-102.348 -43.466  0.00  0.00     0.135 C 
BRANCH  24  25
ATOM     25  O   UNL d   1     -55.416-102.361 -43.466  0.00  0.00    -0.325 OA
ATOM     26  C   UNL d   1     -54.985-101.884 -42.945  0.00  0.00     0.182 C 
ENDBRANCH  24  25
ENDBRANCH  23  24
ENDBRANCH   2  23
BRANCH   6  27
ATOM     27  S   UNL d   1     -57.274-100.929 -39.958  0.00  0.00     0.302 S 
ATOM     28  O   UNL d   1     -56.463-100.785 -39.868  0.00  0.00    -0.197 OA
ATOM     29  O   UNL d   1     -58.078-101.073 -40.050  0.00  0.00    -0.197 OA
ATOM     30  N   UNL d   1     -57.380-100.833 -39.146  0.00  0.00    -0.043 N 
ENDBRANCH   6  27
TORSDOF 6
ENDMDL
