MODEL 1
REMARK VINA RESULT:      -6.2      0.000      0.000
REMARK  5 active torsions:
REMARK  status: ('A' for Active; 'I' for Inactive)
REMARK       I    between atoms: C_2  and  N_1 
REMARK    1  A    between atoms: C_5  and  N_1 
REMARK    2  A    between atoms: C_6  and  N_1 
REMARK    3  A    between atoms: C_4  and  C_2 
REMARK    4  A    between atoms: N_3  and  C_5 
REMARK    5  A    between atoms: O_16  and  C_11 
ROOT
ATOM      1  N   UNL d   1     -48.837  13.041  22.518  0.00  0.00    -0.256 N 
ATOM      2  C   UNL d   1     -48.181  12.535  22.517  0.00  0.00     0.270 C 
ATOM      3  O   UNL d   1     -48.241  11.787  22.701  0.00  0.00    -0.266 OA
ENDROOT
BRANCH   1   4
ATOM      4  C   UNL d   1     -48.754  13.838  22.318  0.00  0.00     0.172 C 
BRANCH   4   5
ATOM      5  N   UNL d   1     -49.002  14.517  22.715  0.00  0.00    -0.257 N 
ATOM      6  C   UNL d   1     -49.100  15.270  22.399  0.00  0.00     0.266 A 
ATOM      7  O   UNL d   1     -48.965  15.485  21.609  0.00  0.00    -0.267 OA
ATOM      8  C   UNL d   1     -49.358  15.781  23.003  0.00  0.00     0.063 A 
ATOM      9  C   UNL d   1     -49.419  15.338  23.698  0.00  0.00     0.024 A 
ATOM     10  C   UNL d   1     -49.202  14.559  23.531  0.00  0.00     0.085 A 
ENDBRANCH   4   5
ENDBRANCH   1   4
BRANCH   1  11
ATOM     11  C   UNL d   1     -49.584  12.746  22.720  0.00  0.00     0.090 A 
ATOM     12  C   UNL d   1     -50.146  12.604  22.129  0.00  0.00     0.110 A 
ATOM     13  C   UNL d   1     -50.882  12.314  22.335  0.00  0.00     0.026 A 
ATOM     14  C   UNL d   1     -51.064  12.164  23.118  0.00  0.00     0.002 A 
ATOM     15  C   UNL d   1     -50.512  12.304  23.698  0.00  0.00     0.002 A 
ATOM     16  C   UNL d   1     -49.770  12.595  23.515  0.00  0.00     0.020 A 
BRANCH  12  17
ATOM     17  O   UNL d   1     -49.965  12.753  21.350  0.00  0.00    -0.327 OA
ATOM     18  C   UNL d   1     -50.540  12.657  20.773  0.00  0.00     0.181 C 
ENDBRANCH  12  17
ENDBRANCH   1  11
BRANCH   2  19
ATOM     19  C   UNL d   1     -47.445  12.839  22.314  0.00  0.00     0.111 A 
ATOM     20  C   UNL d   1     -47.228  12.893  21.506  0.00  0.00     0.147 A 
ATOM     21  F   UNL d   1     -47.744  12.645  20.924  0.00  0.00    -0.204 F 
ATOM     22  C   UNL d   1     -46.486  13.200  21.322  0.00  0.00     0.030 A 
ATOM     23  C   UNL d   1     -45.975  13.447  21.923  0.00  0.00     0.005 A 
ATOM     24  C   UNL d   1     -46.200  13.389  22.715  0.00  0.00     0.030 A 
ATOM     25  C   UNL d   1     -46.931  13.086  22.906  0.00  0.00     0.147 A 
ATOM     26  F   UNL d   1     -47.161  13.026  23.698  0.00  0.00    -0.204 F 
ENDBRANCH   2  19
TORSDOF 5
ENDMDL
MODEL 2
REMARK VINA RESULT:      -5.2      1.233      2.578
REMARK  5 active torsions:
REMARK  status: ('A' for Active; 'I' for Inactive)
REMARK       I    between atoms: C_2  and  N_1 
REMARK    1  A    between atoms: C_5  and  N_1 
REMARK    2  A    between atoms: C_6  and  N_1 
REMARK    3  A    between atoms: C_4  and  C_2 
REMARK    4  A    between atoms: N_3  and  C_5 
REMARK    5  A    between atoms: O_16  and  C_11 
ROOT
ATOM      1  N   UNL d   1     -47.920  13.791  22.652  0.00  0.00    -0.256 N 
ATOM      2  C   UNL d   1     -47.197  13.861  23.049  0.00  0.00     0.270 C 
ATOM      3  O   UNL d   1     -47.097  14.359  23.631  0.00  0.00    -0.266 OA
ENDROOT
BRANCH   1   4
ATOM      4  C   UNL d   1     -48.009  13.253  22.032  0.00  0.00     0.172 C 
BRANCH   4   5
ATOM      5  N   UNL d   1     -48.593  12.687  21.895  0.00  0.00    -0.257 N 
ATOM      6  C   UNL d   1     -48.861  12.413  21.167  0.00  0.00     0.266 A 
ATOM      7  O   UNL d   1     -48.584  12.663  20.425  0.00  0.00    -0.267 OA
ATOM      8  C   UNL d   1     -49.454  11.845  21.297  0.00  0.00     0.063 A 
ATOM      9  C   UNL d   1     -49.553  11.767  22.114  0.00  0.00     0.024 A 
ATOM     10  C   UNL d   1     -49.028  12.281  22.491  0.00  0.00     0.085 A 
ENDBRANCH   4   5
ENDBRANCH   1   4
BRANCH   1  11
ATOM     11  C   UNL d   1     -48.562  14.265  22.876  0.00  0.00     0.090 A 
ATOM     12  C   UNL d   1     -48.699  14.983  22.488  0.00  0.00     0.110 A 
ATOM     13  C   UNL d   1     -49.334  15.446  22.713  0.00  0.00     0.026 A 
ATOM     14  C   UNL d   1     -49.830  15.205  23.317  0.00  0.00     0.002 A 
ATOM     15  C   UNL d   1     -49.694  14.500  23.697  0.00  0.00     0.002 A 
ATOM     16  C   UNL d   1     -49.065  14.020  23.489  0.00  0.00     0.020 A 
BRANCH  12  17
ATOM     17  O   UNL d   1     -48.206  15.223  21.887  0.00  0.00    -0.327 OA
ATOM     18  C   UNL d   1     -48.365  15.920  21.484  0.00  0.00     0.181 C 
ENDBRANCH  12  17
ENDBRANCH   1  11
BRANCH   2  19
ATOM     19  C   UNL d   1     -46.568  13.386  22.818  0.00  0.00     0.111 A 
ATOM     20  C   UNL d   1     -46.484  12.620  23.148  0.00  0.00     0.147 A 
ATOM     21  F   UNL d   1     -47.024  12.348  23.697  0.00  0.00    -0.204 F 
ATOM     22  C   UNL d   1     -45.848  12.158  22.903  0.00  0.00     0.030 A 
ATOM     23  C   UNL d   1     -45.311  12.449  22.346  0.00  0.00     0.005 A 
ATOM     24  C   UNL d   1     -45.403  13.204  22.028  0.00  0.00     0.030 A 
ATOM     25  C   UNL d   1     -46.029  13.667  22.264  0.00  0.00     0.147 A 
ATOM     26  F   UNL d   1     -46.127  14.425  21.948  0.00  0.00    -0.204 F 
ENDBRANCH   2  19
TORSDOF 5
ENDMDL
MODEL 3
REMARK VINA RESULT:      -5.2      1.507      3.307
REMARK  5 active torsions:
REMARK  status: ('A' for Active; 'I' for Inactive)
REMARK       I    between atoms: C_2  and  N_1 
REMARK    1  A    between atoms: C_5  and  N_1 
REMARK    2  A    between atoms: C_6  and  N_1 
REMARK    3  A    between atoms: C_4  and  C_2 
REMARK    4  A    between atoms: N_3  and  C_5 
REMARK    5  A    between atoms: O_16  and  C_11 
ROOT
ATOM      1  N   UNL d   1     -47.533  13.299  22.649  0.00  0.00    -0.256 N 
ATOM      2  C   UNL d   1     -47.546  14.016  23.063  0.00  0.00     0.270 C 
ATOM      3  O   UNL d   1     -47.120  14.129  23.698  0.00  0.00    -0.266 OA
ENDROOT
BRANCH   1   4
ATOM      4  C   UNL d   1     -47.995  13.196  21.972  0.00  0.00     0.172 C 
BRANCH   4   5
ATOM      5  N   UNL d   1     -48.591  12.650  21.810  0.00  0.00    -0.257 N 
ATOM      6  C   UNL d   1     -48.843  12.392  21.071  0.00  0.00     0.266 A 
ATOM      7  O   UNL d   1     -48.536  12.643  20.341  0.00  0.00    -0.267 OA
ATOM      8  C   UNL d   1     -49.457  11.841  21.175  0.00  0.00     0.063 A 
ATOM      9  C   UNL d   1     -49.584  11.757  21.987  0.00  0.00     0.024 A 
ATOM     10  C   UNL d   1     -49.056  12.250  22.387  0.00  0.00     0.085 A 
ENDBRANCH   4   5
ENDBRANCH   1   4
BRANCH   1  11
ATOM     11  C   UNL d   1     -47.053  12.678  22.914  0.00  0.00     0.090 A 
ATOM     12  C   UNL d   1     -46.271  12.618  22.649  0.00  0.00     0.110 A 
ATOM     13  C   UNL d   1     -45.802  12.003  22.914  0.00  0.00     0.026 A 
ATOM     14  C   UNL d   1     -46.100  11.450  23.437  0.00  0.00     0.002 A 
ATOM     15  C   UNL d   1     -46.868  11.509  23.697  0.00  0.00     0.002 A 
ATOM     16  C   UNL d   1     -47.356  12.116  23.446  0.00  0.00     0.020 A 
BRANCH  12  17
ATOM     17  O   UNL d   1     -45.974  13.168  22.128  0.00  0.00    -0.327 OA
ATOM     18  C   UNL d   1     -45.226  13.064  21.808  0.00  0.00     0.181 C 
ENDBRANCH  12  17
ENDBRANCH   1  11
BRANCH   2  19
ATOM     19  C   UNL d   1     -48.025  14.624  22.790  0.00  0.00     0.111 A 
ATOM     20  C   UNL d   1     -47.743  15.138  22.192  0.00  0.00     0.147 A 
ATOM     21  F   UNL d   1     -46.994  15.035  21.882  0.00  0.00    -0.204 F 
ATOM     22  C   UNL d   1     -48.238  15.742  21.931  0.00  0.00     0.030 A 
ATOM     23  C   UNL d   1     -48.993  15.832  22.255  0.00  0.00     0.005 A 
ATOM     24  C   UNL d   1     -49.261  15.320  22.844  0.00  0.00     0.030 A 
ATOM     25  C   UNL d   1     -48.778  14.721  23.108  0.00  0.00     0.147 A 
ATOM     26  F   UNL d   1     -49.041  14.205  23.698  0.00  0.00    -0.204 F 
ENDBRANCH   2  19
TORSDOF 5
ENDMDL
MODEL 4
REMARK VINA RESULT:      -4.5      1.108      2.213
REMARK  5 active torsions:
REMARK  status: ('A' for Active; 'I' for Inactive)
REMARK       I    between atoms: C_2  and  N_1 
REMARK    1  A    between atoms: C_5  and  N_1 
REMARK    2  A    between atoms: C_6  and  N_1 
REMARK    3  A    between atoms: C_4  and  C_2 
REMARK    4  A    between atoms: N_3  and  C_5 
REMARK    5  A    between atoms: O_16  and  C_11 
ROOT
ATOM      1  N   UNL d   1     -48.923  13.803  22.476  0.00  0.00    -0.256 N 
ATOM      2  C   UNL d   1     -48.215  14.232  22.493  0.00  0.00     0.270 C 
ATOM      3  O   UNL d   1     -48.197  14.983  22.672  0.00  0.00    -0.266 OA
ENDROOT
BRANCH   1   4
ATOM      4  C   UNL d   1     -48.924  13.000  22.282  0.00  0.00     0.172 C 
BRANCH   4   5
ATOM      5  N   UNL d   1     -49.208  12.349  22.701  0.00  0.00    -0.257 N 
ATOM      6  C   UNL d   1     -49.282  11.576  22.430  0.00  0.00     0.266 A 
ATOM      7  O   UNL d   1     -49.079  11.308  21.671  0.00  0.00    -0.267 OA
ATOM      8  C   UNL d   1     -49.594  11.107  23.043  0.00  0.00     0.063 A 
ATOM      9  C   UNL d   1     -49.713  11.596  23.698  0.00  0.00     0.024 A 
ATOM     10  C   UNL d   1     -49.479  12.362  23.498  0.00  0.00     0.085 A 
ENDBRANCH   4   5
ENDBRANCH   1   4
BRANCH   1  11
ATOM     11  C   UNL d   1     -49.639  14.180  22.655  0.00  0.00     0.090 A 
ATOM     12  C   UNL d   1     -50.192  14.322  22.055  0.00  0.00     0.110 A 
ATOM     13  C   UNL d   1     -50.896  14.695  22.237  0.00  0.00     0.026 A 
ATOM     14  C   UNL d   1     -51.056  14.926  23.005  0.00  0.00     0.002 A 
ATOM     15  C   UNL d   1     -50.513  14.785  23.594  0.00  0.00     0.002 A 
ATOM     16  C   UNL d   1     -49.802  14.414  23.434  0.00  0.00     0.020 A 
BRANCH  12  17
ATOM     17  O   UNL d   1     -50.032  14.093  21.291  0.00  0.00    -0.327 OA
ATOM     18  C   UNL d   1     -50.614  14.161  20.716  0.00  0.00     0.181 C 
ENDBRANCH  12  17
ENDBRANCH   1  11
BRANCH   2  19
ATOM     19  C   UNL d   1     -47.512  13.847  22.314  0.00  0.00     0.111 A 
ATOM     20  C   UNL d   1     -47.340  13.649  21.518  0.00  0.00     0.147 A 
ATOM     21  F   UNL d   1     -47.867  13.839  20.924  0.00  0.00    -0.204 F 
ATOM     22  C   UNL d   1     -46.630  13.263  21.357  0.00  0.00     0.030 A 
ATOM     23  C   UNL d   1     -46.107  13.079  21.970  0.00  0.00     0.005 A 
ATOM     24  C   UNL d   1     -46.288  13.278  22.750  0.00  0.00     0.030 A 
ATOM     25  C   UNL d   1     -46.987  13.660  22.918  0.00  0.00     0.147 A 
ATOM     26  F   UNL d   1     -47.173  13.862  23.698  0.00  0.00    -0.204 F 
ENDBRANCH   2  19
TORSDOF 5
ENDMDL
MODEL 5
REMARK VINA RESULT:      -4.5      0.919      2.867
REMARK  5 active torsions:
REMARK  status: ('A' for Active; 'I' for Inactive)
REMARK       I    between atoms: C_2  and  N_1 
REMARK    1  A    between atoms: C_5  and  N_1 
REMARK    2  A    between atoms: C_6  and  N_1 
REMARK    3  A    between atoms: C_4  and  C_2 
REMARK    4  A    between atoms: N_3  and  C_5 
REMARK    5  A    between atoms: O_16  and  C_11 
ROOT
ATOM      1  N   UNL d   1     -48.269  13.076  22.447  0.00  0.00    -0.256 N 
ATOM      2  C   UNL d   1     -48.702  12.371  22.491  0.00  0.00     0.270 C 
ATOM      3  O   UNL d   1     -48.387  11.713  22.746  0.00  0.00    -0.266 OA
ENDROOT
BRANCH   1   4
ATOM      4  C   UNL d   1     -48.623  13.770  22.172  0.00  0.00     0.172 C 
BRANCH   4   5
ATOM      5  N   UNL d   1     -48.772  14.483  22.559  0.00  0.00    -0.257 N 
ATOM      6  C   UNL d   1     -48.793  15.235  22.226  0.00  0.00     0.266 A 
ATOM      7  O   UNL d   1     -48.666  15.413  21.425  0.00  0.00    -0.267 OA
ATOM      8  C   UNL d   1     -48.964  15.787  22.824  0.00  0.00     0.063 A 
ATOM      9  C   UNL d   1     -49.048  15.371  23.533  0.00  0.00     0.024 A 
ATOM     10  C   UNL d   1     -48.932  14.568  23.381  0.00  0.00     0.085 A 
ENDBRANCH   4   5
ENDBRANCH   1   4
BRANCH   1  11
ATOM     11  C   UNL d   1     -47.474  13.087  22.680  0.00  0.00     0.090 A 
ATOM     12  C   UNL d   1     -46.876  13.032  22.109  0.00  0.00     0.110 A 
ATOM     13  C   UNL d   1     -46.094  13.044  22.345  0.00  0.00     0.026 A 
ATOM     14  C   UNL d   1     -45.900  13.110  23.137  0.00  0.00     0.002 A 
ATOM     15  C   UNL d   1     -46.487  13.164  23.696  0.00  0.00     0.002 A 
ATOM     16  C   UNL d   1     -47.277  13.154  23.483  0.00  0.00     0.020 A 
BRANCH  12  17
ATOM     17  O   UNL d   1     -47.069  12.966  21.322  0.00  0.00    -0.327 OA
ATOM     18  C   UNL d   1     -46.479  12.823  20.769  0.00  0.00     0.181 C 
ENDBRANCH  12  17
ENDBRANCH   1  11
BRANCH   2  19
ATOM     19  C   UNL d   1     -49.489  12.373  22.258  0.00  0.00     0.111 A 
ATOM     20  C   UNL d   1     -49.679  12.398  21.442  0.00  0.00     0.147 A 
ATOM     21  F   UNL d   1     -49.084  12.420  20.882  0.00  0.00    -0.204 F 
ATOM     22  C   UNL d   1     -50.474  12.399  21.226  0.00  0.00     0.030 A 
ATOM     23  C   UNL d   1     -51.063  12.375  21.806  0.00  0.00     0.005 A 
ATOM     24  C   UNL d   1     -50.864  12.351  22.606  0.00  0.00     0.030 A 
ATOM     25  C   UNL d   1     -50.082  12.350  22.828  0.00  0.00     0.147 A 
ATOM     26  F   UNL d   1     -49.877  12.325  23.628  0.00  0.00    -0.204 F 
ENDBRANCH   2  19
TORSDOF 5
ENDMDL
MODEL 6
REMARK VINA RESULT:      -4.1      7.897      9.792
REMARK  5 active torsions:
REMARK  status: ('A' for Active; 'I' for Inactive)
REMARK       I    between atoms: C_2  and  N_1 
REMARK    1  A    between atoms: C_5  and  N_1 
REMARK    2  A    between atoms: C_6  and  N_1 
REMARK    3  A    between atoms: C_4  and  C_2 
REMARK    4  A    between atoms: N_3  and  C_5 
REMARK    5  A    between atoms: O_16  and  C_11 
ROOT
ATOM      1  N   UNL d   1     -40.048  14.671  19.474  0.00  0.00    -0.256 N 
ATOM      2  C   UNL d   1     -40.152  14.812  18.665  0.00  0.00     0.270 C 
ATOM      3  O   UNL d   1     -40.782  15.166  18.390  0.00  0.00    -0.266 OA
ENDROOT
BRANCH   1   4
ATOM      4  C   UNL d   1     -39.368  14.292  19.751  0.00  0.00     0.172 C 
BRANCH   4   5
ATOM      5  N   UNL d   1     -38.841  14.507  20.347  0.00  0.00    -0.257 N 
ATOM      6  C   UNL d   1     -38.390  14.006  20.818  0.00  0.00     0.266 A 
ATOM      7  O   UNL d   1     -38.384  13.176  20.775  0.00  0.00    -0.267 OA
ATOM      8  C   UNL d   1     -37.940  14.467  21.344  0.00  0.00     0.063 A 
ATOM      9  C   UNL d   1     -38.116  15.261  21.196  0.00  0.00     0.024 A 
ATOM     10  C   UNL d   1     -38.669  15.296  20.585  0.00  0.00     0.085 A 
ENDBRANCH   4   5
ENDBRANCH   1   4
BRANCH   1  11
ATOM     11  C   UNL d   1     -40.629  14.911  20.013  0.00  0.00     0.090 A 
ATOM     12  C   UNL d   1     -41.178  14.361  20.301  0.00  0.00     0.110 A 
ATOM     13  C   UNL d   1     -41.749  14.604  20.833  0.00  0.00     0.026 A 
ATOM     14  C   UNL d   1     -41.781  15.383  21.081  0.00  0.00     0.002 A 
ATOM     15  C   UNL d   1     -41.242  15.922  20.798  0.00  0.00     0.002 A 
ATOM     16  C   UNL d   1     -40.662  15.702  20.265  0.00  0.00     0.020 A 
BRANCH  12  17
ATOM     17  O   UNL d   1     -41.146  13.587  20.055  0.00  0.00    -0.327 OA
ATOM     18  C   UNL d   1     -41.685  13.043  20.351  0.00  0.00     0.181 C 
ENDBRANCH  12  17
ENDBRANCH   1  11
BRANCH   2  19
ATOM     19  C   UNL d   1     -39.569  14.569  18.140  0.00  0.00     0.111 A 
ATOM     20  C   UNL d   1     -39.550  13.772  17.882  0.00  0.00     0.147 A 
ATOM     21  F   UNL d   1     -40.109  13.240  18.150  0.00  0.00    -0.204 F 
ATOM     22  C   UNL d   1     -38.957  13.547  17.356  0.00  0.00     0.030 A 
ATOM     23  C   UNL d   1     -38.400  14.098  17.095  0.00  0.00     0.005 A 
ATOM     24  C   UNL d   1     -38.428  14.880  17.356  0.00  0.00     0.030 A 
ATOM     25  C   UNL d   1     -39.010  15.111  17.875  0.00  0.00     0.147 A 
ATOM     26  F   UNL d   1     -39.043  15.894  18.140  0.00  0.00    -0.204 F 
ENDBRANCH   2  19
TORSDOF 5
ENDMDL
