MODEL 1
REMARK VINA RESULT:      56.3      0.000      0.000
REMARK  3 active torsions:
REMARK  status: ('A' for Active; 'I' for Inactive)
REMARK    1  A    between atoms: C_3  and  C_1 
REMARK       I    between atoms: N_7  and  C_3 
REMARK    2  A    between atoms: C_11  and  N_7 
REMARK    3  A    between atoms: O_17  and  C_12 
ROOT
ATOM      1  C   UNL d   1     -50.448  26.301  33.726  0.00  0.00     0.121 A 
ATOM      2  C   UNL d   1     -51.206  26.536  33.588  0.00  0.00     0.305 A 
ATOM      3  C   UNL d   1     -50.262  25.491  33.726  0.00  0.00     0.012 A 
ATOM      4  O   UNL d   1     -51.790  25.965  33.447  0.00  0.00    -0.273 OA
ATOM      5  C   UNL d   1     -50.848  24.932  33.585  0.00  0.00     0.023 A 
ATOM      6  C   UNL d   1     -51.605  25.167  33.447  0.00  0.00     0.103 A 
ATOM      7  O   UNL d   1     -51.389  27.340  33.588  0.00  0.00    -0.259 OA
ATOM      8  C   UNL d   1     -50.661  24.125  33.586  0.00  0.00     0.002 A 
ATOM      9  C   UNL d   1     -52.188  24.600  33.306  0.00  0.00     0.025 A 
ATOM     10  C   UNL d   1     -52.007  23.792  33.305  0.00  0.00     0.002 A 
ATOM     11  C   UNL d   1     -51.249  23.557  33.444  0.00  0.00     0.000 A 
ENDROOT
BRANCH   1  12
ATOM     12  C   UNL d   1     -49.861  26.865  33.867  0.00  0.00     0.284 C 
ATOM     13  N   UNL d   1     -49.835  27.289  34.573  0.00  0.00    -0.208 NA
ATOM     14  O   UNL d   1     -49.274  27.029  33.310  0.00  0.00    -0.265 OA
BRANCH  13  15
ATOM     15  C   UNL d   1     -49.259  27.830  34.689  0.00  0.00     0.085 A 
ATOM     16  C   UNL d   1     -48.603  27.669  35.171  0.00  0.00     0.021 A 
ATOM     17  C   UNL d   1     -48.012  28.211  35.295  0.00  0.00     0.026 A 
ATOM     18  C   UNL d   1     -48.073  28.971  34.914  0.00  0.00     0.094 A 
ATOM     19  C   UNL d   1     -48.742  29.136  34.422  0.00  0.00     0.026 A 
ATOM     20  C   UNL d   1     -49.309  28.561  34.327  0.00  0.00     0.021 A 
BRANCH  18  21
ATOM     21  O   UNL d   1     -47.485  29.541  35.024  0.00  0.00    -0.328 OA
ATOM     22  C   UNL d   1     -47.560  30.080  35.643  0.00  0.00     0.181 C 
ENDBRANCH  18  21
ENDBRANCH  13  15
ENDBRANCH   1  12
TORSDOF 3
ENDMDL
