MODEL 1
REMARK VINA RESULT:       3.4      0.000      0.000
REMARK  9 active torsions:
REMARK  status: ('A' for Active; 'I' for Inactive)
REMARK    1  A    between atoms: N_3  and  C_1 
REMARK       I    between atoms: C_7  and  N_3 
REMARK    2  A    between atoms: S_10  and  C_4 
REMARK    3  A    between atoms: C_9  and  C_7 
REMARK    4  A    between atoms: C_8  and  C_17 
REMARK       I    between atoms: N_12  and  C_8 
REMARK    5  A    between atoms: C_17  and  S_10 
REMARK    6  A    between atoms: C_18  and  N_12 
REMARK    7  A    between atoms: C_22  and  C_18 
REMARK    8  A    between atoms: O_23  and  C_19 
REMARK    9  A    between atoms: C_25  and  O_23 
ROOT
ATOM      1  C   UNL d   1     -41.264-122.851 -52.827  0.00  0.00     0.219 A 
ATOM      2  S   UNL d   1     -41.254-122.501 -52.081  0.00  0.00    -0.019 SA
ATOM      3  C   UNL d   1     -41.185-123.091 -51.515  0.00  0.00     0.165 A 
ATOM      4  N   UNL d   1     -41.200-123.668 -52.717  0.00  0.00    -0.120 NA
ATOM      5  N   UNL d   1     -41.152-123.816 -51.908  0.00  0.00    -0.133 NA
ENDROOT
BRANCH   1   6
ATOM      6  N   UNL d   1     -41.326-122.453 -53.552  0.00  0.00    -0.181 NA
ATOM      7  C   UNL d   1     -41.790-122.779 -54.154  0.00  0.00     0.281 C 
ATOM      8  O   UNL d   1     -42.184-123.491 -54.035  0.00  0.00    -0.265 OA
BRANCH   7   9
ATOM      9  C   UNL d   1     -41.854-122.385 -54.878  0.00  0.00     0.058 A 
ATOM     10  C   UNL d   1     -41.320-122.553 -55.482  0.00  0.00     0.007 A 
ATOM     11  C   UNL d   1     -41.391-122.156 -56.202  0.00  0.00     0.025 A 
ATOM     12  C   UNL d   1     -41.981-121.603 -56.313  0.00  0.00     0.100 A 
ATOM     13  C   UNL d   1     -42.517-121.434 -55.705  0.00  0.00     0.025 A 
ATOM     14  C   UNL d   1     -42.447-121.832 -54.984  0.00  0.00     0.007 A 
BRANCH  12  15
ATOM     15  O   UNL d   1     -42.055-121.203 -57.031  0.00  0.00    -0.305 OA
BRANCH  15  16
ATOM     16  C   UNL d   1     -41.675-120.492 -57.160  0.00  0.00     0.123 C 
ATOM     17  C   UNL d   1     -41.431-120.272 -57.932  0.00  0.00     0.029 C 
ENDBRANCH  15  16
ENDBRANCH  12  15
ENDBRANCH   7   9
ENDBRANCH   1   6
BRANCH   3  18
ATOM     18  S   UNL d   1     -41.155-122.974 -50.699  0.00  0.00    -0.054 SA
BRANCH  18  19
ATOM     19  C   UNL d   1     -41.662-122.417 -50.348  0.00  0.00     0.100 C 
BRANCH  19  20
ATOM     20  C   UNL d   1     -42.274-122.670 -49.860  0.00  0.00     0.286 C 
ATOM     21  N   UNL d   1     -42.237-122.524 -49.053  0.00  0.00    -0.204 NA
ATOM     22  O   UNL d   1     -42.928-123.071 -50.175  0.00  0.00    -0.265 OA
BRANCH  21  23
ATOM     23  C   UNL d   1     -42.854-122.778 -48.558  0.00  0.00     0.127 C 
BRANCH  23  24
ATOM     24  C   UNL d   1     -42.682-123.106 -47.825  0.00  0.00     0.119 A 
ATOM     25  O   UNL d   1     -41.993-122.991 -47.380  0.00  0.00    -0.304 OA
ATOM     26  C   UNL d   1     -42.059-123.431 -46.676  0.00  0.00     0.123 A 
ATOM     27  C   UNL d   1     -42.782-123.817 -46.681  0.00  0.00     0.029 A 
ATOM     28  C   UNL d   1     -43.161-123.617 -47.386  0.00  0.00     0.028 A 
ENDBRANCH  23  24
ENDBRANCH  21  23
ENDBRANCH  19  20
ENDBRANCH  18  19
ENDBRANCH   3  18
TORSDOF 9
ENDMDL
