MODEL 1
REMARK VINA RESULT:      -1.7      0.000      0.000
REMARK  4 active torsions:
REMARK  status: ('A' for Active; 'I' for Inactive)
REMARK    1  A    between atoms: C_2  and  S_1 
REMARK    2  A    between atoms: N_3  and  S_1 
REMARK    3  A    between atoms: C_7  and  N_3 
REMARK    4  A    between atoms: C_8  and  C_4 
ROOT
ATOM      1  S   UNL d   1     -42.137-122.260 -51.663  0.00  0.00     0.285 S 
ATOM      2  O   UNL d   1     -41.357-122.531 -51.700  0.00  0.00    -0.198 OA
ATOM      3  O   UNL d   1     -42.924-121.985 -51.630  0.00  0.00    -0.198 OA
ENDROOT
BRANCH   1   4
ATOM      4  C   UNL d   1     -42.175-122.466 -50.856  0.00  0.00     0.105 A 
ATOM      5  C   UNL d   1     -41.671-122.098 -50.317  0.00  0.00     0.012 A 
ATOM      6  C   UNL d   1     -41.704-122.296 -49.519  0.00  0.00     0.001 A 
ATOM      7  C   UNL d   1     -41.123-121.520 -50.574  0.00  0.00     0.001 C 
ATOM      8  C   UNL d   1     -41.200-121.928 -48.980  0.00  0.00     0.000 C 
ATOM      9  C   UNL d   1     -42.251-122.874 -49.256  0.00  0.00     0.000 A 
ATOM     10  C   UNL d   1     -42.755-123.240 -49.804  0.00  0.00     0.001 A 
ATOM     11  C   UNL d   1     -42.717-123.036 -50.603  0.00  0.00     0.012 A 
ATOM     12  C   UNL d   1     -43.303-123.817 -49.547  0.00  0.00     0.000 C 
ATOM     13  C   UNL d   1     -43.217-123.398 -51.151  0.00  0.00     0.001 C 
ENDBRANCH   1   4
BRANCH   1  14
ATOM     14  N   UNL d   1     -42.101-122.053 -52.467  0.00  0.00    -0.158 NA
BRANCH  14  15
ATOM     15  C   UNL d   1     -41.807-122.595 -53.021  0.00  0.00     0.100 A 
ATOM     16  C   UNL d   1     -41.906-122.454 -53.834  0.00  0.00     0.083 A 
ATOM     17  C   UNL d   1     -41.615-122.990 -54.385  0.00  0.00     0.008 A 
ATOM     18  C   UNL d   1     -41.223-123.671 -54.133  0.00  0.00     0.000 A 
ATOM     19  C   UNL d   1     -41.123-123.814 -53.329  0.00  0.00     0.002 A 
ATOM     20  C   UNL d   1     -41.415-123.275 -52.769  0.00  0.00     0.020 A 
BRANCH  16  21
ATOM     21  C   UNL d   1     -42.298-121.775 -54.090  0.00  0.00     0.212 C 
ATOM     22  O   UNL d   1     -41.886-121.068 -54.186  0.00  0.00    -0.644 OA
ATOM     23  O   UNL d   1     -43.107-121.800 -54.252  0.00  0.00    -0.644 OA
ENDBRANCH  16  21
ENDBRANCH  14  15
ENDBRANCH   1  14
TORSDOF 4
ENDMDL
MODEL 2
REMARK VINA RESULT:      -1.6      1.577      3.953
REMARK  4 active torsions:
REMARK  status: ('A' for Active; 'I' for Inactive)
REMARK    1  A    between atoms: C_2  and  S_1 
REMARK    2  A    between atoms: N_3  and  S_1 
REMARK    3  A    between atoms: C_7  and  N_3 
REMARK    4  A    between atoms: C_8  and  C_4 
ROOT
ATOM      1  S   UNL d   1     -41.531-122.648 -50.731  0.00  0.00     0.285 S 
ATOM      2  O   UNL d   1     -41.123-123.352 -50.881  0.00  0.00    -0.198 OA
ATOM      3  O   UNL d   1     -41.942-121.938 -50.578  0.00  0.00    -0.198 OA
ENDROOT
BRANCH   1   4
ATOM      4  C   UNL d   1     -41.492-122.449 -51.540  0.00  0.00     0.105 A 
ATOM      5  C   UNL d   1     -41.359-121.665 -51.762  0.00  0.00     0.012 A 
ATOM      6  C   UNL d   1     -41.320-121.462 -52.558  0.00  0.00     0.001 A 
ATOM      7  C   UNL d   1     -41.264-121.070 -51.181  0.00  0.00     0.001 C 
ATOM      8  C   UNL d   1     -41.187-120.678 -52.779  0.00  0.00     0.000 C 
ATOM      9  C   UNL d   1     -41.415-122.054 -53.144  0.00  0.00     0.000 A 
ATOM     10  C   UNL d   1     -41.548-122.840 -52.914  0.00  0.00     0.001 A 
ATOM     11  C   UNL d   1     -41.586-123.037 -52.114  0.00  0.00     0.012 A 
ATOM     12  C   UNL d   1     -41.643-123.435 -53.494  0.00  0.00     0.000 C 
ATOM     13  C   UNL d   1     -41.718-123.817 -51.881  0.00  0.00     0.001 C 
ENDBRANCH   1   4
BRANCH   1  14
ATOM     14  N   UNL d   1     -41.571-122.843 -49.925  0.00  0.00    -0.158 NA
BRANCH  14  15
ATOM     15  C   UNL d   1     -42.306-122.976 -49.567  0.00  0.00     0.100 A 
ATOM     16  C   UNL d   1     -42.349-123.144 -48.755  0.00  0.00     0.083 A 
ATOM     17  C   UNL d   1     -43.078-123.276 -48.398  0.00  0.00     0.008 A 
ATOM     18  C   UNL d   1     -43.770-123.243 -48.846  0.00  0.00     0.000 A 
ATOM     19  C   UNL d   1     -43.732-123.077 -49.651  0.00  0.00     0.002 A 
ATOM     20  C   UNL d   1     -42.998-122.943 -50.015  0.00  0.00     0.020 A 
BRANCH  16  21
ATOM     21  C   UNL d   1     -41.660-123.178 -48.303  0.00  0.00     0.212 C 
ATOM     22  O   UNL d   1     -41.483-122.578 -47.767  0.00  0.00    -0.644 OA
ATOM     23  O   UNL d   1     -41.142-123.815 -48.387  0.00  0.00    -0.644 OA
ENDBRANCH  16  21
ENDBRANCH  14  15
ENDBRANCH   1  14
TORSDOF 4
ENDMDL
MODEL 3
REMARK VINA RESULT:      -1.4      1.085      4.027
REMARK  4 active torsions:
REMARK  status: ('A' for Active; 'I' for Inactive)
REMARK    1  A    between atoms: C_2  and  S_1 
REMARK    2  A    between atoms: N_3  and  S_1 
REMARK    3  A    between atoms: C_7  and  N_3 
REMARK    4  A    between atoms: C_8  and  C_4 
ROOT
ATOM      1  S   UNL d   1     -41.956-122.672 -52.916  0.00  0.00     0.285 S 
ATOM      2  O   UNL d   1     -42.761-122.484 -52.923  0.00  0.00    -0.198 OA
ATOM      3  O   UNL d   1     -41.144-122.862 -52.907  0.00  0.00    -0.198 OA
ENDROOT
BRANCH   1   4
ATOM      4  C   UNL d   1     -41.929-122.601 -53.747  0.00  0.00     0.105 A 
ATOM      5  C   UNL d   1     -42.290-121.955 -54.113  0.00  0.00     0.012 A 
ATOM      6  C   UNL d   1     -42.267-121.879 -54.932  0.00  0.00     0.001 A 
ATOM      7  C   UNL d   1     -42.682-121.373 -53.657  0.00  0.00     0.001 C 
ATOM      8  C   UNL d   1     -42.627-121.233 -55.298  0.00  0.00     0.000 C 
ATOM      9  C   UNL d   1     -41.875-122.460 -55.393  0.00  0.00     0.000 A 
ATOM     10  C   UNL d   1     -41.515-123.106 -55.018  0.00  0.00     0.001 A 
ATOM     11  C   UNL d   1     -41.542-123.176 -54.197  0.00  0.00     0.012 A 
ATOM     12  C   UNL d   1     -41.123-123.688 -55.474  0.00  0.00     0.000 C 
ATOM     13  C   UNL d   1     -41.185-123.817 -53.820  0.00  0.00     0.001 C 
ENDBRANCH   1   4
BRANCH   1  14
ATOM     14  N   UNL d   1     -41.981-122.743 -52.089  0.00  0.00    -0.158 NA
BRANCH  14  15
ATOM     15  C   UNL d   1     -41.719-122.118 -51.612  0.00  0.00     0.100 A 
ATOM     16  C   UNL d   1     -41.795-122.166 -50.786  0.00  0.00     0.083 A 
ATOM     17  C   UNL d   1     -41.536-121.547 -50.310  0.00  0.00     0.008 A 
ATOM     18  C   UNL d   1     -41.200-120.876 -50.652  0.00  0.00     0.000 A 
ATOM     19  C   UNL d   1     -41.123-120.824 -51.470  0.00  0.00     0.002 A 
ATOM     20  C   UNL d   1     -41.383-121.447 -51.954  0.00  0.00     0.020 A 
BRANCH  16  21
ATOM     21  C   UNL d   1     -42.131-122.836 -50.440  0.00  0.00     0.212 C 
ATOM     22  O   UNL d   1     -42.947-122.887 -50.339  0.00  0.00    -0.644 OA
ATOM     23  O   UNL d   1     -41.650-123.459 -50.194  0.00  0.00    -0.644 OA
ENDBRANCH  16  21
ENDBRANCH  14  15
ENDBRANCH   1  14
TORSDOF 4
ENDMDL
MODEL 4
REMARK VINA RESULT:       1.2      0.889      1.728
REMARK  4 active torsions:
REMARK  status: ('A' for Active; 'I' for Inactive)
REMARK    1  A    between atoms: C_2  and  S_1 
REMARK    2  A    between atoms: N_3  and  S_1 
REMARK    3  A    between atoms: C_7  and  N_3 
REMARK    4  A    between atoms: C_8  and  C_4 
ROOT
ATOM      1  S   UNL d   1     -42.207-122.387 -50.686  0.00  0.00     0.285 S 
ATOM      2  O   UNL d   1     -41.531-122.864 -50.678  0.00  0.00    -0.198 OA
ATOM      3  O   UNL d   1     -42.887-121.904 -50.697  0.00  0.00    -0.198 OA
ENDROOT
BRANCH   1   4
ATOM      4  C   UNL d   1     -42.447-122.708 -49.955  0.00  0.00     0.105 A 
ATOM      5  C   UNL d   1     -43.169-123.103 -49.901  0.00  0.00     0.012 A 
ATOM      6  C   UNL d   1     -43.412-123.422 -49.182  0.00  0.00     0.001 A 
ATOM      7  C   UNL d   1     -43.661-123.184 -50.573  0.00  0.00     0.001 C 
ATOM      8  C   UNL d   1     -44.134-123.818 -49.128  0.00  0.00     0.000 C 
ATOM      9  C   UNL d   1     -42.923-123.344 -48.505  0.00  0.00     0.000 A 
ATOM     10  C   UNL d   1     -42.199-122.946 -48.568  0.00  0.00     0.001 A 
ATOM     11  C   UNL d   1     -41.961-122.628 -49.291  0.00  0.00     0.012 A 
ATOM     12  C   UNL d   1     -41.707-122.865 -47.895  0.00  0.00     0.000 C 
ATOM     13  C   UNL d   1     -41.241-122.231 -49.357  0.00  0.00     0.001 C 
ENDBRANCH   1   4
BRANCH   1  14
ATOM     14  N   UNL d   1     -41.970-122.066 -51.415  0.00  0.00    -0.158 NA
BRANCH  14  15
ATOM     15  C   UNL d   1     -41.687-122.563 -52.014  0.00  0.00     0.100 A 
ATOM     16  C   UNL d   1     -41.672-122.298 -52.801  0.00  0.00     0.083 A 
ATOM     17  C   UNL d   1     -41.392-122.790 -53.398  0.00  0.00     0.008 A 
ATOM     18  C   UNL d   1     -41.125-123.549 -53.216  0.00  0.00     0.000 A 
ATOM     19  C   UNL d   1     -41.138-123.816 -52.438  0.00  0.00     0.002 A 
ATOM     20  C   UNL d   1     -41.420-123.322 -51.833  0.00  0.00     0.020 A 
BRANCH  16  21
ATOM     21  C   UNL d   1     -41.939-121.540 -52.987  0.00  0.00     0.212 C 
ATOM     22  O   UNL d   1     -42.629-121.436 -53.425  0.00  0.00    -0.644 OA
ATOM     23  O   UNL d   1     -41.514-120.879 -52.734  0.00  0.00    -0.644 OA
ENDBRANCH  16  21
ENDBRANCH  14  15
ENDBRANCH   1  14
TORSDOF 4
ENDMDL
