MODEL 1
REMARK VINA RESULT:       8.5      0.000      0.000
REMARK  1 active torsions:
REMARK  status: ('A' for Active; 'I' for Inactive)
REMARK    1  A    between atoms: C_5  and  C_1 
ROOT
ATOM      1  C   UNL d   1      13.809  12.202  -2.187  0.00  0.00     0.005 A 
ATOM      2  C   UNL d   1      14.179  12.661  -2.763  0.00  0.00     0.001 A 
ATOM      3  C   UNL d   1      13.125  11.781  -2.368  0.00  0.00     0.001 A 
ATOM      4  C   UNL d   1      13.178  12.276  -3.705  0.00  0.00     0.058 A 
ATOM      5  C   UNL d   1      12.807  11.817  -3.129  0.00  0.00     0.011 A 
ATOM      6  C   UNL d   1      13.867  12.700  -3.521  0.00  0.00     0.011 A 
ATOM      7 CL   UNL d   1      12.860  12.316  -4.474  0.00  0.00    -0.082 Cl
ENDROOT
BRANCH   1   8
ATOM      8  C   UNL d   1      14.125  12.164  -1.427  0.00  0.00     0.060 A 
ATOM      9  C   UNL d   1      13.837  11.986  -0.701  0.00  0.00     0.206 A 
ATOM     10  N   UNL d   1      14.308  12.004  -0.063  0.00  0.00    -0.127 NA
ATOM     11  N   UNL d   1      13.039  11.779  -0.617  0.00  0.00    -0.125 N 
ATOM     12  N   UNL d   1      15.068  12.203  -0.156  0.00  0.00    -0.145 NA
ATOM     13  C   UNL d   1      15.358  12.382  -0.876  0.00  0.00     0.125 A 
ENDBRANCH   1   8
TORSDOF 1
ENDMDL
