MODEL 1
REMARK VINA RESULT:      -6.2      0.000      0.000
REMARK  1 active torsions:
REMARK  status: ('A' for Active; 'I' for Inactive)
REMARK    1  A    between atoms: C_5  and  C_1 
ROOT
ATOM      1  C   UNL d   1      57.142   0.016  31.416  0.00  0.00     0.128 A 
ATOM      2  C   UNL d   1      56.999  -0.823  31.444  0.00  0.00     0.306 A 
ATOM      3  C   UNL d   1      56.757   0.495  31.952  0.00  0.00     0.013 A 
ATOM      4  O   UNL d   1      56.482  -1.123  32.006  0.00  0.00    -0.273 OA
ATOM      5  C   UNL d   1      56.235   0.183  32.518  0.00  0.00     0.023 A 
ATOM      6  C   UNL d   1      56.096  -0.632  32.545  0.00  0.00     0.103 A 
ATOM      7  O   UNL d   1      57.374  -1.357  30.910  0.00  0.00    -0.259 OA
ATOM      8  C   UNL d   1      55.872   0.682  33.032  0.00  0.00     0.002 A 
ATOM      9  C   UNL d   1      55.596  -0.936  33.086  0.00  0.00     0.025 A 
ATOM     10  C   UNL d   1      55.351   0.395  33.600  0.00  0.00     0.000 A 
ATOM     11  C   UNL d   1      55.207  -0.444  33.628  0.00  0.00     0.002 A 
ENDROOT
BRANCH   1  12
ATOM     12  C   UNL d   1      57.643   0.307  30.872  0.00  0.00     0.216 C 
ATOM     13  O   UNL d   1      57.393   0.549  30.124  0.00  0.00    -0.644 OA
ATOM     14  O   UNL d   1      58.444   0.430  30.905  0.00  0.00    -0.644 OA
ENDBRANCH   1  12
TORSDOF 1
ENDMDL
MODEL 2
REMARK VINA RESULT:      -5.8      1.169      2.815
REMARK  1 active torsions:
REMARK  status: ('A' for Active; 'I' for Inactive)
REMARK    1  A    between atoms: C_5  and  C_1 
ROOT
ATOM      1  C   UNL d   1      56.034  -0.319  32.811  0.00  0.00     0.128 A 
ATOM      2  C   UNL d   1      56.148  -1.131  32.578  0.00  0.00     0.306 A 
ATOM      3  C   UNL d   1      56.414   0.264  32.386  0.00  0.00     0.013 A 
ATOM      4  O   UNL d   1      56.633  -1.300  31.938  0.00  0.00    -0.273 OA
ATOM      5  C   UNL d   1      56.903   0.084  31.739  0.00  0.00     0.023 A 
ATOM      6  C   UNL d   1      57.014  -0.704  31.514  0.00  0.00     0.103 A 
ATOM      7  O   UNL d   1      55.777  -1.767  32.988  0.00  0.00    -0.259 OA
ATOM      8  C   UNL d   1      57.262   0.682  31.342  0.00  0.00     0.002 A 
ATOM      9  C   UNL d   1      57.482  -0.882  30.894  0.00  0.00     0.025 A 
ATOM     10  C   UNL d   1      57.751   0.526  30.699  0.00  0.00     0.000 A 
ATOM     11  C   UNL d   1      57.865  -0.285  30.466  0.00  0.00     0.002 A 
ENDROOT
BRANCH   1  12
ATOM     12  C   UNL d   1      55.565  -0.154  33.430  0.00  0.00     0.216 C 
ATOM     13  O   UNL d   1      55.863  -0.022  34.188  0.00  0.00    -0.644 OA
ATOM     14  O   UNL d   1      54.759  -0.080  33.476  0.00  0.00    -0.644 OA
ENDBRANCH   1  12
TORSDOF 1
ENDMDL
MODEL 3
REMARK VINA RESULT:      -3.3      1.110      1.507
REMARK  1 active torsions:
REMARK  status: ('A' for Active; 'I' for Inactive)
REMARK    1  A    between atoms: C_5  and  C_1 
ROOT
ATOM      1  C   UNL d   1      57.227   0.340  32.174  0.00  0.00     0.128 A 
ATOM      2  C   UNL d   1      57.744   0.445  32.843  0.00  0.00     0.306 A 
ATOM      3  C   UNL d   1      56.422   0.347  32.299  0.00  0.00     0.013 A 
ATOM      4  O   UNL d   1      57.418   0.551  33.588  0.00  0.00    -0.273 OA
ATOM      5  C   UNL d   1      56.100   0.454  33.058  0.00  0.00     0.023 A 
ATOM      6  C   UNL d   1      56.602   0.557  33.708  0.00  0.00     0.103 A 
ATOM      7  O   UNL d   1      58.583   0.445  32.761  0.00  0.00    -0.259 OA
ATOM      8  C   UNL d   1      55.302   0.456  33.148  0.00  0.00     0.002 A 
ATOM      9  C   UNL d   1      56.299   0.660  34.437  0.00  0.00     0.025 A 
ATOM     10  C   UNL d   1      54.962   0.561  33.890  0.00  0.00     0.000 A 
ATOM     11  C   UNL d   1      55.479   0.666  34.558  0.00  0.00     0.002 A 
ENDROOT
BRANCH   1  12
ATOM     12  C   UNL d   1      57.542   0.238  31.451  0.00  0.00     0.216 C 
ATOM     13  O   UNL d   1      57.200   0.557  30.771  0.00  0.00    -0.644 OA
ATOM     14  O   UNL d   1      58.207  -0.162  31.217  0.00  0.00    -0.644 OA
ENDBRANCH   1  12
TORSDOF 1
ENDMDL
