MODEL 1
REMARK VINA RESULT:      36.8      0.000      0.000
REMARK  3 active torsions:
REMARK  status: ('A' for Active; 'I' for Inactive)
REMARK    1  A    between atoms: S_15  and  C_3 
REMARK    2  A    between atoms: C_5  and  C_14 
REMARK    3  A    between atoms: C_14  and  S_15 
ROOT
ATOM      1  N   UNL d   1      57.743  49.608  51.254  0.00  0.00    -0.263 N 
ATOM      2  C   UNL d   1      57.139  49.631  51.833  0.00  0.00     0.202 A 
ATOM      3  C   UNL d   1      58.458  49.655  51.664  0.00  0.00     0.202 A 
ATOM      4  N   UNL d   1      57.529  49.693  52.571  0.00  0.00    -0.121 NA
ATOM      5  S   UNL d   1      56.393  49.586  51.456  0.00  0.00    -0.047 SA
ATOM      6  N   UNL d   1      58.300  49.707  52.484  0.00  0.00    -0.121 NA
ATOM      7  C   UNL d   1      57.363  49.548  50.530  0.00  0.00     0.074 A 
ATOM      8  C   UNL d   1      56.540  49.534  50.653  0.00  0.00     0.049 A 
ATOM      9  C   UNL d   1      57.659  49.503  49.760  0.00  0.00     0.018 A 
ATOM     10  C   UNL d   1      56.033  49.476  50.003  0.00  0.00     0.008 A 
ATOM     11  C   UNL d   1      57.151  49.444  49.104  0.00  0.00     0.002 A 
ATOM     12  C   UNL d   1      56.328  49.431  49.227  0.00  0.00     0.001 A 
ENDROOT
BRANCH   3  13
ATOM     13  S   UNL d   1      59.269  49.652  51.307  0.00  0.00    -0.048 SA
BRANCH  13  14
ATOM     14  C   UNL d   1      59.926  49.613  51.789  0.00  0.00     0.042 C 
BRANCH  14  15
ATOM     15  C   UNL d   1      60.665  49.620  51.446  0.00  0.00     0.051 A 
ATOM     16  C   UNL d   1      60.929  49.600  50.664  0.00  0.00     0.127 A 
ATOM     17  O   UNL d   1      61.738  49.620  50.654  0.00  0.00    -0.211 OA
ATOM     18  C   UNL d   1      60.411  49.563  49.959  0.00  0.00     0.029 C 
ATOM     19  N   UNL d   1      61.988  49.652  51.396  0.00  0.00    -0.126 NA
ATOM     20  C   UNL d   1      61.340  49.653  51.910  0.00  0.00     0.111 A 
ATOM     21  C   UNL d   1      61.351  49.681  52.733  0.00  0.00     0.023 C 
ENDBRANCH  14  15
ENDBRANCH  13  14
ENDBRANCH   3  13
TORSDOF 3
ENDMDL
