MODEL 1
REMARK VINA RESULT:      -5.1      0.000      0.000
REMARK  0 active torsions:
REMARK  status: ('A' for Active; 'I' for Inactive)
ROOT
ATOM      1  C   UNL d   1     -41.780-122.557 -54.517  0.00  0.00     0.116 A 
ATOM      2  C   UNL d   1     -42.040-121.915 -54.069  0.00  0.00     0.192 A 
ATOM      3  N   UNL d   1     -42.565-121.318 -55.247  0.00  0.00    -0.145 NA
ATOM      4  C   UNL d   1     -41.390-123.168 -54.139  0.00  0.00     0.285 A 
ATOM      5  N   UNL d   1     -41.912-121.886 -53.269  0.00  0.00    -0.203 NA
ATOM      6  N   UNL d   1     -42.431-121.298 -54.433  0.00  0.00    -0.128 NA
ATOM      7  N   UNL d   1     -41.257-123.144 -53.323  0.00  0.00    -0.185 NA
ATOM      8  C   UNL d   1     -41.520-122.500 -52.893  0.00  0.00     0.203 A 
ATOM      9  C   UNL d   1     -42.307-121.956 -55.687  0.00  0.00     0.130 A 
ATOM     10  O   UNL d   1     -41.124-123.817 -54.574  0.00  0.00    -0.265 OA
ENDROOT
TORSDOF 0
ENDMDL
MODEL 2
REMARK VINA RESULT:      -4.6      0.684      1.906
REMARK  0 active torsions:
REMARK  status: ('A' for Active; 'I' for Inactive)
ROOT
ATOM      1  C   UNL d   1     -41.485-122.695 -53.937  0.00  0.00     0.116 A 
ATOM      2  C   UNL d   1     -41.858-121.964 -53.842  0.00  0.00     0.192 A 
ATOM      3  N   UNL d   1     -41.490-121.967 -52.469  0.00  0.00    -0.145 NA
ATOM      4  C   UNL d   1     -41.491-123.045 -54.676  0.00  0.00     0.285 A 
ATOM      5  N   UNL d   1     -42.224-121.599 -54.466  0.00  0.00    -0.203 NA
ATOM      6  N   UNL d   1     -41.860-121.602 -53.110  0.00  0.00    -0.128 NA
ATOM      7  N   UNL d   1     -41.863-122.677 -55.317  0.00  0.00    -0.185 NA
ATOM      8  C   UNL d   1     -42.228-121.954 -55.205  0.00  0.00     0.203 A 
ATOM      9  C   UNL d   1     -41.123-122.689 -52.568  0.00  0.00     0.130 A 
ATOM     10  O   UNL d   1     -41.123-123.776 -54.787  0.00  0.00    -0.265 OA
ENDROOT
TORSDOF 0
ENDMDL
MODEL 3
REMARK VINA RESULT:      -4.2      1.411      1.726
REMARK  0 active torsions:
REMARK  status: ('A' for Active; 'I' for Inactive)
ROOT
ATOM      1  C   UNL d   1     -41.524-122.400 -53.459  0.00  0.00     0.116 A 
ATOM      2  C   UNL d   1     -41.654-123.159 -53.754  0.00  0.00     0.192 A 
ATOM      3  N   UNL d   1     -42.056-122.595 -54.996  0.00  0.00    -0.145 NA
ATOM      4  C   UNL d   1     -41.259-122.318 -52.690  0.00  0.00     0.285 A 
ATOM      5  N   UNL d   1     -41.522-123.813 -53.295  0.00  0.00    -0.203 NA
ATOM      6  N   UNL d   1     -41.919-123.256 -54.521  0.00  0.00    -0.128 NA
ATOM      7  N   UNL d   1     -41.123-122.982 -52.216  0.00  0.00    -0.185 NA
ATOM      8  C   UNL d   1     -41.256-123.728 -52.525  0.00  0.00     0.203 A 
ATOM      9  C   UNL d   1     -41.926-121.846 -54.699  0.00  0.00     0.130 A 
ATOM     10  O   UNL d   1     -41.124-121.565 -52.379  0.00  0.00    -0.265 OA
ENDROOT
TORSDOF 0
ENDMDL
MODEL 4
REMARK VINA RESULT:      -4.2      1.454      2.496
REMARK  0 active torsions:
REMARK  status: ('A' for Active; 'I' for Inactive)
ROOT
ATOM      1  C   UNL d   1     -41.526-122.424 -53.231  0.00  0.00     0.116 A 
ATOM      2  C   UNL d   1     -41.421-123.196 -52.958  0.00  0.00     0.192 A 
ATOM      3  N   UNL d   1     -41.427-122.712 -51.621  0.00  0.00    -0.145 NA
ATOM      4  C   UNL d   1     -41.574-122.296 -54.037  0.00  0.00     0.285 A 
ATOM      5  N   UNL d   1     -41.366-123.816 -53.475  0.00  0.00    -0.203 NA
ATOM      6  N   UNL d   1     -41.372-123.338 -52.155  0.00  0.00    -0.128 NA
ATOM      7  N   UNL d   1     -41.518-122.926 -54.570  0.00  0.00    -0.185 NA
ATOM      8  C   UNL d   1     -41.414-123.685 -54.283  0.00  0.00     0.203 A 
ATOM      9  C   UNL d   1     -41.531-121.950 -51.896  0.00  0.00     0.130 A 
ATOM     10  O   UNL d   1     -41.679-121.530 -54.326  0.00  0.00    -0.265 OA
ENDROOT
TORSDOF 0
ENDMDL
MODEL 5
REMARK VINA RESULT:      -3.5      3.297      4.129
REMARK  0 active torsions:
REMARK  status: ('A' for Active; 'I' for Inactive)
ROOT
ATOM      1  C   UNL d   1     -41.784-122.891 -50.290  0.00  0.00     0.116 A 
ATOM      2  C   UNL d   1     -42.434-122.418 -50.478  0.00  0.00     0.192 A 
ATOM      3  N   UNL d   1     -41.773-121.999 -51.665  0.00  0.00    -0.145 NA
ATOM      4  C   UNL d   1     -41.805-123.330 -49.601  0.00  0.00     0.285 A 
ATOM      5  N   UNL d   1     -43.081-122.387 -49.991  0.00  0.00    -0.203 NA
ATOM      6  N   UNL d   1     -42.428-121.974 -51.163  0.00  0.00    -0.128 NA
ATOM      7  N   UNL d   1     -42.462-123.303 -49.100  0.00  0.00    -0.185 NA
ATOM      8  C   UNL d   1     -43.098-122.829 -49.301  0.00  0.00     0.203 A 
ATOM      9  C   UNL d   1     -41.133-122.469 -51.475  0.00  0.00     0.130 A 
ATOM     10  O   UNL d   1     -41.162-123.808 -49.399  0.00  0.00    -0.265 OA
ENDROOT
TORSDOF 0
ENDMDL
MODEL 6
REMARK VINA RESULT:      -3.2      1.952      3.268
REMARK  0 active torsions:
REMARK  status: ('A' for Active; 'I' for Inactive)
ROOT
ATOM      1  C   UNL d   1     -41.184-123.074 -51.760  0.00  0.00     0.116 A 
ATOM      2  C   UNL d   1     -41.243-122.374 -51.327  0.00  0.00     0.192 A 
ATOM      3  N   UNL d   1     -41.193-123.128 -50.122  0.00  0.00    -0.145 NA
ATOM      4  C   UNL d   1     -41.181-123.031 -52.576  0.00  0.00     0.285 A 
ATOM      5  N   UNL d   1     -41.296-121.657 -51.699  0.00  0.00    -0.203 NA
ATOM      6  N   UNL d   1     -41.247-122.402 -50.510  0.00  0.00    -0.128 NA
ATOM      7  N   UNL d   1     -41.235-122.301 -52.962  0.00  0.00    -0.185 NA
ATOM      8  C   UNL d   1     -41.293-121.617 -52.518  0.00  0.00     0.203 A 
ATOM      9  C   UNL d   1     -41.135-123.817 -50.555  0.00  0.00     0.130 A 
ATOM     10  O   UNL d   1     -41.123-123.722 -53.024  0.00  0.00    -0.265 OA
ENDROOT
TORSDOF 0
ENDMDL
MODEL 7
REMARK VINA RESULT:      -2.9     10.036     10.202
REMARK  0 active torsions:
REMARK  status: ('A' for Active; 'I' for Inactive)
ROOT
ATOM      1  C   UNL d   1     -42.531-115.319 -47.170  0.00  0.00     0.116 A 
ATOM      2  C   UNL d   1     -42.637-114.564 -47.485  0.00  0.00     0.192 A 
ATOM      3  N   UNL d   1     -44.039-114.794 -47.535  0.00  0.00    -0.145 NA
ATOM      4  C   UNL d   1     -41.772-115.568 -46.992  0.00  0.00     0.285 A 
ATOM      5  N   UNL d   1     -42.004-114.076 -47.618  0.00  0.00    -0.203 NA
ATOM      6  N   UNL d   1     -43.389-114.303 -47.667  0.00  0.00    -0.128 NA
ATOM      7  N   UNL d   1     -41.123-115.073 -47.125  0.00  0.00    -0.185 NA
ATOM      8  C   UNL d   1     -41.245-114.328 -47.439  0.00  0.00     0.203 A 
ATOM      9  C   UNL d   1     -43.929-115.540 -47.223  0.00  0.00     0.130 A 
ATOM     10  O   UNL d   1     -41.650-116.321 -46.676  0.00  0.00    -0.265 OA
ENDROOT
TORSDOF 0
ENDMDL
MODEL 8
REMARK VINA RESULT:      -2.6      3.882      5.062
REMARK  0 active torsions:
REMARK  status: ('A' for Active; 'I' for Inactive)
ROOT
ATOM      1  C   UNL d   1     -41.960-123.266 -49.598  0.00  0.00     0.116 A 
ATOM      2  C   UNL d   1     -42.620-122.843 -49.342  0.00  0.00     0.192 A 
ATOM      3  N   UNL d   1     -42.307-123.189 -47.999  0.00  0.00    -0.145 NA
ATOM      4  C   UNL d   1     -41.800-123.296 -50.400  0.00  0.00     0.285 A 
ATOM      5  N   UNL d   1     -43.102-122.462 -49.870  0.00  0.00    -0.203 NA
ATOM      6  N   UNL d   1     -42.793-122.805 -48.545  0.00  0.00    -0.128 NA
ATOM      7  N   UNL d   1     -42.288-122.909 -50.944  0.00  0.00    -0.185 NA
ATOM      8  C   UNL d   1     -42.938-122.494 -50.673  0.00  0.00     0.203 A 
ATOM      9  C   UNL d   1     -41.656-123.607 -48.258  0.00  0.00     0.130 A 
ATOM     10  O   UNL d   1     -41.143-123.716 -50.672  0.00  0.00    -0.265 OA
ENDROOT
TORSDOF 0
ENDMDL
