MODEL 1
REMARK VINA RESULT:      85.8      0.000      0.000
REMARK  6 active torsions:
REMARK  status: ('A' for Active; 'I' for Inactive)
REMARK    1  A    between atoms: C_10  and  N_1 
REMARK    2  A    between atoms: S_14  and  C_6 
REMARK       I    between atoms: N_7  and  C_11 
REMARK    3  A    between atoms: C_22  and  N_9 
REMARK    4  A    between atoms: C_13  and  C_10 
REMARK    5  A    between atoms: C_11  and  C_16 
REMARK    6  A    between atoms: C_16  and  S_14 
ROOT
ATOM      1  N   UNL d   1     -51.201  25.640  33.343  0.00  0.00    -0.192 N 
ATOM      2  N   UNL d   1     -51.784  26.214  33.340  0.00  0.00    -0.058 NA
ATOM      3  C   UNL d   1     -50.475  26.022  33.372  0.00  0.00     0.189 A 
ATOM      4  C   UNL d   1     -50.622  26.834  33.387  0.00  0.00     0.164 A 
ATOM      5  N   UNL d   1     -51.436  26.939  33.367  0.00  0.00    -0.125 NA
ATOM      6  C   UNL d   1     -50.005  27.364  33.416  0.00  0.00     0.135 A 
ATOM      7  N   UNL d   1     -49.711  25.741  33.387  0.00  0.00    -0.203 NA
ATOM      8  N   UNL d   1     -49.226  27.085  33.431  0.00  0.00    -0.216 NA
ATOM      9  C   UNL d   1     -49.079  26.273  33.416  0.00  0.00     0.201 A 
ENDROOT
BRANCH   6  10
ATOM     10  S   UNL d   1     -50.151  28.176  33.430  0.00  0.00    -0.061 SA
BRANCH  10  11
ATOM     11  C   UNL d   1     -49.546  28.706  33.310  0.00  0.00     0.098 C 
BRANCH  11  12
ATOM     12  C   UNL d   1     -49.588  29.459  33.644  0.00  0.00     0.272 C 
ATOM     13  N   UNL d   1     -49.014  29.691  34.194  0.00  0.00    -0.269 N 
ATOM     14  C   UNL d   1     -48.404  29.172  34.405  0.00  0.00     0.102 A 
ATOM     15  C   UNL d   1     -49.042  30.441  34.537  0.00  0.00     0.102 A 
ATOM     16  C   UNL d   1     -47.830  29.403  34.954  0.00  0.00     0.100 A 
ATOM     17  N   UNL d   1     -47.865  30.154  35.293  0.00  0.00    -0.301 N 
ATOM     18  C   UNL d   1     -48.474  30.674  35.082  0.00  0.00     0.100 A 
ATOM     19  O   UNL d   1     -50.190  29.977  33.438  0.00  0.00    -0.266 OA
BRANCH  17  20
ATOM     20  C   UNL d   1     -47.291  30.387  35.842  0.00  0.00     0.064 A 
ATOM     21  C   UNL d   1     -47.208  31.184  36.038  0.00  0.00     0.018 A 
ATOM     22  C   UNL d   1     -46.635  31.407  36.586  0.00  0.00     0.002 A 
ATOM     23  C   UNL d   1     -46.155  30.854  36.931  0.00  0.00     0.000 A 
ATOM     24  C   UNL d   1     -46.238  30.057  36.735  0.00  0.00     0.002 A 
ATOM     25  C   UNL d   1     -46.813  29.825  36.185  0.00  0.00     0.018 A 
ENDBRANCH  17  20
ENDBRANCH  11  12
ENDBRANCH  10  11
ENDBRANCH   6  10
BRANCH   1  26
ATOM     26  C   UNL d   1     -51.329  24.812  33.321  0.00  0.00     0.106 C 
BRANCH  26  27
ATOM     27  C   UNL d   1     -52.099  24.502  33.385  0.00  0.00     0.047 A 
ATOM     28  C   UNL d   1     -52.208  23.697  33.527  0.00  0.00     0.142 A 
ATOM     29  F   UNL d   1     -51.567  23.191  33.608  0.00  0.00    -0.204 F 
ATOM     30  C   UNL d   1     -52.961  23.390  33.591  0.00  0.00     0.030 A 
ATOM     31  C   UNL d   1     -53.616  23.889  33.512  0.00  0.00     0.002 A 
ATOM     32  C   UNL d   1     -53.511  24.700  33.369  0.00  0.00     0.000 A 
ATOM     33  C   UNL d   1     -52.757  24.990  33.308  0.00  0.00     0.004 A 
ENDBRANCH  26  27
ENDBRANCH   1  26
TORSDOF 6
ENDMDL
MODEL 2
REMARK VINA RESULT:      86.8      1.631      2.164
REMARK  6 active torsions:
REMARK  status: ('A' for Active; 'I' for Inactive)
REMARK    1  A    between atoms: C_10  and  N_1 
REMARK    2  A    between atoms: S_14  and  C_6 
REMARK       I    between atoms: N_7  and  C_11 
REMARK    3  A    between atoms: C_22  and  N_9 
REMARK    4  A    between atoms: C_13  and  C_10 
REMARK    5  A    between atoms: C_11  and  C_16 
REMARK    6  A    between atoms: C_16  and  S_14 
ROOT
ATOM      1  N   UNL d   1     -50.953  26.046  33.714  0.00  0.00    -0.192 N 
ATOM      2  N   UNL d   1     -50.248  25.979  33.306  0.00  0.00    -0.058 NA
ATOM      3  C   UNL d   1     -50.817  26.521  34.370  0.00  0.00     0.189 A 
ATOM      4  C   UNL d   1     -50.022  26.741  34.356  0.00  0.00     0.164 A 
ATOM      5  N   UNL d   1     -49.681  26.399  33.692  0.00  0.00    -0.125 NA
ATOM      6  C   UNL d   1     -49.716  27.218  34.941  0.00  0.00     0.135 A 
ATOM      7  N   UNL d   1     -51.305  26.778  34.968  0.00  0.00    -0.203 NA
ATOM      8  N   UNL d   1     -50.207  27.482  35.552  0.00  0.00    -0.216 NA
ATOM      9  C   UNL d   1     -51.002  27.262  35.566  0.00  0.00     0.201 A 
ENDROOT
BRANCH   6  10
ATOM     10  S   UNL d   1     -48.921  27.438  34.928  0.00  0.00    -0.061 SA
BRANCH  10  11
ATOM     11  C   UNL d   1     -48.703  28.182  34.679  0.00  0.00     0.098 C 
BRANCH  11  12
ATOM     12  C   UNL d   1     -48.317  28.692  35.199  0.00  0.00     0.272 C 
ATOM     13  N   UNL d   1     -48.185  29.477  34.973  0.00  0.00    -0.269 N 
ATOM     14  C   UNL d   1     -48.437  29.746  34.232  0.00  0.00     0.102 A 
ATOM     15  C   UNL d   1     -47.800  30.000  35.482  0.00  0.00     0.102 A 
ATOM     16  C   UNL d   1     -48.305  30.531  34.005  0.00  0.00     0.100 A 
ATOM     17  N   UNL d   1     -47.919  31.048  34.519  0.00  0.00    -0.301 N 
ATOM     18  C   UNL d   1     -47.666  30.780  35.261  0.00  0.00     0.100 A 
ATOM     19  O   UNL d   1     -48.065  28.430  35.934  0.00  0.00    -0.266 OA
BRANCH  17  20
ATOM     20  C   UNL d   1     -47.786  31.833  34.294  0.00  0.00     0.064 A 
ATOM     21  C   UNL d   1     -48.396  32.386  34.349  0.00  0.00     0.018 A 
ATOM     22  C   UNL d   1     -48.255  33.166  34.122  0.00  0.00     0.002 A 
ATOM     23  C   UNL d   1     -47.528  33.391  33.848  0.00  0.00     0.000 A 
ATOM     24  C   UNL d   1     -46.919  32.838  33.793  0.00  0.00     0.002 A 
ATOM     25  C   UNL d   1     -47.052  32.053  34.019  0.00  0.00     0.018 A 
ENDBRANCH  17  20
ENDBRANCH  11  12
ENDBRANCH  10  11
ENDBRANCH   6  10
BRANCH   1  26
ATOM     26  C   UNL d   1     -51.680  25.692  33.497  0.00  0.00     0.106 C 
BRANCH  26  27
ATOM     27  C   UNL d   1     -51.745  24.865  33.433  0.00  0.00     0.047 A 
ATOM     28  C   UNL d   1     -52.488  24.514  33.368  0.00  0.00     0.142 A 
ATOM     29  F   UNL d   1     -53.172  24.968  33.364  0.00  0.00    -0.204 F 
ATOM     30  C   UNL d   1     -52.555  23.704  33.305  0.00  0.00     0.030 A 
ATOM     31  C   UNL d   1     -51.874  23.234  33.308  0.00  0.00     0.002 A 
ATOM     32  C   UNL d   1     -51.123  23.583  33.374  0.00  0.00     0.000 A 
ATOM     33  C   UNL d   1     -51.074  24.389  33.435  0.00  0.00     0.004 A 
ENDBRANCH  26  27
ENDBRANCH   1  26
TORSDOF 6
ENDMDL
