MODEL 1
REMARK VINA RESULT:      39.2      0.000      0.000
REMARK  4 active torsions:
REMARK  status: ('A' for Active; 'I' for Inactive)
REMARK    1  A    between atoms: C_2  and  C_1 
REMARK    2  A    between atoms: C_8  and  C_1 
REMARK    3  A    between atoms: C_9  and  C_2 
REMARK    4  A    between atoms: N_4  and  C_3 
ROOT
ATOM      1  C   UNL d   1     -58.413 -99.273 -44.269  0.00  0.00     0.064 A 
ATOM      2  C   UNL d   1     -58.178 -99.934 -44.701  0.00  0.00     0.018 A 
ATOM      3  C   UNL d   1     -57.852 -98.756 -43.936  0.00  0.00     0.018 A 
ATOM      4  C   UNL d   1     -56.808 -99.578 -44.480  0.00  0.00     0.000 A 
ATOM      5  C   UNL d   1     -57.378-100.080 -44.803  0.00  0.00     0.002 A 
ATOM      6  C   UNL d   1     -57.054 -98.908 -44.042  0.00  0.00     0.002 A 
ENDROOT
BRANCH   4   7
ATOM      7  C   UNL d   1     -56.005 -99.725 -44.582  0.00  0.00     0.000 C 
BRANCH   7   8
ATOM      8  C   UNL d   1     -55.764-100.357 -45.048  0.00  0.00     0.000 C 
BRANCH   8   9
ATOM      9  C   UNL d   1     -55.420-101.019 -44.691  0.00  0.00     0.003 A 
ATOM     10  C   UNL d   1     -55.188-101.634 -45.186  0.00  0.00     0.021 A 
ATOM     11  C   UNL d   1     -54.837-102.318 -44.856  0.00  0.00     0.099 A 
ATOM     12  N   UNL d   1     -54.726-102.372 -44.034  0.00  0.00    -0.242 NA
ATOM     13  C   UNL d   1     -54.965-101.745 -43.551  0.00  0.00     0.099 A 
ATOM     14  C   UNL d   1     -55.310-101.070 -43.872  0.00  0.00     0.021 A 
ENDBRANCH   8   9
ENDBRANCH   7   8
ENDBRANCH   4   7
BRANCH   1  15
ATOM     15  N   UNL d   1     -59.226 -99.113 -44.159  0.00  0.00    -0.301 N 
ATOM     16  C   UNL d   1     -59.581 -99.290 -43.432  0.00  0.00     0.100 C 
ATOM     17  C   UNL d   1     -59.668 -98.781 -44.774  0.00  0.00     0.100 C 
ENDBRANCH   1  15
TORSDOF 4
ENDMDL
MODEL 2
REMARK VINA RESULT:      41.6      1.081      1.746
REMARK  4 active torsions:
REMARK  status: ('A' for Active; 'I' for Inactive)
REMARK    1  A    between atoms: C_2  and  C_1 
REMARK    2  A    between atoms: C_8  and  C_1 
REMARK    3  A    between atoms: C_9  and  C_2 
REMARK    4  A    between atoms: N_4  and  C_3 
ROOT
ATOM      1  C   UNL d   1     -58.551 -98.804 -43.007  0.00  0.00     0.064 A 
ATOM      2  C   UNL d   1     -57.739 -98.757 -42.877  0.00  0.00     0.018 A 
ATOM      3  C   UNL d   1     -58.860 -98.851 -43.779  0.00  0.00     0.018 A 
ATOM      4  C   UNL d   1     -57.520 -98.805 -44.291  0.00  0.00     0.000 A 
ATOM      5  C   UNL d   1     -57.231 -98.758 -43.520  0.00  0.00     0.002 A 
ATOM      6  C   UNL d   1     -58.346 -98.852 -44.417  0.00  0.00     0.002 A 
ENDROOT
BRANCH   4   7
ATOM      7  C   UNL d   1     -57.010 -98.806 -44.937  0.00  0.00     0.000 C 
BRANCH   7   8
ATOM      8  C   UNL d   1     -56.769 -99.520 -45.263  0.00  0.00     0.000 C 
BRANCH   8   9
ATOM      9  C   UNL d   1     -56.119 -99.918 -44.943  0.00  0.00     0.003 A 
ATOM     10  C   UNL d   1     -56.273-100.502 -44.385  0.00  0.00     0.021 A 
ATOM     11  C   UNL d   1     -55.637-100.922 -44.041  0.00  0.00     0.099 A 
ATOM     12  N   UNL d   1     -54.856-100.748 -44.265  0.00  0.00    -0.242 NA
ATOM     13  C   UNL d   1     -54.718-100.158 -44.828  0.00  0.00     0.099 A 
ATOM     14  C   UNL d   1     -55.342 -99.742 -45.168  0.00  0.00     0.021 A 
ENDBRANCH   8   9
ENDBRANCH   7   8
ENDBRANCH   4   7
BRANCH   1  15
ATOM     15  N   UNL d   1     -59.080 -98.803 -42.359  0.00  0.00    -0.301 N 
ATOM     16  C   UNL d   1     -59.895 -98.843 -42.499  0.00  0.00     0.100 C 
ATOM     17  C   UNL d   1     -58.786 -98.764 -41.587  0.00  0.00     0.100 C 
ENDBRANCH   1  15
TORSDOF 4
ENDMDL
MODEL 3
REMARK VINA RESULT:      41.7      0.824      1.128
REMARK  4 active torsions:
REMARK  status: ('A' for Active; 'I' for Inactive)
REMARK    1  A    between atoms: C_2  and  C_1 
REMARK    2  A    between atoms: C_8  and  C_1 
REMARK    3  A    between atoms: C_9  and  C_2 
REMARK    4  A    between atoms: N_4  and  C_3 
ROOT
ATOM      1  C   UNL d   1     -58.329 -99.066 -43.598  0.00  0.00     0.064 A 
ATOM      2  C   UNL d   1     -58.253 -99.040 -44.417  0.00  0.00     0.018 A 
ATOM      3  C   UNL d   1     -57.661 -99.020 -43.102  0.00  0.00     0.018 A 
ATOM      4  C   UNL d   1     -56.833 -98.921 -44.271  0.00  0.00     0.000 A 
ATOM      5  C   UNL d   1     -57.506 -98.968 -44.746  0.00  0.00     0.002 A 
ATOM      6  C   UNL d   1     -56.918 -98.948 -43.439  0.00  0.00     0.002 A 
ENDROOT
BRANCH   4   7
ATOM      7  C   UNL d   1     -56.083 -98.849 -44.601  0.00  0.00     0.000 C 
BRANCH   7   8
ATOM      8  C   UNL d   1     -55.466 -99.310 -44.314  0.00  0.00     0.000 C 
BRANCH   8   9
ATOM      9  C   UNL d   1     -55.440-100.116 -44.495  0.00  0.00     0.003 A 
ATOM     10  C   UNL d   1     -54.834-100.558 -44.158  0.00  0.00     0.021 A 
ATOM     11  C   UNL d   1     -54.780-101.377 -44.321  0.00  0.00     0.099 A 
ATOM     12  N   UNL d   1     -55.337-101.737 -44.822  0.00  0.00    -0.242 NA
ATOM     13  C   UNL d   1     -55.940-101.279 -45.153  0.00  0.00     0.099 A 
ATOM     14  C   UNL d   1     -55.996-100.473 -44.995  0.00  0.00     0.021 A 
ENDBRANCH   8   9
ENDBRANCH   7   8
ENDBRANCH   4   7
BRANCH   1  15
ATOM     15  N   UNL d   1     -59.086 -99.139 -43.250  0.00  0.00    -0.301 N 
ATOM     16  C   UNL d   1     -59.176 -99.595 -42.564  0.00  0.00     0.100 C 
ATOM     17  C   UNL d   1     -59.735 -98.757 -43.591  0.00  0.00     0.100 C 
ENDBRANCH   1  15
TORSDOF 4
ENDMDL
