MODEL 1
REMARK VINA RESULT:      23.4      0.000      0.000
REMARK  3 active torsions:
REMARK  status: ('A' for Active; 'I' for Inactive)
REMARK    1  A    between atoms: C_6  and  C_1 
REMARK    2  A    between atoms: C_4  and  C_8 
REMARK       I    between atoms: N_11  and  C_6 
REMARK       I    between atoms: C_8  and  N_12 
REMARK    3  A    between atoms: N_12  and  N_11 
ROOT
ATOM      1  C   UNL d   1      45.992 -17.140  44.005  0.00  0.00     0.302 C 
ATOM      2  N   UNL d   1      46.313 -16.451  43.686  0.00  0.00    -0.102 NA
ATOM      3  O   UNL d   1      45.502 -17.107  44.670  0.00  0.00    -0.263 OA
ENDROOT
BRANCH   1   4
ATOM      4  C   UNL d   1      46.157 -17.877  43.663  0.00  0.00     0.123 A 
ATOM      5  C   UNL d   1      46.317 -18.522  44.136  0.00  0.00     0.305 A 
ATOM      6  O   UNL d   1      46.481 -19.257  43.782  0.00  0.00    -0.273 OA
ATOM      7  O   UNL d   1      46.316 -18.447  44.954  0.00  0.00    -0.259 OA
ATOM      8  C   UNL d   1      46.482 -19.332  42.964  0.00  0.00     0.103 A 
ATOM      9  C   UNL d   1      46.320 -18.676  42.487  0.00  0.00     0.024 A 
ATOM     10  C   UNL d   1      46.645 -20.061  42.621  0.00  0.00     0.025 A 
ATOM     11  C   UNL d   1      46.157 -17.946  42.840  0.00  0.00     0.012 A 
ATOM     12  C   UNL d   1      46.321 -18.751  41.669  0.00  0.00     0.009 A 
ATOM     13  C   UNL d   1      46.483 -19.476  41.316  0.00  0.00     0.035 A 
ATOM     14  C   UNL d   1      46.646 -20.136  41.796  0.00  0.00     0.009 A 
ATOM     15 BR   UNL d   1      46.484 -19.551  40.498  0.00  0.00    -0.049 Br
ENDBRANCH   1   4
BRANCH   2  16
ATOM     16  N   UNL d   1      46.139 -15.725  44.039  0.00  0.00    -0.102 NA
ATOM     17  C   UNL d   1      46.190 -15.037  43.588  0.00  0.00     0.300 C 
ATOM     18  O   UNL d   1      46.413 -15.071  42.794  0.00  0.00    -0.264 OA
BRANCH  17  19
ATOM     19  C   UNL d   1      46.018 -14.307  43.932  0.00  0.00     0.098 A 
ATOM     20  C   UNL d   1      45.372 -13.870  43.662  0.00  0.00     0.203 A 
ATOM     21  C   UNL d   1      45.198 -13.146  43.999  0.00  0.00     0.084 A 
ATOM     22  O   UNL d   1      44.902 -14.163  43.053  0.00  0.00    -0.286 OA
ATOM     23  C   UNL d   1      45.666 -12.849  44.608  0.00  0.00     0.199 A 
ATOM     24  C   UNL d   1      46.313 -13.284  44.881  0.00  0.00     0.042 A 
ATOM     25  O   UNL d   1      45.491 -12.120  44.949  0.00  0.00    -0.286 OA
ATOM     26  C   UNL d   1      46.488 -14.019  44.537  0.00  0.00     0.011 A 
ENDBRANCH  17  19
ENDBRANCH   2  16
TORSDOF 3
ENDMDL
