MODEL 1
REMARK VINA RESULT:      -2.7      0.000      0.000
REMARK  5 active torsions:
REMARK  status: ('A' for Active; 'I' for Inactive)
REMARK    1  A    between atoms: C_2  and  S_1 
REMARK    2  A    between atoms: N_5  and  S_1 
REMARK    3  A    between atoms: O_14  and  C_4 
REMARK    4  A    between atoms: C_11  and  N_5 
REMARK    5  A    between atoms: C_15  and  C_11 
ROOT
ATOM      1  C   UNL d   1      32.667  21.946 -21.096  0.00  0.00     0.128 A 
ATOM      2  C   UNL d   1      32.781  21.138 -20.988  0.00  0.00     0.026 A 
ATOM      3  C   UNL d   1      32.741  22.274 -21.847  0.00  0.00     0.106 A 
ATOM      4  C   UNL d   1      32.968  20.658 -21.632  0.00  0.00     0.059 A 
ATOM      5  C   UNL d   1      32.929  21.794 -22.491  0.00  0.00     0.026 A 
ATOM      6  C   UNL d   1      33.043  20.985 -22.384  0.00  0.00     0.013 A 
ATOM      7 CL   UNL d   1      33.082  19.849 -21.525  0.00  0.00    -0.082 Cl
ATOM      8  C   UNL d   1      33.231  20.505 -23.028  0.00  0.00     0.001 C 
ENDROOT
BRANCH   1   9
ATOM      9  S   UNL d   1      32.479  22.426 -20.452  0.00  0.00     0.287 S 
ATOM     10  O   UNL d   1      31.718  22.531 -20.752  0.00  0.00    -0.198 OA
ATOM     11  O   UNL d   1      33.240  22.321 -20.151  0.00  0.00    -0.198 OA
BRANCH   9  12
ATOM     12  N   UNL d   1      32.291  22.906 -19.808  0.00  0.00    -0.155 NA
BRANCH  12  13
ATOM     13  C   UNL d   1      32.844  23.031 -19.210  0.00  0.00     0.137 C 
BRANCH  13  14
ATOM     14  C   UNL d   1      32.594  23.227 -18.449  0.00  0.00     0.120 A 
ATOM     15  O   UNL d   1      32.995  23.062 -17.747  0.00  0.00    -0.304 OA
ATOM     16  C   UNL d   1      32.549  23.354 -17.124  0.00  0.00     0.123 A 
ATOM     17  C   UNL d   1      31.866  23.702 -17.429  0.00  0.00     0.029 A 
ATOM     18  C   UNL d   1      31.899  23.621 -18.251  0.00  0.00     0.028 A 
ENDBRANCH  13  14
ENDBRANCH  12  13
ENDBRANCH   9  12
ENDBRANCH   1   9
BRANCH   3  19
ATOM     19  O   UNL d   1      32.627  23.086 -21.958  0.00  0.00    -0.327 OA
ATOM     20  C   UNL d   1      32.702  23.414 -22.708  0.00  0.00     0.181 C 
ENDBRANCH   3  19
TORSDOF 5
ENDMDL
MODEL 2
REMARK VINA RESULT:      -2.3      4.123      5.544
REMARK  5 active torsions:
REMARK  status: ('A' for Active; 'I' for Inactive)
REMARK    1  A    between atoms: C_2  and  S_1 
REMARK    2  A    between atoms: N_5  and  S_1 
REMARK    3  A    between atoms: O_14  and  C_4 
REMARK    4  A    between atoms: C_11  and  N_5 
REMARK    5  A    between atoms: C_15  and  C_11 
ROOT
ATOM      1  C   UNL d   1      32.055  17.611 -23.862  0.00  0.00     0.128 A 
ATOM      2  C   UNL d   1      31.374  17.834 -24.266  0.00  0.00     0.026 A 
ATOM      3  C   UNL d   1      32.297  16.824 -23.870  0.00  0.00     0.106 A 
ATOM      4  C   UNL d   1      30.934  17.271 -24.677  0.00  0.00     0.059 A 
ATOM      5  C   UNL d   1      31.857  16.260 -24.281  0.00  0.00     0.026 A 
ATOM      6  C   UNL d   1      31.175  16.484 -24.685  0.00  0.00     0.013 A 
ATOM      7 CL   UNL d   1      30.252  17.494 -25.081  0.00  0.00    -0.082 Cl
ATOM      8  C   UNL d   1      30.735  15.920 -25.097  0.00  0.00     0.001 C 
ENDROOT
BRANCH   1   9
ATOM      9  S   UNL d   1      32.496  18.174 -23.451  0.00  0.00     0.287 S 
ATOM     10  O   UNL d   1      33.063  18.169 -24.050  0.00  0.00    -0.198 OA
ATOM     11  O   UNL d   1      31.928  18.180 -22.852  0.00  0.00    -0.198 OA
BRANCH   9  12
ATOM     12  N   UNL d   1      32.936  18.738 -23.039  0.00  0.00    -0.155 NA
BRANCH  12  13
ATOM     13  C   UNL d   1      32.816  19.540 -23.183  0.00  0.00     0.137 C 
BRANCH  13  14
ATOM     14  C   UNL d   1      32.980  20.094 -22.594  0.00  0.00     0.120 A 
ATOM     15  O   UNL d   1      33.065  20.908 -22.701  0.00  0.00    -0.304 OA
ATOM     16  C   UNL d   1      33.224  21.246 -21.971  0.00  0.00     0.123 A 
ATOM     17  C   UNL d   1      33.241  20.649 -21.402  0.00  0.00     0.029 A 
ATOM     18  C   UNL d   1      33.089  19.937 -21.794  0.00  0.00     0.028 A 
ENDBRANCH  13  14
ENDBRANCH  12  13
ENDBRANCH   9  12
ENDBRANCH   1   9
BRANCH   3  19
ATOM     19  O   UNL d   1      32.982  16.597 -23.465  0.00  0.00    -0.327 OA
ATOM     20  C   UNL d   1      33.202  15.805 -23.440  0.00  0.00     0.181 C 
ENDBRANCH   3  19
TORSDOF 5
ENDMDL
MODEL 3
REMARK VINA RESULT:      -1.9      3.462      5.522
REMARK  5 active torsions:
REMARK  status: ('A' for Active; 'I' for Inactive)
REMARK    1  A    between atoms: C_2  and  S_1 
REMARK    2  A    between atoms: N_5  and  S_1 
REMARK    3  A    between atoms: O_14  and  C_4 
REMARK    4  A    between atoms: C_11  and  N_5 
REMARK    5  A    between atoms: C_15  and  C_11 
ROOT
ATOM      1  C   UNL d   1      32.909  19.730 -22.705  0.00  0.00     0.128 A 
ATOM      2  C   UNL d   1      32.820  19.834 -21.894  0.00  0.00     0.026 A 
ATOM      3  C   UNL d   1      33.106  20.372 -23.182  0.00  0.00     0.106 A 
ATOM      4  C   UNL d   1      32.927  20.580 -21.559  0.00  0.00     0.059 A 
ATOM      5  C   UNL d   1      33.213  21.118 -22.847  0.00  0.00     0.026 A 
ATOM      6  C   UNL d   1      33.123  21.222 -22.035  0.00  0.00     0.013 A 
ATOM      7 CL   UNL d   1      32.837  20.684 -20.747  0.00  0.00    -0.082 Cl
ATOM      8  C   UNL d   1      33.230  21.968 -21.699  0.00  0.00     0.001 C 
ENDROOT
BRANCH   1   9
ATOM      9  S   UNL d   1      32.802  18.984 -23.041  0.00  0.00     0.287 S 
ATOM     10  O   UNL d   1      33.240  18.646 -22.429  0.00  0.00    -0.198 OA
ATOM     11  O   UNL d   1      32.364  19.321 -23.653  0.00  0.00    -0.198 OA
BRANCH   9  12
ATOM     12  N   UNL d   1      32.695  18.237 -23.376  0.00  0.00    -0.155 NA
BRANCH  12  13
ATOM     13  C   UNL d   1      32.382  17.623 -22.925  0.00  0.00     0.137 C 
BRANCH  13  14
ATOM     14  C   UNL d   1      32.142  16.923 -23.290  0.00  0.00     0.120 A 
ATOM     15  O   UNL d   1      31.364  16.674 -23.401  0.00  0.00    -0.304 OA
ATOM     16  C   UNL d   1      31.380  15.950 -23.785  0.00  0.00     0.123 A 
ATOM     17  C   UNL d   1      32.167  15.740 -23.918  0.00  0.00     0.029 A 
ATOM     18  C   UNL d   1      32.635  16.347 -23.609  0.00  0.00     0.028 A 
ENDBRANCH  13  14
ENDBRANCH  12  13
ENDBRANCH   9  12
ENDBRANCH   1   9
BRANCH   3  19
ATOM     19  O   UNL d   1      33.196  20.270 -23.998  0.00  0.00    -0.327 OA
ATOM     20  C   UNL d   1      33.241  20.925 -24.493  0.00  0.00     0.181 C 
ENDBRANCH   3  19
TORSDOF 5
ENDMDL
MODEL 4
REMARK VINA RESULT:      -1.8      2.640      4.789
REMARK  5 active torsions:
REMARK  status: ('A' for Active; 'I' for Inactive)
REMARK    1  A    between atoms: C_2  and  S_1 
REMARK    2  A    between atoms: N_5  and  S_1 
REMARK    3  A    between atoms: O_14  and  C_4 
REMARK    4  A    between atoms: C_11  and  N_5 
REMARK    5  A    between atoms: C_15  and  C_11 
ROOT
ATOM      1  C   UNL d   1      32.800  20.839 -22.042  0.00  0.00     0.128 A 
ATOM      2  C   UNL d   1      32.502  20.917 -21.279  0.00  0.00     0.026 A 
ATOM      3  C   UNL d   1      32.942  21.510 -22.497  0.00  0.00     0.106 A 
ATOM      4  C   UNL d   1      32.346  21.666 -20.970  0.00  0.00     0.059 A 
ATOM      5  C   UNL d   1      32.786  22.260 -22.189  0.00  0.00     0.026 A 
ATOM      6  C   UNL d   1      32.488  22.338 -21.425  0.00  0.00     0.013 A 
ATOM      7 CL   UNL d   1      32.048  21.744 -20.206  0.00  0.00    -0.082 Cl
ATOM      8  C   UNL d   1      32.331  23.087 -21.116  0.00  0.00     0.001 C 
ENDROOT
BRANCH   1   9
ATOM      9  S   UNL d   1      32.956  20.090 -22.350  0.00  0.00     0.287 S 
ATOM     10  O   UNL d   1      33.241  19.847 -21.615  0.00  0.00    -0.198 OA
ATOM     11  O   UNL d   1      32.670  20.334 -23.085  0.00  0.00    -0.198 OA
BRANCH   9  12
ATOM     12  N   UNL d   1      33.112  19.341 -22.659  0.00  0.00    -0.155 NA
BRANCH  12  13
ATOM     13  C   UNL d   1      32.490  18.836 -22.850  0.00  0.00     0.137 C 
BRANCH  13  14
ATOM     14  C   UNL d   1      32.646  18.085 -23.154  0.00  0.00     0.120 A 
ATOM     15  O   UNL d   1      33.048  17.477 -22.767  0.00  0.00    -0.304 OA
ATOM     16  C   UNL d   1      33.077  16.831 -23.270  0.00  0.00     0.123 A 
ATOM     17  C   UNL d   1      32.695  17.027 -23.975  0.00  0.00     0.029 A 
ATOM     18  C   UNL d   1      32.430  17.806 -23.897  0.00  0.00     0.028 A 
ENDBRANCH  13  14
ENDBRANCH  12  13
ENDBRANCH   9  12
ENDBRANCH   1   9
BRANCH   3  19
ATOM     19  O   UNL d   1      33.241  21.435 -23.265  0.00  0.00    -0.327 OA
ATOM     20  C   UNL d   1      33.241  22.082 -23.773  0.00  0.00     0.181 C 
ENDBRANCH   3  19
TORSDOF 5
ENDMDL
MODEL 5
REMARK VINA RESULT:      -1.6      2.538      3.614
REMARK  5 active torsions:
REMARK  status: ('A' for Active; 'I' for Inactive)
REMARK    1  A    between atoms: C_2  and  S_1 
REMARK    2  A    between atoms: N_5  and  S_1 
REMARK    3  A    between atoms: O_14  and  C_4 
REMARK    4  A    between atoms: C_11  and  N_5 
REMARK    5  A    between atoms: C_15  and  C_11 
ROOT
ATOM      1  C   UNL d   1      33.111  19.084 -23.172  0.00  0.00     0.128 A 
ATOM      2  C   UNL d   1      33.026  18.316 -22.891  0.00  0.00     0.026 A 
ATOM      3  C   UNL d   1      33.155  19.223 -23.982  0.00  0.00     0.106 A 
ATOM      4  C   UNL d   1      32.984  17.685 -23.420  0.00  0.00     0.059 A 
ATOM      5  C   UNL d   1      33.113  18.591 -24.512  0.00  0.00     0.026 A 
ATOM      6  C   UNL d   1      33.028  17.822 -24.230  0.00  0.00     0.013 A 
ATOM      7 CL   UNL d   1      32.899  16.915 -23.139  0.00  0.00    -0.082 Cl
ATOM      8  C   UNL d   1      32.987  17.190 -24.760  0.00  0.00     0.001 C 
ENDROOT
BRANCH   1   9
ATOM      9  S   UNL d   1      33.152  19.716 -22.642  0.00  0.00     0.287 S 
ATOM     10  O   UNL d   1      33.220  20.241 -23.274  0.00  0.00    -0.198 OA
ATOM     11  O   UNL d   1      33.084  19.190 -22.010  0.00  0.00    -0.198 OA
BRANCH   9  12
ATOM     12  N   UNL d   1      33.193  20.347 -22.113  0.00  0.00    -0.155 NA
BRANCH  12  13
ATOM     13  C   UNL d   1      32.655  20.401 -21.491  0.00  0.00     0.137 C 
BRANCH  13  14
ATOM     14  C   UNL d   1      32.590  21.101 -21.060  0.00  0.00     0.120 A 
ATOM     15  O   UNL d   1      31.916  21.572 -20.994  0.00  0.00    -0.304 OA
ATOM     16  C   UNL d   1      32.097  22.211 -20.514  0.00  0.00     0.123 A 
ATOM     17  C   UNL d   1      32.884  22.147 -20.275  0.00  0.00     0.029 A 
ATOM     18  C   UNL d   1      33.185  21.457 -20.616  0.00  0.00     0.028 A 
ENDBRANCH  13  14
ENDBRANCH  12  13
ENDBRANCH   9  12
ENDBRANCH   1   9
BRANCH   3  19
ATOM     19  O   UNL d   1      33.240  19.994 -24.267  0.00  0.00    -0.327 OA
ATOM     20  C   UNL d   1      33.045  20.170 -25.047  0.00  0.00     0.181 C 
ENDBRANCH   3  19
TORSDOF 5
ENDMDL
MODEL 6
REMARK VINA RESULT:      -1.4      5.120      6.595
REMARK  5 active torsions:
REMARK  status: ('A' for Active; 'I' for Inactive)
REMARK    1  A    between atoms: C_2  and  S_1 
REMARK    2  A    between atoms: N_5  and  S_1 
REMARK    3  A    between atoms: O_14  and  C_4 
REMARK    4  A    between atoms: C_11  and  N_5 
REMARK    5  A    between atoms: C_15  and  C_11 
ROOT
ATOM      1  C   UNL d   1      30.428  17.258 -24.374  0.00  0.00     0.128 A 
ATOM      2  C   UNL d   1      29.667  17.538 -24.235  0.00  0.00     0.026 A 
ATOM      3  C   UNL d   1      30.540  16.484 -24.630  0.00  0.00     0.106 A 
ATOM      4  C   UNL d   1      29.017  17.044 -24.352  0.00  0.00     0.059 A 
ATOM      5  C   UNL d   1      29.890  15.990 -24.748  0.00  0.00     0.026 A 
ATOM      6  C   UNL d   1      29.127  16.270 -24.608  0.00  0.00     0.013 A 
ATOM      7 CL   UNL d   1      28.254  17.324 -24.213  0.00  0.00    -0.082 Cl
ATOM      8  C   UNL d   1      28.477  15.776 -24.726  0.00  0.00     0.001 C 
ENDROOT
BRANCH   1   9
ATOM      9  S   UNL d   1      31.078  17.753 -24.257  0.00  0.00     0.287 S 
ATOM     10  O   UNL d   1      31.074  17.948 -25.058  0.00  0.00    -0.198 OA
ATOM     11  O   UNL d   1      31.081  17.557 -23.455  0.00  0.00    -0.198 OA
BRANCH   9  12
ATOM     12  N   UNL d   1      31.728  18.247 -24.139  0.00  0.00    -0.155 NA
BRANCH  12  13
ATOM     13  C   UNL d   1      32.114  18.255 -23.412  0.00  0.00     0.137 C 
BRANCH  13  14
ATOM     14  C   UNL d   1      32.517  18.932 -23.165  0.00  0.00     0.120 A 
ATOM     15  O   UNL d   1      32.589  19.637 -23.587  0.00  0.00    -0.304 OA
ATOM     16  C   UNL d   1      33.032  20.159 -23.138  0.00  0.00     0.123 A 
ATOM     17  C   UNL d   1      33.241  19.788 -22.431  0.00  0.00     0.029 A 
ATOM     18  C   UNL d   1      32.919  19.027 -22.454  0.00  0.00     0.028 A 
ENDBRANCH  13  14
ENDBRANCH  12  13
ENDBRANCH   9  12
ENDBRANCH   1   9
BRANCH   3  19
ATOM     19  O   UNL d   1      31.304  16.200 -24.771  0.00  0.00    -0.327 OA
ATOM     20  C   UNL d   1      31.412  15.453 -25.097  0.00  0.00     0.181 C 
ENDBRANCH   3  19
TORSDOF 5
ENDMDL
MODEL 7
REMARK VINA RESULT:      -0.5      6.081      7.521
REMARK  5 active torsions:
REMARK  status: ('A' for Active; 'I' for Inactive)
REMARK    1  A    between atoms: C_2  and  S_1 
REMARK    2  A    between atoms: N_5  and  S_1 
REMARK    3  A    between atoms: O_14  and  C_4 
REMARK    4  A    between atoms: C_11  and  N_5 
REMARK    5  A    between atoms: C_15  and  C_11 
ROOT
ATOM      1  C   UNL d   1      30.010  16.573 -24.006  0.00  0.00     0.128 A 
ATOM      2  C   UNL d   1      29.335  16.918 -24.325  0.00  0.00     0.026 A 
ATOM      3  C   UNL d   1      29.944  15.903 -23.532  0.00  0.00     0.106 A 
ATOM      4  C   UNL d   1      28.593  16.593 -24.171  0.00  0.00     0.059 A 
ATOM      5  C   UNL d   1      29.202  15.577 -23.379  0.00  0.00     0.026 A 
ATOM      6  C   UNL d   1      28.526  15.922 -23.698  0.00  0.00     0.013 A 
ATOM      7 CL   UNL d   1      27.916  16.938 -24.491  0.00  0.00    -0.082 Cl
ATOM      8  C   UNL d   1      27.783  15.597 -23.545  0.00  0.00     0.001 C 
ENDROOT
BRANCH   1   9
ATOM      9  S   UNL d   1      30.753  16.899 -24.159  0.00  0.00     0.287 S 
ATOM     10  O   UNL d   1      30.783  16.491 -24.875  0.00  0.00    -0.198 OA
ATOM     11  O   UNL d   1      30.722  17.307 -23.443  0.00  0.00    -0.198 OA
BRANCH   9  12
ATOM     12  N   UNL d   1      31.495  17.224 -24.313  0.00  0.00    -0.155 NA
BRANCH  12  13
ATOM     13  C   UNL d   1      31.610  17.692 -24.981  0.00  0.00     0.137 C 
BRANCH  13  14
ATOM     14  C   UNL d   1      32.129  18.333 -24.953  0.00  0.00     0.120 A 
ATOM     15  O   UNL d   1      31.937  19.122 -25.097  0.00  0.00    -0.304 OA
ATOM     16  C   UNL d   1      32.617  19.571 -25.009  0.00  0.00     0.123 A 
ATOM     17  C   UNL d   1      33.240  19.068 -24.810  0.00  0.00     0.029 A 
ATOM     18  C   UNL d   1      32.932  18.302 -24.777  0.00  0.00     0.028 A 
ENDBRANCH  13  14
ENDBRANCH  12  13
ENDBRANCH   9  12
ENDBRANCH   1   9
BRANCH   3  19
ATOM     19  O   UNL d   1      30.622  15.554 -23.210  0.00  0.00    -0.327 OA
ATOM     20  C   UNL d   1      30.685  15.453 -22.396  0.00  0.00     0.181 C 
ENDBRANCH   3  19
TORSDOF 5
ENDMDL
