MODEL 1
REMARK VINA RESULT:      12.3      0.000      0.000
REMARK  5 active torsions:
REMARK  status: ('A' for Active; 'I' for Inactive)
REMARK    1  A    between atoms: O_2  and  S_1 
REMARK    2  A    between atoms: C_3  and  S_1 
REMARK    3  A    between atoms: C_6  and  O_2 
REMARK    4  A    between atoms: O_17  and  C_14 
REMARK    5  A    between atoms: C_20  and  O_17 
ROOT
ATOM      1  S   UNL d   1      45.814 -15.976  44.765  0.00  0.00     0.304 S 
ATOM      2  O   UNL d   1      45.009 -16.130  44.696  0.00  0.00    -0.193 OA
ATOM      3  O   UNL d   1      46.619 -15.823  44.834  0.00  0.00    -0.193 OA
ENDROOT
BRANCH   1   4
ATOM      4  O   UNL d   1      45.949 -16.765  44.954  0.00  0.00    -0.227 OA
BRANCH   4   5
ATOM      5  C   UNL d   1      46.087 -17.314  44.355  0.00  0.00     0.114 A 
ATOM      6  C   UNL d   1      46.228 -18.109  44.543  0.00  0.00     0.026 A 
ATOM      7  C   UNL d   1      46.366 -18.654  43.945  0.00  0.00     0.002 A 
ATOM      8  C   UNL d   1      46.506 -19.445  44.134  0.00  0.00     0.000 A 
ATOM      9  C   UNL d   1      46.365 -18.412  43.151  0.00  0.00     0.000 A 
ATOM     10  C   UNL d   1      46.645 -19.998  43.534  0.00  0.00     0.000 A 
ATOM     11  C   UNL d   1      46.644 -19.756  42.740  0.00  0.00     0.000 A 
ATOM     12  C   UNL d   1      46.503 -18.962  42.552  0.00  0.00     0.000 A 
ATOM     13  C   UNL d   1      46.226 -17.625  42.961  0.00  0.00     0.002 A 
ATOM     14  C   UNL d   1      46.086 -17.071  43.562  0.00  0.00     0.026 A 
ENDBRANCH   4   5
ENDBRANCH   1   4
BRANCH   1  15
ATOM     15  C   UNL d   1      45.679 -15.187  44.576  0.00  0.00     0.111 A 
ATOM     16  C   UNL d   1      46.293 -14.721  44.278  0.00  0.00     0.015 A 
ATOM     17  C   UNL d   1      46.158 -13.931  44.089  0.00  0.00     0.025 A 
ATOM     18  C   UNL d   1      45.408 -13.597  44.196  0.00  0.00     0.100 A 
ATOM     19  C   UNL d   1      44.799 -14.066  44.494  0.00  0.00     0.025 A 
ATOM     20  C   UNL d   1      44.933 -14.856  44.683  0.00  0.00     0.015 A 
BRANCH  18  21
ATOM     21  O   UNL d   1      45.274 -12.807  44.007  0.00  0.00    -0.305 OA
BRANCH  21  22
ATOM     22  C   UNL d   1      45.304 -12.561  43.224  0.00  0.00     0.123 C 
ATOM     23  C   UNL d   1      44.653 -12.189  42.884  0.00  0.00     0.029 C 
ENDBRANCH  21  22
ENDBRANCH  18  21
ENDBRANCH   1  15
TORSDOF 5
ENDMDL
