MODEL 1
REMARK VINA RESULT:      -6.6      0.000      0.000
REMARK  6 active torsions:
REMARK  status: ('A' for Active; 'I' for Inactive)
REMARK    1  A    between atoms: C_6  and  C_1 
REMARK    2  A    between atoms: N_8  and  C_5 
REMARK    3  A    between atoms: O_13  and  C_6 
REMARK       I    between atoms: C_7  and  N_8 
REMARK    4  A    between atoms: O_12  and  C_7 
REMARK    5  A    between atoms: C_16  and  O_12 
REMARK    6  A    between atoms: C_17  and  O_13 
ROOT
ATOM      1  C   UNL d   1     -49.215  12.991  23.076  0.00  0.00     0.083 A 
ATOM      2  N   UNL d   1     -49.011  11.617  23.418  0.00  0.00    -0.244 NA
ATOM      3  C   UNL d   1     -49.520  12.252  23.219  0.00  0.00     0.087 A 
ATOM      4  C   UNL d   1     -48.390  13.124  23.126  0.00  0.00     0.028 A 
ATOM      5  C   UNL d   1     -47.883  12.504  23.322  0.00  0.00     0.104 A 
ATOM      6  C   UNL d   1     -48.193  11.753  23.467  0.00  0.00     0.099 A 
ATOM      7  C   UNL d   1     -50.338  12.116  23.170  0.00  0.00     0.021 C 
ATOM      8  C   UNL d   1     -47.679  11.116  23.667  0.00  0.00     0.022 C 
ENDROOT
BRANCH   5   9
ATOM      9  N   UNL d   1     -47.058  12.637  23.372  0.00  0.00    -0.184 NA
ATOM     10  C   UNL d   1     -46.654  12.952  22.721  0.00  0.00     0.392 C 
ATOM     11  O   UNL d   1     -47.056  13.138  22.017  0.00  0.00    -0.236 OA
BRANCH  10  12
ATOM     12  O   UNL d   1     -45.834  13.086  22.766  0.00  0.00    -0.256 OA
BRANCH  12  13
ATOM     13  C   UNL d   1     -45.404  13.291  22.095  0.00  0.00     0.128 C 
ATOM     14  C   UNL d   1     -44.636  13.023  21.993  0.00  0.00     0.029 C 
ENDBRANCH  12  13
ENDBRANCH  10  12
ENDBRANCH   5   9
BRANCH   1  15
ATOM     15  C   UNL d   1     -49.714  13.616  22.880  0.00  0.00     0.302 C 
ATOM     16  O   UNL d   1     -50.086  13.637  22.145  0.00  0.00    -0.259 OA
BRANCH  15  17
ATOM     17  O   UNL d   1     -49.836  14.219  23.427  0.00  0.00    -0.271 OA
BRANCH  17  18
ATOM     18  C   UNL d   1     -50.159  14.932  23.173  0.00  0.00     0.126 C 
ATOM     19  C   UNL d   1     -50.200  15.564  23.698  0.00  0.00     0.029 C 
ENDBRANCH  17  18
ENDBRANCH  15  17
ENDBRANCH   1  15
TORSDOF 6
ENDMDL
MODEL 2
REMARK VINA RESULT:      -6.3      0.784      3.694
REMARK  6 active torsions:
REMARK  status: ('A' for Active; 'I' for Inactive)
REMARK    1  A    between atoms: C_6  and  C_1 
REMARK    2  A    between atoms: N_8  and  C_5 
REMARK    3  A    between atoms: O_13  and  C_6 
REMARK       I    between atoms: C_7  and  N_8 
REMARK    4  A    between atoms: O_12  and  C_7 
REMARK    5  A    between atoms: C_16  and  O_12 
REMARK    6  A    between atoms: C_17  and  O_13 
ROOT
ATOM      1  C   UNL d   1     -47.308  12.642  23.118  0.00  0.00     0.083 A 
ATOM      2  N   UNL d   1     -48.208  11.603  23.515  0.00  0.00    -0.244 NA
ATOM      3  C   UNL d   1     -47.431  11.906  23.440  0.00  0.00     0.087 A 
ATOM      4  C   UNL d   1     -47.957  13.103  22.859  0.00  0.00     0.028 A 
ATOM      5  C   UNL d   1     -48.725  12.811  22.930  0.00  0.00     0.104 A 
ATOM      6  C   UNL d   1     -48.850  12.064  23.257  0.00  0.00     0.099 A 
ATOM      7  C   UNL d   1     -46.789  11.446  23.698  0.00  0.00     0.021 C 
ATOM      8  C   UNL d   1     -49.633  11.761  23.332  0.00  0.00     0.022 C 
ENDROOT
BRANCH   5   9
ATOM      9  N   UNL d   1     -49.374  13.272  22.671  0.00  0.00    -0.184 NA
ATOM     10  C   UNL d   1     -49.530  13.999  23.035  0.00  0.00     0.392 C 
ATOM     11  O   UNL d   1     -49.052  14.279  23.655  0.00  0.00    -0.236 OA
BRANCH  10  12
ATOM     12  O   UNL d   1     -50.174  14.462  22.781  0.00  0.00    -0.256 OA
BRANCH  12  13
ATOM     13  C   UNL d   1     -50.333  15.189  23.130  0.00  0.00     0.128 C 
ATOM     14  C   UNL d   1     -51.050  15.566  23.004  0.00  0.00     0.029 C 
ENDBRANCH  12  13
ENDBRANCH  10  12
ENDBRANCH   5   9
BRANCH   1  15
ATOM     15  C   UNL d   1     -46.545  12.941  23.043  0.00  0.00     0.302 C 
ATOM     16  O   UNL d   1     -46.162  13.274  23.694  0.00  0.00    -0.259 OA
BRANCH  15  17
ATOM     17  O   UNL d   1     -46.168  12.904  22.313  0.00  0.00    -0.271 OA
BRANCH  17  18
ATOM     18  C   UNL d   1     -45.461  13.310  22.204  0.00  0.00     0.126 C 
ATOM     19  C   UNL d   1     -44.937  13.057  21.622  0.00  0.00     0.029 C 
ENDBRANCH  17  18
ENDBRANCH  15  17
ENDBRANCH   1  15
TORSDOF 6
ENDMDL
MODEL 3
REMARK VINA RESULT:      -5.3      1.356      2.241
REMARK  6 active torsions:
REMARK  status: ('A' for Active; 'I' for Inactive)
REMARK    1  A    between atoms: C_6  and  C_1 
REMARK    2  A    between atoms: N_8  and  C_5 
REMARK    3  A    between atoms: O_13  and  C_6 
REMARK       I    between atoms: C_7  and  N_8 
REMARK    4  A    between atoms: O_12  and  C_7 
REMARK    5  A    between atoms: C_16  and  O_12 
REMARK    6  A    between atoms: C_17  and  O_13 
ROOT
ATOM      1  C   UNL d   1     -49.387  13.789  22.600  0.00  0.00     0.083 A 
ATOM      2  N   UNL d   1     -49.041  15.166  22.427  0.00  0.00    -0.244 NA
ATOM      3  C   UNL d   1     -49.609  14.551  22.427  0.00  0.00     0.087 A 
ATOM      4  C   UNL d   1     -48.589  13.612  22.780  0.00  0.00     0.028 A 
ATOM      5  C   UNL d   1     -48.024  14.213  22.782  0.00  0.00     0.104 A 
ATOM      6  C   UNL d   1     -48.249  14.987  22.606  0.00  0.00     0.099 A 
ATOM      7  C   UNL d   1     -50.401  14.730  22.247  0.00  0.00     0.021 C 
ATOM      8  C   UNL d   1     -47.676  15.604  22.607  0.00  0.00     0.022 C 
ENDROOT
BRANCH   5   9
ATOM      9  N   UNL d   1     -47.226  14.037  22.962  0.00  0.00    -0.184 NA
ATOM     10  C   UNL d   1     -46.811  13.496  22.493  0.00  0.00     0.392 C 
ATOM     11  O   UNL d   1     -47.175  13.123  21.844  0.00  0.00    -0.236 OA
BRANCH  10  12
ATOM     12  O   UNL d   1     -46.017  13.316  22.668  0.00  0.00    -0.256 OA
BRANCH  12  13
ATOM     13  C   UNL d   1     -45.559  12.877  22.144  0.00  0.00     0.128 C 
ATOM     14  C   UNL d   1     -44.765  13.049  22.037  0.00  0.00     0.029 C 
ENDBRANCH  12  13
ENDBRANCH  10  12
ENDBRANCH   5   9
BRANCH   1  15
ATOM     15  C   UNL d   1     -49.944  13.184  22.600  0.00  0.00     0.302 C 
ATOM     16  O   UNL d   1     -50.372  13.010  21.916  0.00  0.00    -0.259 OA
BRANCH  15  17
ATOM     17  O   UNL d   1     -50.070  12.753  23.290  0.00  0.00    -0.271 OA
BRANCH  17  18
ATOM     18  C   UNL d   1     -50.591  12.116  23.277  0.00  0.00     0.126 C 
ATOM     19  C   UNL d   1     -50.397  11.429  23.686  0.00  0.00     0.029 C 
ENDBRANCH  17  18
ENDBRANCH  15  17
ENDBRANCH   1  15
TORSDOF 6
ENDMDL
MODEL 4
REMARK VINA RESULT:      -5.2      8.573      9.516
REMARK  6 active torsions:
REMARK  status: ('A' for Active; 'I' for Inactive)
REMARK    1  A    between atoms: C_6  and  C_1 
REMARK    2  A    between atoms: N_8  and  C_5 
REMARK    3  A    between atoms: O_13  and  C_6 
REMARK       I    between atoms: C_7  and  N_8 
REMARK    4  A    between atoms: O_12  and  C_7 
REMARK    5  A    between atoms: C_16  and  O_12 
REMARK    6  A    between atoms: C_17  and  O_13 
ROOT
ATOM      1  C   UNL d   1     -40.420  14.732  18.983  0.00  0.00     0.083 A 
ATOM      2  N   UNL d   1     -40.805  15.912  19.692  0.00  0.00    -0.244 NA
ATOM      3  C   UNL d   1     -40.666  15.505  18.974  0.00  0.00     0.087 A 
ATOM      4  C   UNL d   1     -40.303  14.334  19.711  0.00  0.00     0.028 A 
ATOM      5  C   UNL d   1     -40.438  14.729  20.422  0.00  0.00     0.104 A 
ATOM      6  C   UNL d   1     -40.689  15.515  20.413  0.00  0.00     0.099 A 
ATOM      7  C   UNL d   1     -40.783  15.903  18.253  0.00  0.00     0.021 C 
ATOM      8  C   UNL d   1     -40.828  15.922  21.137  0.00  0.00     0.022 C 
ENDROOT
BRANCH   5   9
ATOM      9  N   UNL d   1     -40.322  14.332  21.150  0.00  0.00    -0.184 NA
ATOM     10  C   UNL d   1     -39.556  14.129  21.387  0.00  0.00     0.392 C 
ATOM     11  O   UNL d   1     -38.897  14.313  20.913  0.00  0.00    -0.236 OA
BRANCH  10  12
ATOM     12  O   UNL d   1     -39.434  13.733  22.110  0.00  0.00    -0.256 OA
BRANCH  12  13
ATOM     13  C   UNL d   1     -38.687  13.463  22.321  0.00  0.00     0.128 C 
ATOM     14  C   UNL d   1     -38.549  13.156  23.069  0.00  0.00     0.029 C 
ENDBRANCH  12  13
ENDBRANCH  10  12
ENDBRANCH   5   9
BRANCH   1  15
ATOM     15  C   UNL d   1     -40.282  14.330  18.278  0.00  0.00     0.302 C 
ATOM     16  O   UNL d   1     -40.913  14.026  17.842  0.00  0.00    -0.259 OA
BRANCH  15  17
ATOM     17  O   UNL d   1     -39.509  14.236  18.013  0.00  0.00    -0.271 OA
BRANCH  17  18
ATOM     18  C   UNL d   1     -39.347  13.672  17.436  0.00  0.00     0.126 C 
ATOM     19  C   UNL d   1     -38.565  13.513  17.237  0.00  0.00     0.029 C 
ENDBRANCH  17  18
ENDBRANCH  15  17
ENDBRANCH   1  15
TORSDOF 6
ENDMDL
MODEL 5
REMARK VINA RESULT:      -4.6      9.418     10.337
REMARK  6 active torsions:
REMARK  status: ('A' for Active; 'I' for Inactive)
REMARK    1  A    between atoms: C_6  and  C_1 
REMARK    2  A    between atoms: N_8  and  C_5 
REMARK    3  A    between atoms: O_13  and  C_6 
REMARK       I    between atoms: C_7  and  N_8 
REMARK    4  A    between atoms: O_12  and  C_7 
REMARK    5  A    between atoms: C_16  and  O_12 
REMARK    6  A    between atoms: C_17  and  O_13 
ROOT
ATOM      1  C   UNL d   1     -39.570  14.789  17.414  0.00  0.00     0.083 A 
ATOM      2  N   UNL d   1     -38.673  13.702  17.662  0.00  0.00    -0.244 NA
ATOM      3  C   UNL d   1     -39.051  14.230  17.134  0.00  0.00     0.087 A 
ATOM      4  C   UNL d   1     -39.731  14.842  18.234  0.00  0.00     0.028 A 
ATOM      5  C   UNL d   1     -39.362  14.325  18.760  0.00  0.00     0.104 A 
ATOM      6  C   UNL d   1     -38.835  13.757  18.475  0.00  0.00     0.099 A 
ATOM      7  C   UNL d   1     -38.890  14.175  16.320  0.00  0.00     0.021 C 
ATOM      8  C   UNL d   1     -38.456  13.228  19.010  0.00  0.00     0.022 C 
ENDROOT
BRANCH   5   9
ATOM      9  N   UNL d   1     -39.522  14.378  19.580  0.00  0.00    -0.184 NA
ATOM     10  C   UNL d   1     -39.342  15.075  19.988  0.00  0.00     0.392 C 
ATOM     11  O   UNL d   1     -39.002  15.725  19.596  0.00  0.00    -0.236 OA
BRANCH  10  12
ATOM     12  O   UNL d   1     -39.499  15.133  20.804  0.00  0.00    -0.256 OA
BRANCH  12  13
ATOM     13  C   UNL d   1     -39.557  15.867  21.170  0.00  0.00     0.128 C 
ATOM     14  C   UNL d   1     -39.659  15.922  21.982  0.00  0.00     0.029 C 
ENDBRANCH  12  13
ENDBRANCH  10  12
ENDBRANCH   5   9
BRANCH   1  15
ATOM     15  C   UNL d   1     -39.942  15.308  16.895  0.00  0.00     0.302 C 
ATOM     16  O   UNL d   1     -39.498  15.840  16.447  0.00  0.00    -0.259 OA
BRANCH  15  17
ATOM     17  O   UNL d   1     -40.762  15.291  16.829  0.00  0.00    -0.271 OA
BRANCH  17  18
ATOM     18  C   UNL d   1     -41.150  15.922  16.469  0.00  0.00     0.126 C 
ATOM     19  C   UNL d   1     -41.971  15.916  16.425  0.00  0.00     0.029 C 
ENDBRANCH  17  18
ENDBRANCH  15  17
ENDBRANCH   1  15
TORSDOF 6
ENDMDL
MODEL 6
REMARK VINA RESULT:      -4.6      1.520      4.146
REMARK  6 active torsions:
REMARK  status: ('A' for Active; 'I' for Inactive)
REMARK    1  A    between atoms: C_6  and  C_1 
REMARK    2  A    between atoms: N_8  and  C_5 
REMARK    3  A    between atoms: O_13  and  C_6 
REMARK       I    between atoms: C_7  and  N_8 
REMARK    4  A    between atoms: O_12  and  C_7 
REMARK    5  A    between atoms: C_16  and  O_12 
REMARK    6  A    between atoms: C_17  and  O_13 
ROOT
ATOM      1  C   UNL d   1     -46.667  13.765  22.797  0.00  0.00     0.083 A 
ATOM      2  N   UNL d   1     -47.332  15.031  22.770  0.00  0.00    -0.244 NA
ATOM      3  C   UNL d   1     -46.630  14.576  22.799  0.00  0.00     0.087 A 
ATOM      4  C   UNL d   1     -47.408  13.377  22.766  0.00  0.00     0.028 A 
ATOM      5  C   UNL d   1     -48.104  13.818  22.738  0.00  0.00     0.104 A 
ATOM      6  C   UNL d   1     -48.066  14.643  22.740  0.00  0.00     0.099 A 
ATOM      7  C   UNL d   1     -45.896  14.965  22.829  0.00  0.00     0.021 C 
ATOM      8  C   UNL d   1     -48.775  15.098  22.711  0.00  0.00     0.022 C 
ENDROOT
BRANCH   5   9
ATOM      9  N   UNL d   1     -48.845  13.430  22.707  0.00  0.00    -0.184 NA
ATOM     10  C   UNL d   1     -49.034  12.960  22.053  0.00  0.00     0.392 C 
ATOM     11  O   UNL d   1     -48.498  12.867  21.423  0.00  0.00    -0.236 OA
BRANCH  10  12
ATOM     12  O   UNL d   1     -49.770  12.571  22.017  0.00  0.00    -0.256 OA
BRANCH  12  13
ATOM     13  C   UNL d   1     -50.245  12.631  21.349  0.00  0.00     0.128 C 
ATOM     14  C   UNL d   1     -51.062  12.635  21.416  0.00  0.00     0.029 C 
ENDBRANCH  12  13
ENDBRANCH  10  12
ENDBRANCH   5   9
BRANCH   1  15
ATOM     15  C   UNL d   1     -45.978  13.317  22.825  0.00  0.00     0.302 C 
ATOM     16  O   UNL d   1     -45.767  12.919  23.516  0.00  0.00    -0.259 OA
BRANCH  15  17
ATOM     17  O   UNL d   1     -45.501  13.271  22.156  0.00  0.00    -0.271 OA
BRANCH  17  18
ATOM     18  C   UNL d   1     -44.919  12.690  22.117  0.00  0.00     0.126 C 
ATOM     19  C   UNL d   1     -44.311  12.767  21.567  0.00  0.00     0.029 C 
ENDBRANCH  17  18
ENDBRANCH  15  17
ENDBRANCH   1  15
TORSDOF 6
ENDMDL
MODEL 7
REMARK VINA RESULT:      -4.6      9.297     10.510
REMARK  6 active torsions:
REMARK  status: ('A' for Active; 'I' for Inactive)
REMARK    1  A    between atoms: C_6  and  C_1 
REMARK    2  A    between atoms: N_8  and  C_5 
REMARK    3  A    between atoms: O_13  and  C_6 
REMARK       I    between atoms: C_7  and  N_8 
REMARK    4  A    between atoms: O_12  and  C_7 
REMARK    5  A    between atoms: C_16  and  O_12 
REMARK    6  A    between atoms: C_17  and  O_13 
ROOT
ATOM      1  C   UNL d   1     -39.578  15.011  19.342  0.00  0.00     0.083 A 
ATOM      2  N   UNL d   1     -40.729  15.541  18.679  0.00  0.00    -0.244 NA
ATOM      3  C   UNL d   1     -40.237  15.486  19.354  0.00  0.00     0.087 A 
ATOM      4  C   UNL d   1     -39.386  14.572  18.655  0.00  0.00     0.028 A 
ATOM      5  C   UNL d   1     -39.866  14.622  17.987  0.00  0.00     0.104 A 
ATOM      6  C   UNL d   1     -40.535  15.104  17.998  0.00  0.00     0.099 A 
ATOM      7  C   UNL d   1     -40.430  15.922  20.034  0.00  0.00     0.021 C 
ATOM      8  C   UNL d   1     -41.029  15.158  17.318  0.00  0.00     0.022 C 
ENDROOT
BRANCH   5   9
ATOM      9  N   UNL d   1     -39.674  14.184  17.300  0.00  0.00    -0.184 NA
ATOM     10  C   UNL d   1     -38.973  14.348  16.893  0.00  0.00     0.392 C 
ATOM     11  O   UNL d   1     -38.454  14.943  17.156  0.00  0.00    -0.236 OA
BRANCH  10  12
ATOM     12  O   UNL d   1     -38.777  13.915  16.209  0.00  0.00    -0.256 OA
BRANCH  12  13
ATOM     13  C   UNL d   1     -38.082  14.070  15.797  0.00  0.00     0.128 C 
ATOM     14  C   UNL d   1     -37.940  13.719  15.070  0.00  0.00     0.029 C 
ENDBRANCH  12  13
ENDBRANCH  10  12
ENDBRANCH   5   9
BRANCH   1  15
ATOM     15  C   UNL d   1     -39.093  14.956  20.005  0.00  0.00     0.302 C 
ATOM     16  O   UNL d   1     -38.639  15.601  20.244  0.00  0.00    -0.259 OA
BRANCH  15  17
ATOM     17  O   UNL d   1     -39.066  14.249  20.426  0.00  0.00    -0.271 OA
BRANCH  17  18
ATOM     18  C   UNL d   1     -38.463  14.129  20.972  0.00  0.00     0.126 C 
ATOM     19  C   UNL d   1     -38.464  13.444  21.429  0.00  0.00     0.029 C 
ENDBRANCH  17  18
ENDBRANCH  15  17
ENDBRANCH   1  15
TORSDOF 6
ENDMDL
MODEL 8
REMARK VINA RESULT:      -4.4      1.418      3.187
REMARK  6 active torsions:
REMARK  status: ('A' for Active; 'I' for Inactive)
REMARK    1  A    between atoms: C_6  and  C_1 
REMARK    2  A    between atoms: N_8  and  C_5 
REMARK    3  A    between atoms: O_13  and  C_6 
REMARK       I    between atoms: C_7  and  N_8 
REMARK    4  A    between atoms: O_12  and  C_7 
REMARK    5  A    between atoms: C_16  and  O_12 
REMARK    6  A    between atoms: C_17  and  O_13 
ROOT
ATOM      1  C   UNL d   1     -46.895  13.667  22.966  0.00  0.00     0.083 A 
ATOM      2  N   UNL d   1     -46.023  12.535  23.038  0.00  0.00    -0.244 NA
ATOM      3  C   UNL d   1     -46.157  13.343  22.865  0.00  0.00     0.087 A 
ATOM      4  C   UNL d   1     -47.528  13.195  23.246  0.00  0.00     0.028 A 
ATOM      5  C   UNL d   1     -47.403  12.398  23.419  0.00  0.00     0.104 A 
ATOM      6  C   UNL d   1     -46.654  12.070  23.315  0.00  0.00     0.099 A 
ATOM      7  C   UNL d   1     -45.527  13.808  22.587  0.00  0.00     0.021 C 
ATOM      8  C   UNL d   1     -46.522  11.256  23.491  0.00  0.00     0.022 C 
ENDROOT
BRANCH   5   9
ATOM      9  N   UNL d   1     -48.036  11.927  23.698  0.00  0.00    -0.184 NA
ATOM     10  C   UNL d   1     -48.728  11.863  23.248  0.00  0.00     0.392 C 
ATOM     11  O   UNL d   1     -48.805  12.261  22.522  0.00  0.00    -0.236 OA
BRANCH  10  12
ATOM     12  O   UNL d   1     -49.360  11.395  23.522  0.00  0.00    -0.256 OA
BRANCH  12  13
ATOM     13  C   UNL d   1     -50.104  11.723  23.644  0.00  0.00     0.128 C 
ATOM     14  C   UNL d   1     -50.783  11.298  23.471  0.00  0.00     0.029 C 
ENDBRANCH  12  13
ENDBRANCH  10  12
ENDBRANCH   5   9
BRANCH   1  15
ATOM     15  C   UNL d   1     -47.028  14.461  22.796  0.00  0.00     0.302 C 
ATOM     16  O   UNL d   1     -46.435  14.918  22.452  0.00  0.00    -0.259 OA
BRANCH  15  17
ATOM     17  O   UNL d   1     -47.760  14.793  22.973  0.00  0.00    -0.271 OA
BRANCH  17  18
ATOM     18  C   UNL d   1     -48.042  15.413  22.512  0.00  0.00     0.126 C 
ATOM     19  C   UNL d   1     -48.832  15.635  22.577  0.00  0.00     0.029 C 
ENDBRANCH  17  18
ENDBRANCH  15  17
ENDBRANCH   1  15
TORSDOF 6
ENDMDL
MODEL 9
REMARK VINA RESULT:      -4.2      8.936     10.566
REMARK  6 active torsions:
REMARK  status: ('A' for Active; 'I' for Inactive)
REMARK    1  A    between atoms: C_6  and  C_1 
REMARK    2  A    between atoms: N_8  and  C_5 
REMARK    3  A    between atoms: O_13  and  C_6 
REMARK       I    between atoms: C_7  and  N_8 
REMARK    4  A    between atoms: O_12  and  C_7 
REMARK    5  A    between atoms: C_16  and  O_12 
REMARK    6  A    between atoms: C_17  and  O_13 
ROOT
ATOM      1  C   UNL d   1     -38.809  14.118  18.825  0.00  0.00     0.083 A 
ATOM      2  N   UNL d   1     -38.287  13.438  17.681  0.00  0.00    -0.244 NA
ATOM      3  C   UNL d   1     -38.355  13.523  18.511  0.00  0.00     0.087 A 
ATOM      4  C   UNL d   1     -39.214  14.651  18.322  0.00  0.00     0.028 A 
ATOM      5  C   UNL d   1     -39.152  14.573  17.504  0.00  0.00     0.104 A 
ATOM      6  C   UNL d   1     -38.690  13.969  17.184  0.00  0.00     0.099 A 
ATOM      7  C   UNL d   1     -37.951  12.993  19.007  0.00  0.00     0.021 C 
ATOM      8  C   UNL d   1     -38.624  13.885  16.349  0.00  0.00     0.022 C 
ENDROOT
BRANCH   5   9
ATOM      9  N   UNL d   1     -39.557  15.106  17.001  0.00  0.00    -0.184 NA
ATOM     10  C   UNL d   1     -40.384  15.139  17.021  0.00  0.00     0.392 C 
ATOM     11  O   UNL d   1     -40.820  14.651  17.534  0.00  0.00    -0.236 OA
BRANCH  10  12
ATOM     12  O   UNL d   1     -40.791  15.668  16.523  0.00  0.00    -0.256 OA
BRANCH  12  13
ATOM     13  C   UNL d   1     -41.570  15.879  16.681  0.00  0.00     0.128 C 
ATOM     14  C   UNL d   1     -42.123  15.922  16.077  0.00  0.00     0.029 C 
ENDBRANCH  12  13
ENDBRANCH  10  12
ENDBRANCH   5   9
BRANCH   1  15
ATOM     15  C   UNL d   1     -38.876  14.203  19.641  0.00  0.00     0.302 C 
ATOM     16  O   UNL d   1     -38.210  14.363  20.100  0.00  0.00    -0.259 OA
BRANCH  15  17
ATOM     17  O   UNL d   1     -39.616  14.126  19.994  0.00  0.00    -0.271 OA
BRANCH  17  18
ATOM     18  C   UNL d   1     -39.711  14.348  20.781  0.00  0.00     0.126 C 
ATOM     19  C   UNL d   1     -40.468  14.494  21.069  0.00  0.00     0.029 C 
ENDBRANCH  17  18
ENDBRANCH  15  17
ENDBRANCH   1  15
TORSDOF 6
ENDMDL
