MODEL 1
REMARK VINA RESULT:      -8.0      0.000      0.000
REMARK  6 active torsions:
REMARK  status: ('A' for Active; 'I' for Inactive)
REMARK    1  A    between atoms: N_13  and  C_4 
REMARK    2  A    between atoms: O_17  and  C_9 
REMARK    3  A    between atoms: O_18  and  C_11 
REMARK    4  A    between atoms: C_19  and  N_13 
REMARK    5  A    between atoms: C_15  and  C_20 
REMARK    6  A    between atoms: C_20  and  C_19 
ROOT
ATOM      1  C   UNL d   1      53.508  31.997  53.711  0.00  0.00     0.101 C 
ENDROOT
BRANCH   1   2
ATOM      2  N   UNL d   1      53.808  31.253  53.805  0.00  0.00    -0.225 NA
BRANCH   2   3
ATOM      3  C   UNL d   1      53.384  30.605  53.571  0.00  0.00     0.169 A 
ATOM      4  C   UNL d   1      53.352  29.983  54.027  0.00  0.00     0.094 A 
ATOM      5  C   UNL d   1      52.941  29.358  53.797  0.00  0.00     0.190 A 
ATOM      6  C   UNL d   1      53.686  29.339  55.167  0.00  0.00     0.128 A 
ATOM      7  N   UNL d   1      52.571  29.360  53.122  0.00  0.00    -0.203 NA
ATOM      8  N   UNL d   1      52.907  28.733  54.252  0.00  0.00    -0.128 NA
ATOM      9  C   UNL d   1      52.602  29.990  52.658  0.00  0.00     0.202 A 
ATOM     10  N   UNL d   1      53.012  30.618  52.884  0.00  0.00    -0.205 NA
ATOM     11  N   UNL d   1      53.275  28.721  54.931  0.00  0.00    -0.145 NA
ENDBRANCH   2   3
ENDBRANCH   1   2
BRANCH   1  12
ATOM     12  C   UNL d   1      53.991  32.660  53.802  0.00  0.00     0.021 C 
BRANCH  12  13
ATOM     13  C   UNL d   1      53.661  33.401  53.927  0.00  0.00     0.004 A 
ATOM     14  C   UNL d   1      53.172  33.724  53.358  0.00  0.00     0.026 A 
ATOM     15  C   UNL d   1      52.835  34.475  53.478  0.00  0.00     0.116 A 
ATOM     16  C   UNL d   1      52.995  34.894  54.170  0.00  0.00     0.116 A 
ATOM     17  C   UNL d   1      53.492  34.564  54.747  0.00  0.00     0.026 A 
ATOM     18  C   UNL d   1      53.826  33.816  54.625  0.00  0.00     0.002 A 
BRANCH  15  19
ATOM     19  O   UNL d   1      52.337  34.803  52.898  0.00  0.00    -0.326 OA
ATOM     20  C   UNL d   1      51.835  34.310  52.451  0.00  0.00     0.181 C 
ENDBRANCH  15  19
BRANCH  16  21
ATOM     21  O   UNL d   1      52.660  35.649  54.297  0.00  0.00    -0.326 OA
ATOM     22  C   UNL d   1      52.946  36.123  54.918  0.00  0.00     0.181 C 
ENDBRANCH  16  21
ENDBRANCH  12  13
ENDBRANCH   1  12
TORSDOF 6
ENDMDL
MODEL 2
REMARK VINA RESULT:      -7.6      3.584      5.282
REMARK  6 active torsions:
REMARK  status: ('A' for Active; 'I' for Inactive)
REMARK    1  A    between atoms: N_13  and  C_4 
REMARK    2  A    between atoms: O_17  and  C_9 
REMARK    3  A    between atoms: O_18  and  C_11 
REMARK    4  A    between atoms: C_19  and  N_13 
REMARK    5  A    between atoms: C_15  and  C_20 
REMARK    6  A    between atoms: C_20  and  C_19 
ROOT
ATOM      1  C   UNL d   1      50.844  34.401  52.719  0.00  0.00     0.101 C 
ENDROOT
BRANCH   1   2
ATOM      2  N   UNL d   1      50.207  34.385  52.225  0.00  0.00    -0.225 NA
BRANCH   2   3
ATOM      3  C   UNL d   1      49.543  34.816  52.393  0.00  0.00     0.169 A 
ATOM      4  C   UNL d   1      48.973  34.858  51.875  0.00  0.00     0.094 A 
ATOM      5  C   UNL d   1      48.332  35.277  52.041  0.00  0.00     0.190 A 
ATOM      6  C   UNL d   1      48.446  34.538  50.672  0.00  0.00     0.128 A 
ATOM      7  N   UNL d   1      48.269  35.644  52.715  0.00  0.00    -0.203 NA
ATOM      8  N   UNL d   1      47.759  35.321  51.524  0.00  0.00    -0.128 NA
ATOM      9  C   UNL d   1      48.847  35.602  53.242  0.00  0.00     0.202 A 
ATOM     10  N   UNL d   1      49.490  35.185  53.079  0.00  0.00    -0.205 NA
ATOM     11  N   UNL d   1      47.812  34.956  50.846  0.00  0.00    -0.145 NA
ENDBRANCH   2   3
ENDBRANCH   1   2
BRANCH   1  12
ATOM     12  C   UNL d   1      51.590  34.168  52.453  0.00  0.00     0.021 C 
BRANCH  12  13
ATOM     13  C   UNL d   1      52.150  33.881  52.981  0.00  0.00     0.004 A 
ATOM     14  C   UNL d   1      52.329  33.084  52.982  0.00  0.00     0.026 A 
ATOM     15  C   UNL d   1      52.896  32.788  53.514  0.00  0.00     0.116 A 
ATOM     16  C   UNL d   1      53.276  33.298  54.039  0.00  0.00     0.116 A 
ATOM     17  C   UNL d   1      53.093  34.107  54.035  0.00  0.00     0.026 A 
ATOM     18  C   UNL d   1      52.529  34.400  53.505  0.00  0.00     0.002 A 
BRANCH  15  19
ATOM     19  O   UNL d   1      53.077  31.976  53.516  0.00  0.00    -0.326 OA
ATOM     20  C   UNL d   1      52.772  31.479  52.921  0.00  0.00     0.181 C 
ENDBRANCH  15  19
BRANCH  16  21
ATOM     21  O   UNL d   1      53.847  33.006  54.576  0.00  0.00    -0.326 OA
ATOM     22  C   UNL d   1      54.199  33.528  55.120  0.00  0.00     0.181 C 
ENDBRANCH  16  21
ENDBRANCH  12  13
ENDBRANCH   1  12
TORSDOF 6
ENDMDL
MODEL 3
REMARK VINA RESULT:      -7.3      2.188      3.413
REMARK  6 active torsions:
REMARK  status: ('A' for Active; 'I' for Inactive)
REMARK    1  A    between atoms: N_13  and  C_4 
REMARK    2  A    between atoms: O_17  and  C_9 
REMARK    3  A    between atoms: O_18  and  C_11 
REMARK    4  A    between atoms: C_19  and  N_13 
REMARK    5  A    between atoms: C_15  and  C_20 
REMARK    6  A    between atoms: C_20  and  C_19 
ROOT
ATOM      1  C   UNL d   1      51.705  33.519  52.709  0.00  0.00     0.101 C 
ENDROOT
BRANCH   1   2
ATOM      2  N   UNL d   1      52.500  33.383  52.726  0.00  0.00    -0.225 NA
BRANCH   2   3
ATOM      3  C   UNL d   1      52.793  32.682  53.004  0.00  0.00     0.169 A 
ATOM      4  C   UNL d   1      53.289  32.682  53.595  0.00  0.00     0.094 A 
ATOM      5  C   UNL d   1      53.570  32.001  53.860  0.00  0.00     0.190 A 
ATOM      6  C   UNL d   1      54.014  33.340  54.526  0.00  0.00     0.128 A 
ATOM      7  N   UNL d   1      53.356  31.336  53.537  0.00  0.00    -0.203 NA
ATOM      8  N   UNL d   1      54.068  31.997  54.452  0.00  0.00    -0.128 NA
ATOM      9  C   UNL d   1      52.852  31.335  52.937  0.00  0.00     0.202 A 
ATOM     10  N   UNL d   1      52.569  32.013  52.668  0.00  0.00    -0.205 NA
ATOM     11  N   UNL d   1      54.290  32.658  54.784  0.00  0.00    -0.145 NA
ENDBRANCH   2   3
ENDBRANCH   1   2
BRANCH   1  12
ATOM     12  C   UNL d   1      51.391  34.124  52.245  0.00  0.00     0.021 C 
BRANCH  12  13
ATOM     13  C   UNL d   1      50.652  34.439  52.414  0.00  0.00     0.004 A 
ATOM     14  C   UNL d   1      50.055  34.382  51.858  0.00  0.00     0.026 A 
ATOM     15  C   UNL d   1      49.304  34.699  52.024  0.00  0.00     0.116 A 
ATOM     16  C   UNL d   1      49.161  35.070  52.746  0.00  0.00     0.116 A 
ATOM     17  C   UNL d   1      49.769  35.126  53.309  0.00  0.00     0.026 A 
ATOM     18  C   UNL d   1      50.516  34.810  53.142  0.00  0.00     0.002 A 
BRANCH  15  19
ATOM     19  O   UNL d   1      48.696  34.641  51.458  0.00  0.00    -0.326 OA
ATOM     20  C   UNL d   1      48.877  34.433  50.672  0.00  0.00     0.181 C 
ENDBRANCH  15  19
BRANCH  16  21
ATOM     21  O   UNL d   1      48.408  35.390  52.919  0.00  0.00    -0.326 OA
ATOM     22  C   UNL d   1      48.317  35.884  53.582  0.00  0.00     0.181 C 
ENDBRANCH  16  21
ENDBRANCH  12  13
ENDBRANCH   1  12
TORSDOF 6
ENDMDL
MODEL 4
REMARK VINA RESULT:      -6.9      2.649      4.253
REMARK  6 active torsions:
REMARK  status: ('A' for Active; 'I' for Inactive)
REMARK    1  A    between atoms: N_13  and  C_4 
REMARK    2  A    between atoms: O_17  and  C_9 
REMARK    3  A    between atoms: O_18  and  C_11 
REMARK    4  A    between atoms: C_19  and  N_13 
REMARK    5  A    between atoms: C_15  and  C_20 
REMARK    6  A    between atoms: C_20  and  C_19 
ROOT
ATOM      1  C   UNL d   1      51.596  34.400  53.181  0.00  0.00     0.101 C 
ENDROOT
BRANCH   1   2
ATOM      2  N   UNL d   1      52.290  33.996  53.265  0.00  0.00    -0.225 NA
BRANCH   2   3
ATOM      3  C   UNL d   1      52.819  34.201  53.842  0.00  0.00     0.169 A 
ATOM      4  C   UNL d   1      53.267  33.659  54.160  0.00  0.00     0.094 A 
ATOM      5  C   UNL d   1      53.778  33.861  54.718  0.00  0.00     0.190 A 
ATOM      6  C   UNL d   1      53.673  32.374  54.260  0.00  0.00     0.128 A 
ATOM      7  N   UNL d   1      53.835  34.593  54.949  0.00  0.00    -0.203 NA
ATOM      8  N   UNL d   1      54.228  33.320  55.039  0.00  0.00    -0.128 NA
ATOM      9  C   UNL d   1      53.381  35.144  54.627  0.00  0.00     0.202 A 
ATOM     10  N   UNL d   1      52.869  34.946  54.069  0.00  0.00    -0.205 NA
ATOM     11  N   UNL d   1      54.178  32.583  54.814  0.00  0.00    -0.145 NA
ENDBRANCH   2   3
ENDBRANCH   1   2
BRANCH   1  12
ATOM     12  C   UNL d   1      50.965  34.069  52.765  0.00  0.00     0.021 C 
BRANCH  12  13
ATOM     13  C   UNL d   1      50.247  34.464  52.714  0.00  0.00     0.004 A 
ATOM     14  C   UNL d   1      49.841  34.468  52.005  0.00  0.00     0.026 A 
ATOM     15  C   UNL d   1      49.113  34.867  51.947  0.00  0.00     0.116 A 
ATOM     16  C   UNL d   1      48.802  35.257  52.604  0.00  0.00     0.116 A 
ATOM     17  C   UNL d   1      49.217  35.252  53.323  0.00  0.00     0.026 A 
ATOM     18  C   UNL d   1      49.941  34.855  53.378  0.00  0.00     0.002 A 
BRANCH  15  19
ATOM     19  O   UNL d   1      48.699  34.870  51.225  0.00  0.00    -0.326 OA
ATOM     20  C   UNL d   1      48.805  34.249  50.680  0.00  0.00     0.181 C 
ENDBRANCH  15  19
BRANCH  16  21
ATOM     21  O   UNL d   1      48.071  35.660  52.552  0.00  0.00    -0.326 OA
ATOM     22  C   UNL d   1      47.830  36.151  53.179  0.00  0.00     0.181 C 
ENDBRANCH  16  21
ENDBRANCH  12  13
ENDBRANCH   1  12
TORSDOF 6
ENDMDL
MODEL 5
REMARK VINA RESULT:      -6.8      2.620      4.823
REMARK  6 active torsions:
REMARK  status: ('A' for Active; 'I' for Inactive)
REMARK    1  A    between atoms: N_13  and  C_4 
REMARK    2  A    between atoms: O_17  and  C_9 
REMARK    3  A    between atoms: O_18  and  C_11 
REMARK    4  A    between atoms: C_19  and  N_13 
REMARK    5  A    between atoms: C_15  and  C_20 
REMARK    6  A    between atoms: C_20  and  C_19 
ROOT
ATOM      1  C   UNL d   1      52.916  32.451  53.183  0.00  0.00     0.101 C 
ENDROOT
BRANCH   1   2
ATOM      2  N   UNL d   1      53.188  33.206  53.097  0.00  0.00    -0.225 NA
BRANCH   2   3
ATOM      3  C   UNL d   1      52.699  33.839  53.220  0.00  0.00     0.169 A 
ATOM      4  C   UNL d   1      52.898  34.384  53.728  0.00  0.00     0.094 A 
ATOM      5  C   UNL d   1      52.422  34.994  53.844  0.00  0.00     0.190 A 
ATOM      6  C   UNL d   1      53.760  34.888  54.638  0.00  0.00     0.128 A 
ATOM      7  N   UNL d   1      51.760  35.053  53.456  0.00  0.00    -0.203 NA
ATOM      8  N   UNL d   1      52.619  35.542  54.353  0.00  0.00    -0.128 NA
ATOM      9  C   UNL d   1      51.556  34.501  52.939  0.00  0.00     0.202 A 
ATOM     10  N   UNL d   1      52.030  33.888  52.820  0.00  0.00    -0.205 NA
ATOM     11  N   UNL d   1      53.281  35.493  54.748  0.00  0.00    -0.145 NA
ENDBRANCH   2   3
ENDBRANCH   1   2
BRANCH   1  12
ATOM     12  C   UNL d   1      53.352  31.811  52.901  0.00  0.00     0.021 C 
BRANCH  12  13
ATOM     13  C   UNL d   1      53.279  31.071  53.248  0.00  0.00     0.004 A 
ATOM     14  C   UNL d   1      52.588  30.647  53.148  0.00  0.00     0.026 A 
ATOM     15  C   UNL d   1      52.508  29.896  53.497  0.00  0.00     0.116 A 
ATOM     16  C   UNL d   1      53.125  29.580  53.945  0.00  0.00     0.116 A 
ATOM     17  C   UNL d   1      53.826  30.013  54.045  0.00  0.00     0.026 A 
ATOM     18  C   UNL d   1      53.903  30.760  53.696  0.00  0.00     0.002 A 
BRANCH  15  19
ATOM     19  O   UNL d   1      51.804  29.464  53.395  0.00  0.00    -0.326 OA
ATOM     20  C   UNL d   1      51.067  29.834  53.512  0.00  0.00     0.181 C 
ENDBRANCH  15  19
BRANCH  16  21
ATOM     21  O   UNL d   1      53.051  28.826  54.299  0.00  0.00    -0.326 OA
ATOM     22  C   UNL d   1      53.624  28.574  54.846  0.00  0.00     0.181 C 
ENDBRANCH  16  21
ENDBRANCH  12  13
ENDBRANCH   1  12
TORSDOF 6
ENDMDL
MODEL 6
REMARK VINA RESULT:      -5.8      9.936     11.275
REMARK  6 active torsions:
REMARK  status: ('A' for Active; 'I' for Inactive)
REMARK    1  A    between atoms: N_13  and  C_4 
REMARK    2  A    between atoms: O_17  and  C_9 
REMARK    3  A    between atoms: O_18  and  C_11 
REMARK    4  A    between atoms: C_19  and  N_13 
REMARK    5  A    between atoms: C_15  and  C_20 
REMARK    6  A    between atoms: C_20  and  C_19 
ROOT
ATOM      1  C   UNL d   1      45.205  28.455  58.063  0.00  0.00     0.101 C 
ENDROOT
BRANCH   1   2
ATOM      2  N   UNL d   1      45.430  29.052  58.557  0.00  0.00    -0.225 NA
BRANCH   2   3
ATOM      3  C   UNL d   1      45.112  29.792  58.481  0.00  0.00     0.169 A 
ATOM      4  C   UNL d   1      44.957  30.209  59.112  0.00  0.00     0.094 A 
ATOM      5  C   UNL d   1      44.649  30.924  59.035  0.00  0.00     0.190 A 
ATOM      6  C   UNL d   1      44.943  30.353  60.456  0.00  0.00     0.128 A 
ATOM      7  N   UNL d   1      44.501  31.213  58.337  0.00  0.00    -0.203 NA
ATOM      8  N   UNL d   1      44.492  31.344  59.665  0.00  0.00    -0.128 NA
ATOM      9  C   UNL d   1      44.657  30.792  57.695  0.00  0.00     0.202 A 
ATOM     10  N   UNL d   1      44.965  30.076  57.768  0.00  0.00    -0.205 NA
ATOM     11  N   UNL d   1      44.637  31.064  60.370  0.00  0.00    -0.145 NA
ENDBRANCH   2   3
ENDBRANCH   1   2
BRANCH   1  12
ATOM     12  C   UNL d   1      45.510  27.694  58.156  0.00  0.00     0.021 C 
BRANCH  12  13
ATOM     13  C   UNL d   1      45.217  27.070  57.711  0.00  0.00     0.004 A 
ATOM     14  C   UNL d   1      44.929  26.407  58.091  0.00  0.00     0.026 A 
ATOM     15  C   UNL d   1      44.631  25.771  57.646  0.00  0.00     0.116 A 
ATOM     16  C   UNL d   1      44.625  25.809  56.822  0.00  0.00     0.116 A 
ATOM     17  C   UNL d   1      44.919  26.485  56.438  0.00  0.00     0.026 A 
ATOM     18  C   UNL d   1      45.215  27.116  56.884  0.00  0.00     0.002 A 
BRANCH  15  19
ATOM     19  O   UNL d   1      44.338  25.095  58.033  0.00  0.00    -0.326 OA
ATOM     20  C   UNL d   1      44.315  25.068  58.865  0.00  0.00     0.181 C 
ENDBRANCH  15  19
BRANCH  16  21
ATOM     21  O   UNL d   1      44.327  25.174  56.368  0.00  0.00    -0.326 OA
ATOM     22  C   UNL d   1      44.480  25.148  55.551  0.00  0.00     0.181 C 
ENDBRANCH  16  21
ENDBRANCH  12  13
ENDBRANCH   1  12
TORSDOF 6
ENDMDL
MODEL 7
REMARK VINA RESULT:      -5.4      9.495     10.483
REMARK  6 active torsions:
REMARK  status: ('A' for Active; 'I' for Inactive)
REMARK    1  A    between atoms: N_13  and  C_4 
REMARK    2  A    between atoms: O_17  and  C_9 
REMARK    3  A    between atoms: O_18  and  C_11 
REMARK    4  A    between atoms: C_19  and  N_13 
REMARK    5  A    between atoms: C_15  and  C_20 
REMARK    6  A    between atoms: C_20  and  C_19 
ROOT
ATOM      1  C   UNL d   1      44.977  26.472  56.773  0.00  0.00     0.101 C 
ENDROOT
BRANCH   1   2
ATOM      2  N   UNL d   1      44.956  25.862  56.245  0.00  0.00    -0.225 NA
BRANCH   2   3
ATOM      3  C   UNL d   1      44.738  25.119  56.480  0.00  0.00     0.169 A 
ATOM      4  C   UNL d   1      44.740  24.540  55.971  0.00  0.00     0.094 A 
ATOM      5  C   UNL d   1      44.528  23.823  56.203  0.00  0.00     0.190 A 
ATOM      6  C   UNL d   1      44.952  24.069  54.722  0.00  0.00     0.128 A 
ATOM      7  N   UNL d   1      44.318  23.694  56.932  0.00  0.00    -0.203 NA
ATOM      8  N   UNL d   1      44.530  23.240  55.694  0.00  0.00    -0.128 NA
ATOM      9  C   UNL d   1      44.314  24.281  57.450  0.00  0.00     0.202 A 
ATOM     10  N   UNL d   1      44.526  24.999  57.223  0.00  0.00    -0.205 NA
ATOM     11  N   UNL d   1      44.739  23.358  54.961  0.00  0.00    -0.145 NA
ENDBRANCH   2   3
ENDBRANCH   1   2
BRANCH   1  12
ATOM     12  C   UNL d   1      45.323  27.193  56.570  0.00  0.00     0.021 C 
BRANCH  12  13
ATOM     13  C   UNL d   1      45.224  27.852  57.049  0.00  0.00     0.004 A 
ATOM     14  C   UNL d   1      44.986  28.559  56.714  0.00  0.00     0.026 A 
ATOM     15  C   UNL d   1      44.884  29.231  57.194  0.00  0.00     0.116 A 
ATOM     16  C   UNL d   1      45.022  29.184  58.006  0.00  0.00     0.116 A 
ATOM     17  C   UNL d   1      45.262  28.465  58.343  0.00  0.00     0.026 A 
ATOM     18  C   UNL d   1      45.364  27.797  57.864  0.00  0.00     0.002 A 
BRANCH  15  19
ATOM     19  O   UNL d   1      44.643  29.950  56.853  0.00  0.00    -0.326 OA
ATOM     20  C   UNL d   1      44.670  30.050  56.026  0.00  0.00     0.181 C 
ENDBRANCH  15  19
BRANCH  16  21
ATOM     21  O   UNL d   1      44.920  29.855  58.494  0.00  0.00    -0.326 OA
ATOM     22  C   UNL d   1      45.074  29.794  59.309  0.00  0.00     0.181 C 
ENDBRANCH  16  21
ENDBRANCH  12  13
ENDBRANCH   1  12
TORSDOF 6
ENDMDL
MODEL 8
REMARK VINA RESULT:      -5.2     10.498     11.267
REMARK  6 active torsions:
REMARK  status: ('A' for Active; 'I' for Inactive)
REMARK    1  A    between atoms: N_13  and  C_4 
REMARK    2  A    between atoms: O_17  and  C_9 
REMARK    3  A    between atoms: O_18  and  C_11 
REMARK    4  A    between atoms: C_19  and  N_13 
REMARK    5  A    between atoms: C_15  and  C_20 
REMARK    6  A    between atoms: C_20  and  C_19 
ROOT
ATOM      1  C   UNL d   1      44.779  30.138  60.154  0.00  0.00     0.101 C 
ENDROOT
BRANCH   1   2
ATOM      2  N   UNL d   1      44.818  30.598  60.816  0.00  0.00    -0.225 NA
BRANCH   2   3
ATOM      3  C   UNL d   1      44.679  30.281  61.548  0.00  0.00     0.169 A 
ATOM      4  C   UNL d   1      44.564  30.748  62.152  0.00  0.00     0.094 A 
ATOM      5  C   UNL d   1      44.430  30.437  62.857  0.00  0.00     0.190 A 
ATOM      6  C   UNL d   1      44.462  31.986  62.682  0.00  0.00     0.128 A 
ATOM      7  N   UNL d   1      44.413  29.673  62.952  0.00  0.00    -0.203 NA
ATOM      8  N   UNL d   1      44.314  30.902  63.465  0.00  0.00    -0.128 NA
ATOM      9  C   UNL d   1      44.530  29.198  62.340  0.00  0.00     0.202 A 
ATOM     10  N   UNL d   1      44.664  29.505  61.632  0.00  0.00    -0.205 NA
ATOM     11  N   UNL d   1      44.329  31.669  63.381  0.00  0.00    -0.145 NA
ENDBRANCH   2   3
ENDBRANCH   1   2
BRANCH   1  12
ATOM     12  C   UNL d   1      45.313  30.247  59.535  0.00  0.00     0.021 C 
BRANCH  12  13
ATOM     13  C   UNL d   1      45.097  30.071  58.762  0.00  0.00     0.004 A 
ATOM     14  C   UNL d   1      44.898  30.679  58.254  0.00  0.00     0.026 A 
ATOM     15  C   UNL d   1      44.678  30.507  57.470  0.00  0.00     0.116 A 
ATOM     16  C   UNL d   1      44.661  29.726  57.207  0.00  0.00     0.116 A 
ATOM     17  C   UNL d   1      44.864  29.110  57.726  0.00  0.00     0.026 A 
ATOM     18  C   UNL d   1      45.082  29.283  58.505  0.00  0.00     0.002 A 
BRANCH  15  19
ATOM     19  O   UNL d   1      44.475  31.126  56.952  0.00  0.00    -0.326 OA
ATOM     20  C   UNL d   1      44.584  31.918  57.185  0.00  0.00     0.181 C 
ENDBRANCH  15  19
BRANCH  16  21
ATOM     21  O   UNL d   1      44.441  29.547  56.420  0.00  0.00    -0.326 OA
ATOM     22  C   UNL d   1      44.564  28.778  56.127  0.00  0.00     0.181 C 
ENDBRANCH  16  21
ENDBRANCH  12  13
ENDBRANCH   1  12
TORSDOF 6
ENDMDL
MODEL 9
REMARK VINA RESULT:      -5.2     10.155     11.738
REMARK  6 active torsions:
REMARK  status: ('A' for Active; 'I' for Inactive)
REMARK    1  A    between atoms: N_13  and  C_4 
REMARK    2  A    between atoms: O_17  and  C_9 
REMARK    3  A    between atoms: O_18  and  C_11 
REMARK    4  A    between atoms: C_19  and  N_13 
REMARK    5  A    between atoms: C_15  and  C_20 
REMARK    6  A    between atoms: C_20  and  C_19 
ROOT
ATOM      1  C   UNL d   1      44.805  25.970  56.353  0.00  0.00     0.101 C 
ENDROOT
BRANCH   1   2
ATOM      2  N   UNL d   1      44.751  26.774  56.318  0.00  0.00    -0.225 NA
BRANCH   2   3
ATOM      3  C   UNL d   1      44.997  27.232  56.937  0.00  0.00     0.169 A 
ATOM      4  C   UNL d   1      44.907  27.998  56.907  0.00  0.00     0.094 A 
ATOM      5  C   UNL d   1      45.147  28.438  57.509  0.00  0.00     0.190 A 
ATOM      6  C   UNL d   1      44.492  29.112  56.264  0.00  0.00     0.128 A 
ATOM      7  N   UNL d   1      45.471  28.112  58.126  0.00  0.00    -0.203 NA
ATOM      8  N   UNL d   1      45.057  29.206  57.481  0.00  0.00    -0.128 NA
ATOM      9  C   UNL d   1      45.564  27.335  58.158  0.00  0.00     0.202 A 
ATOM     10  N   UNL d   1      45.325  26.892  57.559  0.00  0.00    -0.205 NA
ATOM     11  N   UNL d   1      44.733  29.542  56.866  0.00  0.00    -0.145 NA
ENDBRANCH   2   3
ENDBRANCH   1   2
BRANCH   1  12
ATOM     12  C   UNL d   1      44.386  25.495  55.824  0.00  0.00     0.021 C 
BRANCH  12  13
ATOM     13  C   UNL d   1      44.621  24.721  55.682  0.00  0.00     0.004 A 
ATOM     14  C   UNL d   1      44.726  24.469  54.912  0.00  0.00     0.026 A 
ATOM     15  C   UNL d   1      44.963  23.686  54.762  0.00  0.00     0.116 A 
ATOM     16  C   UNL d   1      45.092  23.165  55.389  0.00  0.00     0.116 A 
ATOM     17  C   UNL d   1      44.984  23.425  56.170  0.00  0.00     0.026 A 
ATOM     18  C   UNL d   1      44.748  24.204  56.317  0.00  0.00     0.002 A 
BRANCH  15  19
ATOM     19  O   UNL d   1      45.070  23.429  53.978  0.00  0.00    -0.326 OA
ATOM     20  C   UNL d   1      44.688  23.825  53.353  0.00  0.00     0.181 C 
ENDBRANCH  15  19
BRANCH  16  21
ATOM     21  O   UNL d   1      45.330  22.377  55.245  0.00  0.00    -0.326 OA
ATOM     22  C   UNL d   1      45.604  21.911  55.877  0.00  0.00     0.181 C 
ENDBRANCH  16  21
ENDBRANCH  12  13
ENDBRANCH   1  12
TORSDOF 6
ENDMDL
