MODEL 1
REMARK VINA RESULT:      -1.1      0.000      0.000
REMARK  10 active torsions:
REMARK  status: ('A' for Active; 'I' for Inactive)
REMARK    1  A    between atoms: N_11  and  C_1 
REMARK    2  A    between atoms: C_12  and  C_2 
REMARK    3  A    between atoms: C_4  and  S_15 
REMARK    4  A    between atoms: C_18  and  C_6 
REMARK       I    between atoms: C_16  and  N_11 
REMARK    5  A    between atoms: O_28  and  C_12 
REMARK       I    between atoms: C_13  and  N_17 
REMARK    6  A    between atoms: C_14  and  C_13 
REMARK    7  A    between atoms: S_15  and  C_26 
REMARK    8  A    between atoms: C_26  and  C_16 
REMARK    9  A    between atoms: N_17  and  C_18 
REMARK   10  A    between atoms: C_32  and  O_28 
ROOT
ATOM      1  C   UNL d   1      33.025  19.964 -22.405  0.00  0.00     0.101 C 
ENDROOT
BRANCH   1   2
ATOM      2  S   UNL d   1      33.240  19.304 -22.752  0.00  0.00    -0.043 SA
BRANCH   2   3
ATOM      3  C   UNL d   1      32.651  18.913 -23.199  0.00  0.00     0.202 A 
ATOM      4  N   UNL d   1      32.573  18.089 -23.155  0.00  0.00    -0.265 N 
ATOM      5  C   UNL d   1      31.952  17.868 -23.652  0.00  0.00     0.190 A 
ATOM      6  C   UNL d   1      33.045  17.564 -22.684  0.00  0.00     0.103 C 
ATOM      7  N   UNL d   1      31.642  18.555 -24.008  0.00  0.00    -0.126 NA
ATOM      8  N   UNL d   1      32.073  19.199 -23.729  0.00  0.00    -0.121 NA
BRANCH   5   9
ATOM      9  C   UNL d   1      31.681  17.100 -23.780  0.00  0.00     0.141 C 
BRANCH   9  10
ATOM     10  N   UNL d   1      30.875  16.933 -23.751  0.00  0.00    -0.202 NA
ATOM     11  C   UNL d   1      30.598  16.180 -23.944  0.00  0.00     0.302 C 
ATOM     12  O   UNL d   1      31.137  15.592 -24.168  0.00  0.00    -0.263 OA
BRANCH  11  13
ATOM     13  C   UNL d   1      29.777  16.010 -23.915  0.00  0.00     0.158 A 
ATOM     14  O   UNL d   1      29.279  15.809 -24.579  0.00  0.00    -0.300 OA
ATOM     15  C   UNL d   1      28.493  15.684 -24.287  0.00  0.00     0.123 A 
ATOM     16  C   UNL d   1      28.498  15.806 -23.444  0.00  0.00     0.029 A 
ATOM     17  C   UNL d   1      29.289  16.007 -23.215  0.00  0.00     0.032 A 
ENDBRANCH  11  13
ENDBRANCH   9  10
ENDBRANCH   5   9
ENDBRANCH   2   3
ENDBRANCH   1   2
BRANCH   1  18
ATOM     18  C   UNL d   1      33.063  20.193 -21.562  0.00  0.00     0.286 C 
ATOM     19  N   UNL d   1      33.075  21.168 -21.310  0.00  0.00    -0.201 NA
ATOM     20  O   UNL d   1      33.089  19.636 -20.998  0.00  0.00    -0.265 OA
BRANCH  19  21
ATOM     21  C   UNL d   1      33.047  21.759 -21.910  0.00  0.00     0.119 A 
ATOM     22  C   UNL d   1      32.919  22.474 -21.728  0.00  0.00     0.088 A 
ATOM     23  C   UNL d   1      32.996  22.821 -22.972  0.00  0.00     0.013 A 
ATOM     24  C   UNL d   1      32.969  23.353 -23.488  0.00  0.00     0.001 A 
ATOM     25  C   UNL d   1      33.125  22.102 -23.155  0.00  0.00     0.031 A 
ATOM     26  C   UNL d   1      33.073  23.173 -24.216  0.00  0.00     0.001 A 
ATOM     27  C   UNL d   1      33.203  22.449 -24.399  0.00  0.00     0.006 A 
ATOM     28  S   UNL d   1      33.151  21.574 -22.633  0.00  0.00    -0.068 SA
BRANCH  22  29
ATOM     29  C   UNL d   1      32.789  22.855 -21.041  0.00  0.00     0.302 C 
ATOM     30  O   UNL d   1      33.240  22.744 -20.487  0.00  0.00    -0.259 OA
BRANCH  29  31
ATOM     31  O   UNL d   1      32.132  23.372 -20.985  0.00  0.00    -0.271 OA
BRANCH  31  32
ATOM     32  C   UNL d   1      31.657  23.688 -20.375  0.00  0.00     0.126 C 
ATOM     33  C   UNL d   1      30.856  23.695 -20.201  0.00  0.00     0.029 C 
ENDBRANCH  31  32
ENDBRANCH  29  31
ENDBRANCH  22  29
ENDBRANCH  19  21
ENDBRANCH   1  18
TORSDOF 10
ENDMDL
MODEL 2
REMARK VINA RESULT:       0.5      1.428      6.352
REMARK  10 active torsions:
REMARK  status: ('A' for Active; 'I' for Inactive)
REMARK    1  A    between atoms: N_11  and  C_1 
REMARK    2  A    between atoms: C_12  and  C_2 
REMARK    3  A    between atoms: C_4  and  S_15 
REMARK    4  A    between atoms: C_18  and  C_6 
REMARK       I    between atoms: C_16  and  N_11 
REMARK    5  A    between atoms: O_28  and  C_12 
REMARK       I    between atoms: C_13  and  N_17 
REMARK    6  A    between atoms: C_14  and  C_13 
REMARK    7  A    between atoms: S_15  and  C_26 
REMARK    8  A    between atoms: C_26  and  C_16 
REMARK    9  A    between atoms: N_17  and  C_18 
REMARK   10  A    between atoms: C_32  and  O_28 
ROOT
ATOM      1  C   UNL d   1      32.632  19.004 -23.863  0.00  0.00     0.101 C 
ENDROOT
BRANCH   1   2
ATOM      2  S   UNL d   1      33.214  19.502 -23.733  0.00  0.00    -0.043 SA
BRANCH   2   3
ATOM      3  C   UNL d   1      33.168  19.948 -23.027  0.00  0.00     0.202 A 
ATOM      4  N   UNL d   1      33.182  20.775 -23.055  0.00  0.00    -0.265 N 
ATOM      5  C   UNL d   1      33.129  21.055 -22.281  0.00  0.00     0.190 A 
ATOM      6  C   UNL d   1      33.241  21.253 -23.755  0.00  0.00     0.103 C 
ATOM      7  N   UNL d   1      33.082  20.401 -21.767  0.00  0.00    -0.126 NA
ATOM      8  N   UNL d   1      33.106  19.717 -22.227  0.00  0.00    -0.121 NA
BRANCH   5   9
ATOM      9  C   UNL d   1      33.124  21.846 -22.049  0.00  0.00     0.141 C 
BRANCH   9  10
ATOM     10  N   UNL d   1      33.163  22.047 -21.252  0.00  0.00    -0.202 NA
ATOM     11  C   UNL d   1      32.590  22.533 -20.914  0.00  0.00     0.302 C 
ATOM     12  O   UNL d   1      31.971  22.821 -21.384  0.00  0.00    -0.263 OA
BRANCH  11  13
ATOM     13  C   UNL d   1      32.630  22.738 -20.101  0.00  0.00     0.158 A 
ATOM     14  O   UNL d   1      33.155  22.396 -19.520  0.00  0.00    -0.300 OA
ATOM     15  C   UNL d   1      33.000  22.772 -18.776  0.00  0.00     0.123 A 
ATOM     16  C   UNL d   1      32.382  23.346 -18.890  0.00  0.00     0.029 A 
ATOM     17  C   UNL d   1      32.154  23.325 -19.706  0.00  0.00     0.032 A 
ENDBRANCH  11  13
ENDBRANCH   9  10
ENDBRANCH   5   9
ENDBRANCH   2   3
ENDBRANCH   1   2
BRANCH   1  18
ATOM     18  C   UNL d   1      31.993  19.031 -24.459  0.00  0.00     0.286 C 
ATOM     19  N   UNL d   1      31.453  18.204 -24.649  0.00  0.00    -0.201 NA
ATOM     20  O   UNL d   1      31.838  19.705 -24.848  0.00  0.00    -0.265 OA
BRANCH  19  21
ATOM     21  C   UNL d   1      31.617  17.488 -24.235  0.00  0.00     0.119 A 
ATOM     22  C   UNL d   1      31.091  16.959 -24.174  0.00  0.00     0.088 A 
ATOM     23  C   UNL d   1      31.901  16.208 -23.499  0.00  0.00     0.013 A 
ATOM     24  C   UNL d   1      32.030  15.574 -23.139  0.00  0.00     0.001 A 
ATOM     25  C   UNL d   1      32.430  16.740 -23.561  0.00  0.00     0.031 A 
ATOM     26  C   UNL d   1      32.708  15.454 -22.824  0.00  0.00     0.001 A 
ATOM     27  C   UNL d   1      33.240  15.990 -22.887  0.00  0.00     0.006 A 
ATOM     28  S   UNL d   1      32.294  17.374 -23.924  0.00  0.00    -0.068 SA
BRANCH  22  29
ATOM     29  C   UNL d   1      30.337  16.896 -24.427  0.00  0.00     0.302 C 
ATOM     30  O   UNL d   1      30.211  16.649 -25.094  0.00  0.00    -0.259 OA
BRANCH  29  31
ATOM     31  O   UNL d   1      29.719  17.120 -23.908  0.00  0.00    -0.271 OA
BRANCH  31  32
ATOM     32  C   UNL d   1      29.130  16.731 -23.461  0.00  0.00     0.126 C 
ATOM     33  C   UNL d   1      28.365  16.905 -23.225  0.00  0.00     0.029 C 
ENDBRANCH  31  32
ENDBRANCH  29  31
ENDBRANCH  22  29
ENDBRANCH  19  21
ENDBRANCH   1  18
TORSDOF 10
ENDMDL
