MODEL 1
REMARK VINA RESULT:      26.7      0.000      0.000
REMARK  10 active torsions:
REMARK  status: ('A' for Active; 'I' for Inactive)
REMARK    1  A    between atoms: N_2  and  S_1 
REMARK    2  A    between atoms: C_12  and  S_1 
REMARK    3  A    between atoms: C_4  and  N_2 
REMARK    4  A    between atoms: O_22  and  C_6 
REMARK    5  A    between atoms: C_7  and  N_15 
REMARK    6  A    between atoms: N_8  and  C_7 
REMARK       I    between atoms: C_10  and  N_8 
REMARK    7  A    between atoms: O_23  and  C_9 
REMARK    8  A    between atoms: C_20  and  C_10 
REMARK    9  A    between atoms: N_15  and  C_21 
REMARK   10  A    between atoms: C_26  and  C_20 
ROOT
ATOM      1  C   UNL d   1      45.729 -16.488  44.000  0.00  0.00     0.105 A 
ATOM      2  C   UNL d   1      45.503 -15.965  43.424  0.00  0.00     0.015 A 
ATOM      3  C   UNL d   1      45.822 -16.233  44.768  0.00  0.00     0.015 A 
ATOM      4  C   UNL d   1      45.463 -14.919  44.385  0.00  0.00     0.084 A 
ATOM      5  C   UNL d   1      45.364 -15.178  43.589  0.00  0.00     0.020 A 
ATOM      6  C   UNL d   1      45.689 -15.452  44.953  0.00  0.00     0.020 A 
ENDROOT
BRANCH   1   7
ATOM      7  S   UNL d   1      45.870 -17.304  43.819  0.00  0.00     0.287 S 
ATOM      8  O   UNL d   1      46.598 -17.087  43.466  0.00  0.00    -0.198 OA
ATOM      9  O   UNL d   1      45.149 -17.511  44.169  0.00  0.00    -0.198 OA
BRANCH   7  10
ATOM     10  N   UNL d   1      46.025 -18.105  43.633  0.00  0.00    -0.139 NA
BRANCH  10  11
ATOM     11  C   UNL d   1      46.218 -18.335  42.850  0.00  0.00     0.182 A 
ATOM     12  N   UNL d   1      46.318 -17.782  42.290  0.00  0.00    -0.185 NA
ATOM     13  C   UNL d   1      46.510 -17.981  41.506  0.00  0.00     0.274 A 
ATOM     14  N   UNL d   1      46.596 -18.767  41.312  0.00  0.00    -0.181 NA
ATOM     15  C   UNL d   1      46.500 -19.351  41.859  0.00  0.00     0.185 A 
ATOM     16  C   UNL d   1      46.299 -19.124  42.680  0.00  0.00     0.084 A 
BRANCH  13  17
ATOM     17  O   UNL d   1      46.616 -17.402  40.916  0.00  0.00    -0.297 OA
ATOM     18  C   UNL d   1      46.625 -17.604  40.112  0.00  0.00     0.185 C 
ENDBRANCH  13  17
BRANCH  15  19
ATOM     19  O   UNL d   1      46.595 -20.144  41.631  0.00  0.00    -0.312 OA
ATOM     20  C   UNL d   1      46.646 -20.327  40.826  0.00  0.00     0.183 C 
ENDBRANCH  15  19
ENDBRANCH  10  11
ENDBRANCH   7  10
ENDBRANCH   1   7
BRANCH   4  21
ATOM     21  N   UNL d   1      45.331 -14.120  44.596  0.00  0.00    -0.217 NA
BRANCH  21  22
ATOM     22  C   UNL d   1      45.947 -13.582  44.494  0.00  0.00     0.223 C 
ATOM     23  S   UNL d   1      46.646 -13.640  44.935  0.00  0.00    -0.037 SA
BRANCH  22  24
ATOM     24  N   UNL d   1      45.863 -12.975  43.942  0.00  0.00    -0.179 NA
ATOM     25  C   UNL d   1      45.110 -12.688  43.738  0.00  0.00     0.281 C 
ATOM     26  O   UNL d   1      44.438 -13.016  44.094  0.00  0.00    -0.265 OA
BRANCH  25  27
ATOM     27  C   UNL d   1      45.030 -12.081  43.185  0.00  0.00     0.063 C 
BRANCH  27  28
ATOM     28  C   UNL d   1      44.689 -12.221  42.446  0.00  0.00     0.005 C 
ATOM     29  C   UNL d   1      43.855 -12.336  42.356  0.00  0.00     0.000 C 
ATOM     30  C   UNL d   1      45.173 -12.248  41.782  0.00  0.00     0.000 C 
ENDBRANCH  27  28
ENDBRANCH  25  27
ENDBRANCH  22  24
ENDBRANCH  21  22
ENDBRANCH   4  21
TORSDOF 10
ENDMDL
