MODEL 1
REMARK VINA RESULT:      22.3      0.000      0.000
REMARK  3 active torsions:
REMARK  status: ('A' for Active; 'I' for Inactive)
REMARK    1  A    between atoms: O_9  and  C_1 
REMARK    2  A    between atoms: C_13  and  O_9 
REMARK    3  A    between atoms: C_16  and  C_11 
ROOT
ATOM      1  C   UNL d   1      46.051 -16.609  44.222  0.00  0.00     0.161 A 
ATOM      2  C   UNL d   1      46.191 -17.858  43.542  0.00  0.00     0.064 A 
ATOM      3  C   UNL d   1      46.076 -17.445  44.236  0.00  0.00     0.222 A 
ATOM      4  C   UNL d   1      46.282 -17.467  42.825  0.00  0.00     0.106 A 
ATOM      5  C   UNL d   1      46.145 -16.211  43.490  0.00  0.00     0.126 A 
ATOM      6  O   UNL d   1      46.260 -16.665  42.800  0.00  0.00    -0.305 OA
ATOM      7  C   UNL d   1      46.212 -18.682  43.581  0.00  0.00     0.008 A 
ATOM      8  C   UNL d   1      46.396 -17.901  42.145  0.00  0.00     0.067 A 
ATOM      9  C   UNL d   1      46.420 -18.717  42.163  0.00  0.00     0.198 A 
ATOM     10  C   UNL d   1      46.326 -19.115  42.894  0.00  0.00     0.039 A 
ATOM     11  O   UNL d   1      45.984 -17.836  44.955  0.00  0.00    -0.284 OA
ATOM     12  O   UNL d   1      46.538 -19.137  41.443  0.00  0.00    -0.286 OA
ATOM     13  C   UNL d   1      46.125 -15.372  43.438  0.00  0.00     0.029 C 
ENDROOT
BRANCH   1  14
ATOM     14  O   UNL d   1      45.932 -16.189  44.941  0.00  0.00    -0.302 OA
BRANCH  14  15
ATOM     15  C   UNL d   1      45.527 -15.461  44.931  0.00  0.00     0.100 A 
ATOM     16  C   UNL d   1      45.952 -14.756  44.949  0.00  0.00     0.025 A 
ATOM     17  C   UNL d   1      45.551 -14.049  44.939  0.00  0.00     0.002 A 
ATOM     18  C   UNL d   1      44.708 -14.031  44.911  0.00  0.00     0.000 A 
ATOM     19  C   UNL d   1      44.299 -14.746  44.894  0.00  0.00     0.002 A 
ATOM     20  C   UNL d   1      44.710 -15.464  44.904  0.00  0.00     0.025 A 
ENDBRANCH  14  15
ENDBRANCH   1  14
BRANCH  10  21
ATOM     21  C   UNL d   1      46.346 -19.955  42.947  0.00  0.00     0.003 C 
ATOM     22  C   UNL d   1      46.630 -20.330  43.640  0.00  0.00     0.000 C 
ENDBRANCH  10  21
TORSDOF 3
ENDMDL
MODEL 2
REMARK VINA RESULT:      24.8      1.435      4.537
REMARK  3 active torsions:
REMARK  status: ('A' for Active; 'I' for Inactive)
REMARK    1  A    between atoms: O_9  and  C_1 
REMARK    2  A    between atoms: C_13  and  O_9 
REMARK    3  A    between atoms: C_16  and  C_11 
ROOT
ATOM      1  C   UNL d   1      45.347 -15.902  44.506  0.00  0.00     0.161 A 
ATOM      2  C   UNL d   1      45.204 -14.495  44.307  0.00  0.00     0.064 A 
ATOM      3  C   UNL d   1      44.878 -15.242  44.294  0.00  0.00     0.222 A 
ATOM      4  C   UNL d   1      45.988 -14.375  44.525  0.00  0.00     0.106 A 
ATOM      5  C   UNL d   1      46.146 -15.780  44.729  0.00  0.00     0.126 A 
ATOM      6  O   UNL d   1      46.446 -15.002  44.731  0.00  0.00    -0.305 OA
ATOM      7  C   UNL d   1      44.722 -13.859  44.094  0.00  0.00     0.008 A 
ATOM      8  C   UNL d   1      46.290 -13.619  44.530  0.00  0.00     0.067 A 
ATOM      9  C   UNL d   1      45.830 -12.977  44.323  0.00  0.00     0.198 A 
ATOM     10  C   UNL d   1      45.032 -13.099  44.100  0.00  0.00     0.039 A 
ATOM     11  O   UNL d   1      44.094 -15.362  44.076  0.00  0.00    -0.284 OA
ATOM     12  O   UNL d   1      46.172 -12.209  44.338  0.00  0.00    -0.286 OA
ATOM     13  C   UNL d   1      46.646 -16.419  44.948  0.00  0.00     0.029 C 
ENDROOT
BRANCH   1  14
ATOM     14  O   UNL d   1      45.005 -16.670  44.491  0.00  0.00    -0.302 OA
BRANCH  14  15
ATOM     15  C   UNL d   1      45.464 -17.320  44.243  0.00  0.00     0.100 A 
ATOM     16  C   UNL d   1      45.767 -17.340  43.478  0.00  0.00     0.025 A 
ATOM     17  C   UNL d   1      46.214 -17.976  43.242  0.00  0.00     0.002 A 
ATOM     18  C   UNL d   1      46.369 -18.614  43.771  0.00  0.00     0.000 A 
ATOM     19  C   UNL d   1      46.058 -18.579  44.533  0.00  0.00     0.002 A 
ATOM     20  C   UNL d   1      45.603 -17.929  44.771  0.00  0.00     0.025 A 
ENDBRANCH  14  15
ENDBRANCH   1  14
BRANCH  10  21
ATOM     21  C   UNL d   1      44.531 -12.460  43.881  0.00  0.00     0.003 C 
ATOM     22  C   UNL d   1      44.516 -12.185  43.089  0.00  0.00     0.000 C 
ENDBRANCH  10  21
TORSDOF 3
ENDMDL
