MODEL 1
REMARK VINA RESULT:      -2.2      0.000      0.000
REMARK  1 active torsions:
REMARK  status: ('A' for Active; 'I' for Inactive)
REMARK    1  A    between atoms: C_2  and  C_1 
ROOT
ATOM      1  C   UNL d   1      45.164 -13.092  43.771  0.00  0.00     0.104 A 
ATOM      2  C   UNL d   1      45.778 -12.853  44.290  0.00  0.00     0.202 A 
ATOM      3  C   UNL d   1      44.836 -13.873  43.858  0.00  0.00     0.021 A 
ATOM      4  C   UNL d   1      46.047 -13.376  44.868  0.00  0.00     0.043 A 
ATOM      5  C   UNL d   1      45.134 -14.366  44.448  0.00  0.00     0.058 A 
ATOM      6  C   UNL d   1      45.737 -14.125  44.955  0.00  0.00     0.015 A 
ATOM      7  O   UNL d   1      46.109 -12.080  44.212  0.00  0.00    -0.286 OA
ATOM      8 CL   UNL d   1      44.803 -15.138  44.527  0.00  0.00    -0.082 Cl
ENDROOT
BRANCH   1   9
ATOM      9  C   UNL d   1      44.884 -12.579  43.188  0.00  0.00     0.214 C 
ATOM     10  O   UNL d   1      44.194 -12.123  43.302  0.00  0.00    -0.644 OA
ATOM     11  O   UNL d   1      45.282 -12.490  42.451  0.00  0.00    -0.644 OA
ENDBRANCH   1   9
TORSDOF 1
ENDMDL
MODEL 2
REMARK VINA RESULT:      -0.5      5.664      6.237
REMARK  1 active torsions:
REMARK  status: ('A' for Active; 'I' for Inactive)
REMARK    1  A    between atoms: C_2  and  C_1 
ROOT
ATOM      1  C   UNL d   1      46.570 -19.269  42.837  0.00  0.00     0.104 A 
ATOM      2  C   UNL d   1      46.589 -18.475  43.109  0.00  0.00     0.202 A 
ATOM      3  C   UNL d   1      46.514 -19.896  43.409  0.00  0.00     0.021 A 
ATOM      4  C   UNL d   1      46.553 -18.324  43.919  0.00  0.00     0.043 A 
ATOM      5  C   UNL d   1      46.480 -19.702  44.210  0.00  0.00     0.058 A 
ATOM      6  C   UNL d   1      46.499 -18.921  44.471  0.00  0.00     0.015 A 
ATOM      7  O   UNL d   1      46.645 -17.846  42.548  0.00  0.00    -0.286 OA
ATOM      8 CL   UNL d   1      46.424 -20.330  44.770  0.00  0.00    -0.082 Cl
ENDROOT
BRANCH   1   9
ATOM      9  C   UNL d   1      46.606 -19.436  42.029  0.00  0.00     0.214 C 
ATOM     10  O   UNL d   1      46.647 -20.220  41.746  0.00  0.00    -0.644 OA
ATOM     11  O   UNL d   1      46.602 -18.823  41.451  0.00  0.00    -0.644 OA
ENDBRANCH   1   9
TORSDOF 1
ENDMDL
MODEL 3
REMARK VINA RESULT:      -0.5      5.893      6.451
REMARK  1 active torsions:
REMARK  status: ('A' for Active; 'I' for Inactive)
REMARK    1  A    between atoms: C_2  and  C_1 
ROOT
ATOM      1  C   UNL d   1      46.547 -19.275  43.461  0.00  0.00     0.104 A 
ATOM      2  C   UNL d   1      46.568 -18.479  43.197  0.00  0.00     0.202 A 
ATOM      3  C   UNL d   1      46.573 -19.899  42.883  0.00  0.00     0.021 A 
ATOM      4  C   UNL d   1      46.613 -18.322  42.389  0.00  0.00     0.043 A 
ATOM      5  C   UNL d   1      46.617 -19.699  42.084  0.00  0.00     0.058 A 
ATOM      6  C   UNL d   1      46.637 -18.916  41.831  0.00  0.00     0.015 A 
ATOM      7  O   UNL d   1      46.543 -17.854  43.763  0.00  0.00    -0.286 OA
ATOM      8 CL   UNL d   1      46.642 -20.324  41.518  0.00  0.00    -0.082 Cl
ENDROOT
BRANCH   1   9
ATOM      9  C   UNL d   1      46.503 -19.448  44.268  0.00  0.00     0.214 C 
ATOM     10  O   UNL d   1      46.635 -18.862  44.848  0.00  0.00    -0.644 OA
ATOM     11  O   UNL d   1      46.321 -20.223  44.543  0.00  0.00    -0.644 OA
ENDBRANCH   1   9
TORSDOF 1
ENDMDL
MODEL 4
REMARK VINA RESULT:      -0.4      1.775      2.252
REMARK  1 active torsions:
REMARK  status: ('A' for Active; 'I' for Inactive)
REMARK    1  A    between atoms: C_2  and  C_1 
ROOT
ATOM      1  C   UNL d   1      45.215 -13.603  44.134  0.00  0.00     0.104 A 
ATOM      2  C   UNL d   1      45.904 -13.197  44.392  0.00  0.00     0.202 A 
ATOM      3  C   UNL d   1      44.707 -13.224  43.566  0.00  0.00     0.021 A 
ATOM      4  C   UNL d   1      46.069 -12.448  44.090  0.00  0.00     0.043 A 
ATOM      5  C   UNL d   1      44.908 -12.474  43.289  0.00  0.00     0.058 A 
ATOM      6  C   UNL d   1      45.585 -12.081  43.546  0.00  0.00     0.015 A 
ATOM      7  O   UNL d   1      46.414 -13.565  44.955  0.00  0.00    -0.286 OA
ATOM      8 CL   UNL d   1      44.398 -12.107  42.727  0.00  0.00    -0.082 Cl
ENDROOT
BRANCH   1   9
ATOM      9  C   UNL d   1      45.037 -14.354  44.427  0.00  0.00     0.214 C 
ATOM     10  O   UNL d   1      45.494 -15.022  44.224  0.00  0.00    -0.644 OA
ATOM     11  O   UNL d   1      44.385 -14.481  44.946  0.00  0.00    -0.644 OA
ENDBRANCH   1   9
TORSDOF 1
ENDMDL
