MODEL 1
REMARK VINA RESULT:     -10.4      0.000      0.000
REMARK  2 active torsions:
REMARK  status: ('A' for Active; 'I' for Inactive)
REMARK       I    between atoms: C_2  and  N_1 
REMARK    1  A    between atoms: C_4  and  C_2 
REMARK    2  A    between atoms: C_6  and  C_7 
ROOT
ATOM      1  C   UNL d   1      52.116  33.247  52.955  0.00  0.00     0.057 A 
ATOM      2  C   UNL d   1      50.706  34.085  52.695  0.00  0.00    -0.023 A 
ATOM      3  C   UNL d   1      52.112  33.893  52.430  0.00  0.00     0.004 A 
ATOM      4  C   UNL d   1      51.442  33.012  53.347  0.00  0.00     0.004 A 
ATOM      5  C   UNL d   1      51.381  34.320  52.302  0.00  0.00    -0.004 A 
ATOM      6  C   UNL d   1      50.710  33.439  53.219  0.00  0.00    -0.004 A 
ENDROOT
BRANCH   1   7
ATOM      7  C   UNL d   1      52.813  32.832  53.083  0.00  0.00     0.267 C 
ATOM      8  N   UNL d   1      53.343  33.097  53.675  0.00  0.00    -0.240 N 
ATOM      9  C   UNL d   1      53.172  33.774  54.135  0.00  0.00     0.267 A 
ATOM     10  C   UNL d   1      54.020  32.623  53.740  0.00  0.00     0.086 A 
ATOM     11  O   UNL d   1      52.405  34.175  53.946  0.00  0.00    -0.267 OA
ATOM     12  C   UNL d   1      53.596  34.138  54.738  0.00  0.00     0.061 A 
ATOM     13  C   UNL d   1      54.354  33.886  55.048  0.00  0.00     0.005 A 
ATOM     14  C   UNL d   1      54.784  33.286  54.834  0.00  0.00     0.002 A 
ATOM     15  C   UNL d   1      54.660  32.707  54.254  0.00  0.00     0.019 A 
ATOM     16  O   UNL d   1      52.992  32.176  52.647  0.00  0.00    -0.267 OA
ENDBRANCH   1   7
BRANCH   2  17
ATOM     17  C   UNL d   1      50.008  34.503  52.564  0.00  0.00     0.019 C 
ATOM     18  C   UNL d   1      50.001  34.755  53.346  0.00  0.00     0.004 C 
ATOM     19  C   UNL d   1      49.310  34.919  52.428  0.00  0.00     0.004 C 
ATOM     20  C   UNL d   1      50.015  34.249  51.778  0.00  0.00     0.004 C 
ENDBRANCH   2  17
TORSDOF 2
ENDMDL
MODEL 2
REMARK VINA RESULT:      -9.8      1.786      3.583
REMARK  2 active torsions:
REMARK  status: ('A' for Active; 'I' for Inactive)
REMARK       I    between atoms: C_2  and  N_1 
REMARK    1  A    between atoms: C_4  and  C_2 
REMARK    2  A    between atoms: C_6  and  C_7 
ROOT
ATOM      1  C   UNL d   1      53.892  32.338  54.213  0.00  0.00     0.057 A 
ATOM      2  C   UNL d   1      53.434  30.831  53.685  0.00  0.00    -0.023 A 
ATOM      3  C   UNL d   1      54.019  32.124  53.418  0.00  0.00     0.004 A 
ATOM      4  C   UNL d   1      53.547  31.825  54.742  0.00  0.00     0.004 A 
ATOM      5  C   UNL d   1      53.779  31.345  53.155  0.00  0.00    -0.004 A 
ATOM      6  C   UNL d   1      53.307  31.046  54.479  0.00  0.00    -0.004 A 
ENDROOT
BRANCH   1   7
ATOM      7  C   UNL d   1      54.119  33.082  54.474  0.00  0.00     0.267 C 
ATOM      8  N   UNL d   1      53.624  33.739  54.316  0.00  0.00    -0.240 N 
ATOM      9  C   UNL d   1      52.906  33.647  53.897  0.00  0.00     0.267 A 
ATOM     10  C   UNL d   1      53.925  34.452  54.613  0.00  0.00     0.086 A 
ATOM     11  O   UNL d   1      52.720  32.819  53.644  0.00  0.00    -0.267 OA
ATOM     12  C   UNL d   1      52.334  34.196  53.677  0.00  0.00     0.061 A 
ATOM     13  C   UNL d   1      52.352  35.037  53.839  0.00  0.00     0.005 A 
ATOM     14  C   UNL d   1      52.887  35.443  54.212  0.00  0.00     0.002 A 
ATOM     15  C   UNL d   1      53.598  35.208  54.567  0.00  0.00     0.019 A 
ATOM     16  O   UNL d   1      54.810  33.188  54.879  0.00  0.00    -0.267 OA
ENDBRANCH   1   7
BRANCH   2  17
ATOM     17  C   UNL d   1      53.207  30.085  53.420  0.00  0.00     0.019 C 
ATOM     18  C   UNL d   1      52.979  30.399  52.697  0.00  0.00     0.004 C 
ATOM     19  C   UNL d   1      52.982  29.336  53.160  0.00  0.00     0.004 C 
ATOM     20  C   UNL d   1      53.437  29.768  54.148  0.00  0.00     0.004 C 
ENDBRANCH   2  17
TORSDOF 2
ENDMDL
MODEL 3
REMARK VINA RESULT:      -9.6      2.560      4.025
REMARK  2 active torsions:
REMARK  status: ('A' for Active; 'I' for Inactive)
REMARK       I    between atoms: C_2  and  N_1 
REMARK    1  A    between atoms: C_4  and  C_2 
REMARK    2  A    between atoms: C_6  and  C_7 
ROOT
ATOM      1  C   UNL d   1      53.571  32.290  53.571  0.00  0.00     0.057 A 
ATOM      2  C   UNL d   1      54.495  33.292  54.520  0.00  0.00    -0.023 A 
ATOM      3  C   UNL d   1      53.232  32.650  54.240  0.00  0.00     0.004 A 
ATOM      4  C   UNL d   1      54.350  32.416  53.367  0.00  0.00     0.004 A 
ATOM      5  C   UNL d   1      53.716  33.166  54.723  0.00  0.00    -0.004 A 
ATOM      6  C   UNL d   1      54.834  32.931  53.850  0.00  0.00    -0.004 A 
ENDROOT
BRANCH   1   7
ATOM      7  C   UNL d   1      53.115  31.794  53.101  0.00  0.00     0.267 C 
ATOM      8  N   UNL d   1      53.062  30.981  53.296  0.00  0.00    -0.240 N 
ATOM      9  C   UNL d   1      53.465  30.670  53.958  0.00  0.00     0.267 A 
ATOM     10  C   UNL d   1      52.582  30.553  52.772  0.00  0.00     0.086 A 
ATOM     11  O   UNL d   1      53.940  31.256  54.422  0.00  0.00    -0.267 OA
ATOM     12  C   UNL d   1      53.500  29.905  54.259  0.00  0.00     0.061 A 
ATOM     13  C   UNL d   1      53.104  29.216  53.937  0.00  0.00     0.005 A 
ATOM     14  C   UNL d   1      52.649  29.169  53.321  0.00  0.00     0.002 A 
ATOM     15  C   UNL d   1      52.399  29.749  52.784  0.00  0.00     0.019 A 
ATOM     16  O   UNL d   1      52.719  32.080  52.458  0.00  0.00    -0.267 OA
ENDBRANCH   1   7
BRANCH   2  17
ATOM     17  C   UNL d   1      54.951  33.789  54.992  0.00  0.00     0.019 C 
ATOM     18  C   UNL d   1      54.344  33.839  55.543  0.00  0.00     0.004 C 
ATOM     19  C   UNL d   1      55.411  34.287  55.461  0.00  0.00     0.004 C 
ATOM     20  C   UNL d   1      55.562  33.740  54.438  0.00  0.00     0.004 C 
ENDBRANCH   2  17
TORSDOF 2
ENDMDL
MODEL 4
REMARK VINA RESULT:      -9.5      0.961      1.867
REMARK  2 active torsions:
REMARK  status: ('A' for Active; 'I' for Inactive)
REMARK       I    between atoms: C_2  and  N_1 
REMARK    1  A    between atoms: C_4  and  C_2 
REMARK    2  A    between atoms: C_6  and  C_7 
ROOT
ATOM      1  C   UNL d   1      52.148  33.571  53.252  0.00  0.00     0.057 A 
ATOM      2  C   UNL d   1      50.745  34.164  52.590  0.00  0.00    -0.023 A 
ATOM      3  C   UNL d   1      51.423  33.443  53.641  0.00  0.00     0.004 A 
ATOM      4  C   UNL d   1      52.189  33.982  52.550  0.00  0.00     0.004 A 
ATOM      5  C   UNL d   1      50.705  33.752  53.292  0.00  0.00    -0.004 A 
ATOM      6  C   UNL d   1      51.471  34.292  52.201  0.00  0.00    -0.004 A 
ENDROOT
BRANCH   1   7
ATOM      7  C   UNL d   1      52.842  33.278  53.579  0.00  0.00     0.267 C 
ATOM      8  N   UNL d   1      53.026  32.466  53.489  0.00  0.00    -0.240 N 
ATOM      9  C   UNL d   1      52.514  31.953  53.071  0.00  0.00     0.267 A 
ATOM     10  C   UNL d   1      53.742  32.253  53.848  0.00  0.00     0.086 A 
ATOM     11  O   UNL d   1      51.784  32.331  52.744  0.00  0.00    -0.267 OA
ATOM     12  C   UNL d   1      52.571  31.148  52.910  0.00  0.00     0.061 A 
ATOM     13  C   UNL d   1      53.208  30.628  53.150  0.00  0.00     0.005 A 
ATOM     14  C   UNL d   1      53.840  30.796  53.552  0.00  0.00     0.002 A 
ATOM     15  C   UNL d   1      54.103  31.512  53.876  0.00  0.00     0.019 A 
ATOM     16  O   UNL d   1      53.346  33.762  53.985  0.00  0.00    -0.267 OA
ENDBRANCH   1   7
BRANCH   2  17
ATOM     17  C   UNL d   1      50.048  34.457  52.263  0.00  0.00     0.019 C 
ATOM     18  C   UNL d   1      50.271  34.189  51.520  0.00  0.00     0.004 C 
ATOM     19  C   UNL d   1      49.349  34.752  51.942  0.00  0.00     0.004 C 
ATOM     20  C   UNL d   1      49.823  34.726  53.012  0.00  0.00     0.004 C 
ENDBRANCH   2  17
TORSDOF 2
ENDMDL
MODEL 5
REMARK VINA RESULT:      -9.3      1.856      2.990
REMARK  2 active torsions:
REMARK  status: ('A' for Active; 'I' for Inactive)
REMARK       I    between atoms: C_2  and  N_1 
REMARK    1  A    between atoms: C_4  and  C_2 
REMARK    2  A    between atoms: C_6  and  C_7 
ROOT
ATOM      1  C   UNL d   1      52.852  32.521  53.212  0.00  0.00     0.057 A 
ATOM      2  C   UNL d   1      53.052  34.007  53.925  0.00  0.00    -0.023 A 
ATOM      3  C   UNL d   1      52.196  32.907  53.548  0.00  0.00     0.004 A 
ATOM      4  C   UNL d   1      53.595  32.854  53.223  0.00  0.00     0.004 A 
ATOM      5  C   UNL d   1      52.308  33.674  53.914  0.00  0.00    -0.004 A 
ATOM      6  C   UNL d   1      53.707  33.620  53.589  0.00  0.00    -0.004 A 
ENDROOT
BRANCH   1   7
ATOM      7  C   UNL d   1      52.754  31.786  52.859  0.00  0.00     0.267 C 
ATOM      8  N   UNL d   1      52.953  31.096  53.289  0.00  0.00    -0.240 N 
ATOM      9  C   UNL d   1      53.249  31.146  54.070  0.00  0.00     0.267 A 
ATOM     10  C   UNL d   1      52.824  30.398  52.861  0.00  0.00     0.086 A 
ATOM     11  O   UNL d   1      53.331  31.967  54.391  0.00  0.00    -0.267 OA
ATOM     12  C   UNL d   1      53.481  30.559  54.598  0.00  0.00     0.061 A 
ATOM     13  C   UNL d   1      53.468  29.714  54.453  0.00  0.00     0.005 A 
ATOM     14  C   UNL d   1      53.244  29.339  53.821  0.00  0.00     0.002 A 
ATOM     15  C   UNL d   1      52.953  29.618  53.097  0.00  0.00     0.019 A 
ATOM     16  O   UNL d   1      52.468  31.722  52.105  0.00  0.00    -0.267 OA
ENDBRANCH   1   7
BRANCH   2  17
ATOM     17  C   UNL d   1      53.148  34.745  54.280  0.00  0.00     0.019 C 
ATOM     18  C   UNL d   1      53.534  34.399  54.916  0.00  0.00     0.004 C 
ATOM     19  C   UNL d   1      53.241  35.485  54.630  0.00  0.00     0.004 C 
ATOM     20  C   UNL d   1      52.758  35.093  53.639  0.00  0.00     0.004 C 
ENDBRANCH   2  17
TORSDOF 2
ENDMDL
MODEL 6
REMARK VINA RESULT:      -8.4      0.887      3.815
REMARK  2 active torsions:
REMARK  status: ('A' for Active; 'I' for Inactive)
REMARK       I    between atoms: C_2  and  N_1 
REMARK    1  A    between atoms: C_4  and  C_2 
REMARK    2  A    between atoms: C_6  and  C_7 
ROOT
ATOM      1  C   UNL d   1      53.112  32.996  53.493  0.00  0.00     0.057 A 
ATOM      2  C   UNL d   1      54.376  33.374  54.502  0.00  0.00    -0.023 A 
ATOM      3  C   UNL d   1      53.728  33.483  53.216  0.00  0.00     0.004 A 
ATOM      4  C   UNL d   1      53.112  32.697  54.251  0.00  0.00     0.004 A 
ATOM      5  C   UNL d   1      54.376  33.672  53.743  0.00  0.00    -0.004 A 
ATOM      6  C   UNL d   1      53.760  32.887  54.778  0.00  0.00    -0.004 A 
ENDROOT
BRANCH   1   7
ATOM      7  C   UNL d   1      52.487  32.809  52.995  0.00  0.00     0.267 C 
ATOM      8  N   UNL d   1      51.843  33.340  52.929  0.00  0.00    -0.240 N 
ATOM      9  C   UNL d   1      51.829  34.055  53.363  0.00  0.00     0.267 A 
ATOM     10  C   UNL d   1      51.256  33.076  52.407  0.00  0.00     0.086 A 
ATOM     11  O   UNL d   1      52.533  34.197  53.881  0.00  0.00    -0.267 OA
ATOM     12  C   UNL d   1      51.270  34.657  53.393  0.00  0.00     0.061 A 
ATOM     13  C   UNL d   1      50.531  34.684  52.958  0.00  0.00     0.005 A 
ATOM     14  C   UNL d   1      50.246  34.170  52.465  0.00  0.00     0.002 A 
ATOM     15  C   UNL d   1      50.547  33.444  52.201  0.00  0.00     0.019 A 
ATOM     16  O   UNL d   1      52.486  32.121  52.570  0.00  0.00    -0.267 OA
ENDBRANCH   1   7
BRANCH   2  17
ATOM     17  C   UNL d   1      55.005  33.563  54.999  0.00  0.00     0.019 C 
ATOM     18  C   UNL d   1      55.469  33.765  54.353  0.00  0.00     0.004 C 
ATOM     19  C   UNL d   1      55.630  33.751  55.502  0.00  0.00     0.004 C 
ATOM     20  C   UNL d   1      54.537  33.360  55.650  0.00  0.00     0.004 C 
ENDBRANCH   2  17
TORSDOF 2
ENDMDL
