MODEL 1
REMARK VINA RESULT:      -6.2      0.000      0.000
REMARK  8 active torsions:
REMARK  status: ('A' for Active; 'I' for Inactive)
REMARK    1  A    between atoms: C_14  and  N_1 
REMARK    2  A    between atoms: N_9  and  C_2 
REMARK    3  A    between atoms: C_6  and  C_5 
REMARK    4  A    between atoms: C_7  and  C_6 
REMARK       I    between atoms: N_8  and  C_7 
REMARK    5  A    between atoms: C_10  and  N_8 
REMARK    6  A    between atoms: C_16  and  N_9 
REMARK    7  A    between atoms: O_15  and  C_13 
REMARK    8  A    between atoms: C_19  and  O_15 
ROOT
ATOM      1  C   UNL d   1     -47.298  12.469  23.691  0.00  0.00     0.074 C 
ENDROOT
BRANCH   1   2
ATOM      2  C   UNL d   1     -48.068  12.614  23.428  0.00  0.00     0.093 A 
ATOM      3  C   UNL d   1     -48.641  12.045  23.261  0.00  0.00     0.272 A 
ATOM      4  N   UNL d   1     -49.330  12.430  23.015  0.00  0.00    -0.252 N 
ATOM      5  O   UNL d   1     -48.542  11.226  23.327  0.00  0.00    -0.266 OA
ATOM      6  C   UNL d   1     -49.182  13.244  23.031  0.00  0.00     0.182 A 
ATOM      7  S   UNL d   1     -48.408  13.361  23.285  0.00  0.00    -0.045 SA
BRANCH   4   8
ATOM      8  C   UNL d   1     -50.031  12.062  22.797  0.00  0.00     0.085 C 
ATOM      9  C   UNL d   1     -50.508  11.706  23.364  0.00  0.00     0.021 C 
ENDBRANCH   4   8
BRANCH   6  10
ATOM     10  N   UNL d   1     -49.721  13.829  22.828  0.00  0.00    -0.221 NA
BRANCH  10  11
ATOM     11  C   UNL d   1     -49.579  14.615  23.019  0.00  0.00     0.101 C 
ATOM     12  C   UNL d   1     -49.939  15.226  22.595  0.00  0.00     0.022 C 
ENDBRANCH  10  11
ENDBRANCH   6  10
ENDBRANCH   1   2
BRANCH   1  13
ATOM     13  C   UNL d   1     -46.661  12.595  23.182  0.00  0.00     0.280 C 
ATOM     14  N   UNL d   1     -45.936  12.244  23.330  0.00  0.00    -0.206 NA
ATOM     15  O   UNL d   1     -46.763  13.076  22.523  0.00  0.00    -0.265 OA
BRANCH  14  16
ATOM     16  C   UNL d   1     -45.301  12.372  22.819  0.00  0.00     0.107 A 
ATOM     17  C   UNL d   1     -44.668  11.844  22.803  0.00  0.00     0.118 A 
ATOM     18  C   UNL d   1     -44.033  11.971  22.292  0.00  0.00     0.026 A 
ATOM     19  C   UNL d   1     -44.037  12.638  21.793  0.00  0.00     0.002 A 
ATOM     20  C   UNL d   1     -44.665  13.163  21.808  0.00  0.00     0.002 A 
ATOM     21  C   UNL d   1     -45.302  13.039  22.318  0.00  0.00     0.021 A 
BRANCH  17  22
ATOM     22  O   UNL d   1     -44.676  11.186  23.304  0.00  0.00    -0.304 OA
BRANCH  22  23
ATOM     23  C   UNL d   1     -44.029  10.678  23.316  0.00  0.00     0.123 C 
ATOM     24  C   UNL d   1     -44.083   9.945  23.693  0.00  0.00     0.029 C 
ENDBRANCH  22  23
ENDBRANCH  17  22
ENDBRANCH  14  16
ENDBRANCH   1  13
TORSDOF 8
ENDMDL
MODEL 2
REMARK VINA RESULT:      -5.9      1.458      5.152
REMARK  8 active torsions:
REMARK  status: ('A' for Active; 'I' for Inactive)
REMARK    1  A    between atoms: C_14  and  N_1 
REMARK    2  A    between atoms: N_9  and  C_2 
REMARK    3  A    between atoms: C_6  and  C_5 
REMARK    4  A    between atoms: C_7  and  C_6 
REMARK       I    between atoms: N_8  and  C_7 
REMARK    5  A    between atoms: C_10  and  N_8 
REMARK    6  A    between atoms: C_16  and  N_9 
REMARK    7  A    between atoms: O_15  and  C_13 
REMARK    8  A    between atoms: C_19  and  O_15 
ROOT
ATOM      1  C   UNL d   1     -47.518  13.815  23.131  0.00  0.00     0.074 C 
ENDROOT
BRANCH   1   2
ATOM      2  C   UNL d   1     -46.820  13.379  23.044  0.00  0.00     0.093 A 
ATOM      3  C   UNL d   1     -46.156  13.603  22.610  0.00  0.00     0.272 A 
ATOM      4  N   UNL d   1     -45.588  13.007  22.672  0.00  0.00    -0.252 N 
ATOM      5  O   UNL d   1     -46.073  14.308  22.183  0.00  0.00    -0.266 OA
ATOM      6  C   UNL d   1     -45.903  12.409  23.149  0.00  0.00     0.182 A 
ATOM      7  S   UNL d   1     -46.660  12.633  23.380  0.00  0.00    -0.045 SA
BRANCH   4   8
ATOM      8  C   UNL d   1     -44.845  13.015  22.320  0.00  0.00     0.085 C 
ATOM      9  C   UNL d   1     -44.773  13.105  21.506  0.00  0.00     0.021 C 
ENDBRANCH   4   8
BRANCH   6  10
ATOM     10  N   UNL d   1     -45.520  11.712  23.353  0.00  0.00    -0.221 NA
BRANCH  10  11
ATOM     11  C   UNL d   1     -45.923  10.996  23.357  0.00  0.00     0.101 C 
ATOM     12  C   UNL d   1     -45.569  10.311  23.654  0.00  0.00     0.022 C 
ENDBRANCH  10  11
ENDBRANCH   6  10
ENDBRANCH   1   2
BRANCH   1  13
ATOM     13  C   UNL d   1     -48.234  13.499  22.869  0.00  0.00     0.280 C 
ATOM     14  N   UNL d   1     -48.843  13.992  22.634  0.00  0.00    -0.206 NA
ATOM     15  O   UNL d   1     -48.328  12.682  22.848  0.00  0.00    -0.265 OA
BRANCH  14  16
ATOM     16  C   UNL d   1     -49.558  13.673  22.373  0.00  0.00     0.107 A 
ATOM     17  C   UNL d   1     -50.271  14.037  22.568  0.00  0.00     0.118 A 
ATOM     18  C   UNL d   1     -50.986  13.718  22.308  0.00  0.00     0.026 A 
ATOM     19  C   UNL d   1     -50.980  13.025  21.845  0.00  0.00     0.002 A 
ATOM     20  C   UNL d   1     -50.272  12.663  21.650  0.00  0.00     0.002 A 
ATOM     21  C   UNL d   1     -49.556  12.979  21.909  0.00  0.00     0.021 A 
BRANCH  17  22
ATOM     22  O   UNL d   1     -50.264  14.724  23.028  0.00  0.00    -0.304 OA
BRANCH  22  23
ATOM     23  C   UNL d   1     -50.967  15.126  23.169  0.00  0.00     0.123 C 
ATOM     24  C   UNL d   1     -50.981  15.772  23.682  0.00  0.00     0.029 C 
ENDBRANCH  22  23
ENDBRANCH  17  22
ENDBRANCH  14  16
ENDBRANCH   1  13
TORSDOF 8
ENDMDL
MODEL 3
REMARK VINA RESULT:      -5.9      1.416      2.534
REMARK  8 active torsions:
REMARK  status: ('A' for Active; 'I' for Inactive)
REMARK    1  A    between atoms: C_14  and  N_1 
REMARK    2  A    between atoms: N_9  and  C_2 
REMARK    3  A    between atoms: C_6  and  C_5 
REMARK    4  A    between atoms: C_7  and  C_6 
REMARK       I    between atoms: N_8  and  C_7 
REMARK    5  A    between atoms: C_10  and  N_8 
REMARK    6  A    between atoms: C_16  and  N_9 
REMARK    7  A    between atoms: O_15  and  C_13 
REMARK    8  A    between atoms: C_19  and  O_15 
ROOT
ATOM      1  C   UNL d   1     -47.663  14.461  22.633  0.00  0.00     0.074 C 
ENDROOT
BRANCH   1   2
ATOM      2  C   UNL d   1     -48.481  14.544  22.549  0.00  0.00     0.093 A 
ATOM      3  C   UNL d   1     -48.936  15.181  22.809  0.00  0.00     0.272 A 
ATOM      4  N   UNL d   1     -49.726  15.038  22.612  0.00  0.00    -0.252 N 
ATOM      5  O   UNL d   1     -48.649  15.851  23.201  0.00  0.00    -0.266 OA
ATOM      6  C   UNL d   1     -49.760  14.306  22.227  0.00  0.00     0.182 A 
ATOM      7  S   UNL d   1     -48.998  14.000  22.186  0.00  0.00    -0.045 SA
BRANCH   4   8
ATOM      8  C   UNL d   1     -50.357  15.538  22.774  0.00  0.00     0.085 C 
ATOM      9  C   UNL d   1     -50.661  15.591  23.536  0.00  0.00     0.021 C 
ENDBRANCH   4   8
BRANCH   6  10
ATOM     10  N   UNL d   1     -50.442  13.953  21.937  0.00  0.00    -0.221 NA
BRANCH  10  11
ATOM     11  C   UNL d   1     -50.400  13.275  21.475  0.00  0.00     0.101 C 
ATOM     12  C   UNL d   1     -50.886  12.625  21.631  0.00  0.00     0.022 C 
ENDBRANCH  10  11
ENDBRANCH   6  10
ENDBRANCH   1   2
BRANCH   1  13
ATOM     13  C   UNL d   1     -47.352  13.765  22.948  0.00  0.00     0.280 C 
ATOM     14  N   UNL d   1     -46.730  13.383  22.577  0.00  0.00    -0.206 NA
ATOM     15  O   UNL d   1     -47.674  13.459  23.641  0.00  0.00    -0.265 OA
BRANCH  14  16
ATOM     16  C   UNL d   1     -46.421  12.688  22.895  0.00  0.00     0.107 A 
ATOM     17  C   UNL d   1     -45.644  12.466  22.734  0.00  0.00     0.118 A 
ATOM     18  C   UNL d   1     -45.335  11.770  23.051  0.00  0.00     0.026 A 
ATOM     19  C   UNL d   1     -45.815  11.293  23.537  0.00  0.00     0.002 A 
ATOM     20  C   UNL d   1     -46.587  11.512  23.698  0.00  0.00     0.002 A 
ATOM     21  C   UNL d   1     -46.900  12.207  23.382  0.00  0.00     0.021 A 
BRANCH  17  22
ATOM     22  O   UNL d   1     -45.177  12.947  22.250  0.00  0.00    -0.304 OA
BRANCH  22  23
ATOM     23  C   UNL d   1     -44.515  12.631  21.879  0.00  0.00     0.123 C 
ATOM     24  C   UNL d   1     -43.950  13.128  21.540  0.00  0.00     0.029 C 
ENDBRANCH  22  23
ENDBRANCH  17  22
ENDBRANCH  14  16
ENDBRANCH   1  13
TORSDOF 8
ENDMDL
MODEL 4
REMARK VINA RESULT:      -5.1      1.591      2.660
REMARK  8 active torsions:
REMARK  status: ('A' for Active; 'I' for Inactive)
REMARK    1  A    between atoms: C_14  and  N_1 
REMARK    2  A    between atoms: N_9  and  C_2 
REMARK    3  A    between atoms: C_6  and  C_5 
REMARK    4  A    between atoms: C_7  and  C_6 
REMARK       I    between atoms: N_8  and  C_7 
REMARK    5  A    between atoms: C_10  and  N_8 
REMARK    6  A    between atoms: C_16  and  N_9 
REMARK    7  A    between atoms: O_15  and  C_13 
REMARK    8  A    between atoms: C_19  and  O_15 
ROOT
ATOM      1  C   UNL d   1     -49.626  12.012  23.698  0.00  0.00     0.074 C 
ENDROOT
BRANCH   1   2
ATOM      2  C   UNL d   1     -50.012  12.629  23.306  0.00  0.00     0.093 A 
ATOM      3  C   UNL d   1     -50.342  12.596  22.551  0.00  0.00     0.272 A 
ATOM      4  N   UNL d   1     -50.671  13.334  22.376  0.00  0.00    -0.252 N 
ATOM      5  O   UNL d   1     -50.343  11.935  22.053  0.00  0.00    -0.266 OA
ATOM      6  C   UNL d   1     -50.543  13.827  23.027  0.00  0.00     0.182 A 
ATOM      7  S   UNL d   1     -50.139  13.398  23.601  0.00  0.00    -0.045 SA
BRANCH   4   8
ATOM      8  C   UNL d   1     -51.054  13.532  21.676  0.00  0.00     0.085 C 
ATOM      9  C   UNL d   1     -50.621  13.762  21.016  0.00  0.00     0.021 C 
ENDBRANCH   4   8
BRANCH   6  10
ATOM     10  N   UNL d   1     -50.783  14.610  23.085  0.00  0.00    -0.221 NA
BRANCH  10  11
ATOM     11  C   UNL d   1     -50.486  15.097  23.677  0.00  0.00     0.101 C 
ATOM     12  C   UNL d   1     -50.625  15.912  23.664  0.00  0.00     0.022 C 
ENDBRANCH  10  11
ENDBRANCH   6  10
ENDBRANCH   1   2
BRANCH   1  13
ATOM     13  C   UNL d   1     -48.847  11.826  23.501  0.00  0.00     0.280 C 
ATOM     14  N   UNL d   1     -48.237  12.335  23.698  0.00  0.00    -0.206 NA
ATOM     15  O   UNL d   1     -48.689  11.122  23.106  0.00  0.00    -0.265 OA
BRANCH  14  16
ATOM     16  C   UNL d   1     -47.458  12.147  23.500  0.00  0.00     0.107 A 
ATOM     17  C   UNL d   1     -46.954  12.725  23.200  0.00  0.00     0.118 A 
ATOM     18  C   UNL d   1     -46.175  12.537  23.003  0.00  0.00     0.026 A 
ATOM     19  C   UNL d   1     -45.904  11.756  23.108  0.00  0.00     0.002 A 
ATOM     20  C   UNL d   1     -46.404  11.181  23.405  0.00  0.00     0.002 A 
ATOM     21  C   UNL d   1     -47.183  11.366  23.604  0.00  0.00     0.021 A 
BRANCH  17  22
ATOM     22  O   UNL d   1     -47.235  13.496  23.100  0.00  0.00    -0.304 OA
BRANCH  22  23
ATOM     23  C   UNL d   1     -46.721  14.087  22.848  0.00  0.00     0.123 C 
ATOM     24  C   UNL d   1     -46.980  14.868  22.790  0.00  0.00     0.029 C 
ENDBRANCH  22  23
ENDBRANCH  17  22
ENDBRANCH  14  16
ENDBRANCH   1  13
TORSDOF 8
ENDMDL
MODEL 5
REMARK VINA RESULT:      -4.9      7.136      9.460
REMARK  8 active torsions:
REMARK  status: ('A' for Active; 'I' for Inactive)
REMARK    1  A    between atoms: C_14  and  N_1 
REMARK    2  A    between atoms: N_9  and  C_2 
REMARK    3  A    between atoms: C_6  and  C_5 
REMARK    4  A    between atoms: C_7  and  C_6 
REMARK       I    between atoms: N_8  and  C_7 
REMARK    5  A    between atoms: C_10  and  N_8 
REMARK    6  A    between atoms: C_16  and  N_9 
REMARK    7  A    between atoms: O_15  and  C_13 
REMARK    8  A    between atoms: C_19  and  O_15 
ROOT
ATOM      1  C   UNL d   1     -39.150  15.785  18.968  0.00  0.00     0.074 C 
ENDROOT
BRANCH   1   2
ATOM      2  C   UNL d   1     -39.419  15.507  18.237  0.00  0.00     0.093 A 
ATOM      3  C   UNL d   1     -40.188  15.569  17.945  0.00  0.00     0.272 A 
ATOM      4  N   UNL d   1     -40.213  15.220  17.197  0.00  0.00    -0.252 N 
ATOM      5  O   UNL d   1     -40.826  15.922  18.337  0.00  0.00    -0.266 OA
ATOM      6  C   UNL d   1     -39.454  14.939  17.024  0.00  0.00     0.182 A 
ATOM      7  S   UNL d   1     -38.963  15.114  17.661  0.00  0.00    -0.045 SA
BRANCH   4   8
ATOM      8  C   UNL d   1     -40.878  15.165  16.717  0.00  0.00     0.085 C 
ATOM      9  C   UNL d   1     -41.312  15.838  16.530  0.00  0.00     0.021 C 
ENDBRANCH   4   8
BRANCH   6  10
ATOM     10  N   UNL d   1     -39.235  14.553  16.334  0.00  0.00    -0.221 NA
BRANCH  10  11
ATOM     11  C   UNL d   1     -38.450  14.359  16.193  0.00  0.00     0.101 C 
ATOM     12  C   UNL d   1     -38.233  13.934  15.518  0.00  0.00     0.022 C 
ENDBRANCH  10  11
ENDBRANCH   6  10
ENDBRANCH   1   2
BRANCH   1  13
ATOM     13  C   UNL d   1     -38.914  15.249  19.549  0.00  0.00     0.280 C 
ATOM     14  N   UNL d   1     -39.300  15.224  20.271  0.00  0.00    -0.206 NA
ATOM     15  O   UNL d   1     -38.288  14.739  19.394  0.00  0.00    -0.265 OA
BRANCH  14  16
ATOM     16  C   UNL d   1     -39.062  14.686  20.850  0.00  0.00     0.107 A 
ATOM     17  C   UNL d   1     -39.624  14.266  21.283  0.00  0.00     0.118 A 
ATOM     18  C   UNL d   1     -39.386  13.728  21.862  0.00  0.00     0.026 A 
ATOM     19  C   UNL d   1     -38.573  13.614  22.005  0.00  0.00     0.002 A 
ATOM     20  C   UNL d   1     -38.015  14.030  21.575  0.00  0.00     0.002 A 
ATOM     21  C   UNL d   1     -38.248  14.569  20.995  0.00  0.00     0.021 A 
BRANCH  17  22
ATOM     22  O   UNL d   1     -40.427  14.389  21.132  0.00  0.00    -0.304 OA
BRANCH  22  23
ATOM     23  C   UNL d   1     -40.982  13.861  21.431  0.00  0.00     0.123 C 
ATOM     24  C   UNL d   1     -41.768  13.897  21.181  0.00  0.00     0.029 C 
ENDBRANCH  22  23
ENDBRANCH  17  22
ENDBRANCH  14  16
ENDBRANCH   1  13
TORSDOF 8
ENDMDL
MODEL 6
REMARK VINA RESULT:      -4.9      1.315      4.717
REMARK  8 active torsions:
REMARK  status: ('A' for Active; 'I' for Inactive)
REMARK    1  A    between atoms: C_14  and  N_1 
REMARK    2  A    between atoms: N_9  and  C_2 
REMARK    3  A    between atoms: C_6  and  C_5 
REMARK    4  A    between atoms: C_7  and  C_6 
REMARK       I    between atoms: N_8  and  C_7 
REMARK    5  A    between atoms: C_10  and  N_8 
REMARK    6  A    between atoms: C_16  and  N_9 
REMARK    7  A    between atoms: O_15  and  C_13 
REMARK    8  A    between atoms: C_19  and  O_15 
ROOT
ATOM      1  C   UNL d   1     -47.461  12.721  22.086  0.00  0.00     0.074 C 
ENDROOT
BRANCH   1   2
ATOM      2  C   UNL d   1     -46.699  12.513  22.331  0.00  0.00     0.093 A 
ATOM      3  C   UNL d   1     -46.509  11.972  22.925  0.00  0.00     0.272 A 
ATOM      4  N   UNL d   1     -45.686  11.931  22.988  0.00  0.00    -0.252 N 
ATOM      5  O   UNL d   1     -47.051  11.543  23.379  0.00  0.00    -0.266 OA
ATOM      6  C   UNL d   1     -45.364  12.450  22.430  0.00  0.00     0.182 A 
ATOM      7  S   UNL d   1     -45.983  12.809  22.024  0.00  0.00    -0.045 SA
BRANCH   4   8
ATOM      8  C   UNL d   1     -45.270  11.456  23.515  0.00  0.00     0.085 C 
ATOM      9  C   UNL d   1     -45.542  10.702  23.698  0.00  0.00     0.021 C 
ENDBRANCH   4   8
BRANCH   6  10
ATOM     10  N   UNL d   1     -44.563  12.580  22.307  0.00  0.00    -0.221 NA
BRANCH  10  11
ATOM     11  C   UNL d   1     -44.305  13.062  21.694  0.00  0.00     0.101 C 
ATOM     12  C   UNL d   1     -43.557  12.957  21.359  0.00  0.00     0.022 C 
ENDBRANCH  10  11
ENDBRANCH   6  10
ENDBRANCH   1   2
BRANCH   1  13
ATOM     13  C   UNL d   1     -47.805  13.417  22.367  0.00  0.00     0.280 C 
ATOM     14  N   UNL d   1     -48.619  13.480  22.431  0.00  0.00    -0.206 NA
ATOM     15  O   UNL d   1     -47.321  14.046  22.582  0.00  0.00    -0.265 OA
BRANCH  14  16
ATOM     16  C   UNL d   1     -48.961  14.176  22.712  0.00  0.00     0.107 A 
ATOM     17  C   UNL d   1     -49.612  14.146  23.216  0.00  0.00     0.118 A 
ATOM     18  C   UNL d   1     -49.954  14.842  23.496  0.00  0.00     0.026 A 
ATOM     19  C   UNL d   1     -49.634  15.576  23.266  0.00  0.00     0.002 A 
ATOM     20  C   UNL d   1     -48.987  15.608  22.766  0.00  0.00     0.002 A 
ATOM     21  C   UNL d   1     -48.643  14.913  22.483  0.00  0.00     0.021 A 
BRANCH  17  22
ATOM     22  O   UNL d   1     -49.920  13.411  23.437  0.00  0.00    -0.304 OA
BRANCH  22  23
ATOM     23  C   UNL d   1     -50.731  13.327  23.546  0.00  0.00     0.123 C 
ATOM     24  C   UNL d   1     -51.058  12.579  23.668  0.00  0.00     0.029 C 
ENDBRANCH  22  23
ENDBRANCH  17  22
ENDBRANCH  14  16
ENDBRANCH   1  13
TORSDOF 8
ENDMDL
MODEL 7
REMARK VINA RESULT:      -4.4      6.916      9.669
REMARK  8 active torsions:
REMARK  status: ('A' for Active; 'I' for Inactive)
REMARK    1  A    between atoms: C_14  and  N_1 
REMARK    2  A    between atoms: N_9  and  C_2 
REMARK    3  A    between atoms: C_6  and  C_5 
REMARK    4  A    between atoms: C_7  and  C_6 
REMARK       I    between atoms: N_8  and  C_7 
REMARK    5  A    between atoms: C_10  and  N_8 
REMARK    6  A    between atoms: C_16  and  N_9 
REMARK    7  A    between atoms: O_15  and  C_13 
REMARK    8  A    between atoms: C_19  and  O_15 
ROOT
ATOM      1  C   UNL d   1     -40.436  14.470  17.835  0.00  0.00     0.074 C 
ENDROOT
BRANCH   1   2
ATOM      2  C   UNL d   1     -39.782  14.149  17.442  0.00  0.00     0.093 A 
ATOM      3  C   UNL d   1     -39.461  14.418  16.732  0.00  0.00     0.272 A 
ATOM      4  N   UNL d   1     -38.815  13.940  16.538  0.00  0.00    -0.252 N 
ATOM      5  O   UNL d   1     -39.739  15.059  16.288  0.00  0.00    -0.266 OA
ATOM      6  C   UNL d   1     -38.736  13.371  17.134  0.00  0.00     0.182 A 
ATOM      7  S   UNL d   1     -39.329  13.496  17.691  0.00  0.00    -0.045 SA
BRANCH   4   8
ATOM      8  C   UNL d   1     -38.342  14.022  15.872  0.00  0.00     0.085 C 
ATOM      9  C   UNL d   1     -38.133  14.770  15.600  0.00  0.00     0.021 C 
ENDBRANCH   4   8
BRANCH   6  10
ATOM     10  N   UNL d   1     -38.162  12.784  17.158  0.00  0.00    -0.221 NA
BRANCH  10  11
ATOM     11  C   UNL d   1     -38.084  12.301  17.818  0.00  0.00     0.101 C 
ATOM     12  C   UNL d   1     -37.940  11.492  17.736  0.00  0.00     0.022 C 
ENDBRANCH  10  11
ENDBRANCH   6  10
ENDBRANCH   1   2
BRANCH   1  13
ATOM     13  C   UNL d   1     -40.327  14.878  18.544  0.00  0.00     0.280 C 
ATOM     14  N   UNL d   1     -40.511  14.522  19.258  0.00  0.00    -0.206 NA
ATOM     15  O   UNL d   1     -40.033  15.646  18.525  0.00  0.00    -0.265 OA
BRANCH  14  16
ATOM     16  C   UNL d   1     -40.402  14.932  19.966  0.00  0.00     0.107 A 
ATOM     17  C   UNL d   1     -40.881  14.773  20.617  0.00  0.00     0.118 A 
ATOM     18  C   UNL d   1     -40.772  15.182  21.325  0.00  0.00     0.026 A 
ATOM     19  C   UNL d   1     -40.173  15.759  21.375  0.00  0.00     0.002 A 
ATOM     20  C   UNL d   1     -39.696  15.919  20.729  0.00  0.00     0.002 A 
ATOM     21  C   UNL d   1     -39.803  15.511  20.020  0.00  0.00     0.021 A 
BRANCH  17  22
ATOM     22  O   UNL d   1     -41.472  14.198  20.555  0.00  0.00    -0.304 OA
BRANCH  22  23
ATOM     23  C   UNL d   1     -41.795  13.871  21.236  0.00  0.00     0.123 C 
ATOM     24  C   UNL d   1     -42.257  13.189  21.192  0.00  0.00     0.029 C 
ENDBRANCH  22  23
ENDBRANCH  17  22
ENDBRANCH  14  16
ENDBRANCH   1  13
TORSDOF 8
ENDMDL
MODEL 8
REMARK VINA RESULT:      -3.9      7.249      9.634
REMARK  8 active torsions:
REMARK  status: ('A' for Active; 'I' for Inactive)
REMARK    1  A    between atoms: C_14  and  N_1 
REMARK    2  A    between atoms: N_9  and  C_2 
REMARK    3  A    between atoms: C_6  and  C_5 
REMARK    4  A    between atoms: C_7  and  C_6 
REMARK       I    between atoms: N_8  and  C_7 
REMARK    5  A    between atoms: C_10  and  N_8 
REMARK    6  A    between atoms: C_16  and  N_9 
REMARK    7  A    between atoms: O_15  and  C_13 
REMARK    8  A    between atoms: C_19  and  O_15 
ROOT
ATOM      1  C   UNL d   1     -39.053  15.855  19.672  0.00  0.00     0.074 C 
ENDROOT
BRANCH   1   2
ATOM      2  C   UNL d   1     -39.300  15.270  20.202  0.00  0.00     0.093 A 
ATOM      3  C   UNL d   1     -40.075  15.132  20.448  0.00  0.00     0.272 A 
ATOM      4  N   UNL d   1     -40.073  14.497  20.978  0.00  0.00    -0.252 N 
ATOM      5  O   UNL d   1     -40.742  15.558  20.207  0.00  0.00    -0.266 OA
ATOM      6  C   UNL d   1     -39.291  14.240  21.059  0.00  0.00     0.182 A 
ATOM      7  S   UNL d   1     -38.813  14.712  20.584  0.00  0.00    -0.045 SA
BRANCH   4   8
ATOM      8  C   UNL d   1     -40.734  14.184  21.351  0.00  0.00     0.085 C 
ATOM      9  C   UNL d   1     -41.387  14.659  21.507  0.00  0.00     0.021 C 
ENDBRANCH   4   8
BRANCH   6  10
ATOM     10  N   UNL d   1     -39.041  13.619  21.534  0.00  0.00    -0.221 NA
BRANCH  10  11
ATOM     11  C   UNL d   1     -38.253  13.553  21.758  0.00  0.00     0.101 C 
ATOM     12  C   UNL d   1     -37.953  12.839  22.047  0.00  0.00     0.022 C 
ENDBRANCH  10  11
ENDBRANCH   6  10
ENDBRANCH   1   2
BRANCH   1  13
ATOM     13  C   UNL d   1     -38.796  15.642  18.917  0.00  0.00     0.280 C 
ATOM     14  N   UNL d   1     -39.259  15.802  18.261  0.00  0.00    -0.206 NA
ATOM     15  O   UNL d   1     -38.069  15.266  18.832  0.00  0.00    -0.265 OA
BRANCH  14  16
ATOM     16  C   UNL d   1     -38.999  15.588  17.508  0.00  0.00     0.107 A 
ATOM     17  C   UNL d   1     -39.525  15.580  16.873  0.00  0.00     0.118 A 
ATOM     18  C   UNL d   1     -39.265  15.366  16.120  0.00  0.00     0.026 A 
ATOM     19  C   UNL d   1     -38.466  15.157  16.007  0.00  0.00     0.002 A 
ATOM     20  C   UNL d   1     -37.943  15.164  16.636  0.00  0.00     0.002 A 
ATOM     21  C   UNL d   1     -38.199  15.378  17.391  0.00  0.00     0.021 A 
BRANCH  17  22
ATOM     22  O   UNL d   1     -40.315  15.789  16.998  0.00  0.00    -0.304 OA
BRANCH  22  23
ATOM     23  C   UNL d   1     -40.881  15.590  16.437  0.00  0.00     0.123 C 
ATOM     24  C   UNL d   1     -41.637  15.922  16.472  0.00  0.00     0.029 C 
ENDBRANCH  22  23
ENDBRANCH  17  22
ENDBRANCH  14  16
ENDBRANCH   1  13
TORSDOF 8
ENDMDL
MODEL 9
REMARK VINA RESULT:      -3.8      7.180      9.677
REMARK  8 active torsions:
REMARK  status: ('A' for Active; 'I' for Inactive)
REMARK    1  A    between atoms: C_14  and  N_1 
REMARK    2  A    between atoms: N_9  and  C_2 
REMARK    3  A    between atoms: C_6  and  C_5 
REMARK    4  A    between atoms: C_7  and  C_6 
REMARK       I    between atoms: N_8  and  C_7 
REMARK    5  A    between atoms: C_10  and  N_8 
REMARK    6  A    between atoms: C_16  and  N_9 
REMARK    7  A    between atoms: O_15  and  C_13 
REMARK    8  A    between atoms: C_19  and  O_15 
ROOT
ATOM      1  C   UNL d   1     -37.983  14.825  20.006  0.00  0.00     0.074 C 
ENDROOT
BRANCH   1   2
ATOM      2  C   UNL d   1     -38.627  15.005  20.493  0.00  0.00     0.093 A 
ATOM      3  C   UNL d   1     -38.609  15.476  21.170  0.00  0.00     0.272 A 
ATOM      4  N   UNL d   1     -39.372  15.509  21.487  0.00  0.00    -0.252 N 
ATOM      5  O   UNL d   1     -37.940  15.852  21.479  0.00  0.00    -0.266 OA
ATOM      6  C   UNL d   1     -39.865  15.055  21.002  0.00  0.00     0.182 A 
ATOM      7  S   UNL d   1     -39.411  14.744  20.391  0.00  0.00    -0.045 SA
BRANCH   4   8
ATOM      8  C   UNL d   1     -39.591  15.922  22.163  0.00  0.00     0.085 C 
ATOM      9  C   UNL d   1     -39.115  15.903  22.833  0.00  0.00     0.021 C 
ENDBRANCH   4   8
BRANCH   6  10
ATOM     10  N   UNL d   1     -40.670  14.940  21.118  0.00  0.00    -0.221 NA
BRANCH  10  11
ATOM     11  C   UNL d   1     -41.048  14.280  20.806  0.00  0.00     0.101 C 
ATOM     12  C   UNL d   1     -41.856  14.158  20.928  0.00  0.00     0.022 C 
ENDBRANCH  10  11
ENDBRANCH   6  10
ENDBRANCH   1   2
BRANCH   1  13
ATOM     13  C   UNL d   1     -38.077  14.292  19.384  0.00  0.00     0.280 C 
ATOM     14  N   UNL d   1     -37.981  14.538  18.609  0.00  0.00    -0.206 NA
ATOM     15  O   UNL d   1     -38.268  13.509  19.551  0.00  0.00    -0.265 OA
BRANCH  14  16
ATOM     16  C   UNL d   1     -38.076  14.002  17.989  0.00  0.00     0.107 A 
ATOM     17  C   UNL d   1     -38.291  14.267  17.239  0.00  0.00     0.118 A 
ATOM     18  C   UNL d   1     -38.385  13.731  16.619  0.00  0.00     0.026 A 
ATOM     19  C   UNL d   1     -38.261  12.920  16.757  0.00  0.00     0.002 A 
ATOM     20  C   UNL d   1     -38.047  12.654  17.501  0.00  0.00     0.002 A 
ATOM     21  C   UNL d   1     -37.952  13.187  18.124  0.00  0.00     0.021 A 
BRANCH  17  22
ATOM     22  O   UNL d   1     -38.412  15.075  17.114  0.00  0.00    -0.304 OA
BRANCH  22  23
ATOM     23  C   UNL d   1     -38.686  15.337  16.385  0.00  0.00     0.123 C 
ATOM     24  C   UNL d   1     -39.273  15.917  16.344  0.00  0.00     0.029 C 
ENDBRANCH  22  23
ENDBRANCH  17  22
ENDBRANCH  14  16
ENDBRANCH   1  13
TORSDOF 8
ENDMDL
