MODEL 1
REMARK VINA RESULT:     -10.0      0.000      0.000
REMARK  3 active torsions:
REMARK  status: ('A' for Active; 'I' for Inactive)
REMARK    1  A    between atoms: C_8  and  C_6 
REMARK    2  A    between atoms: C_9  and  C_8 
REMARK       I    between atoms: N_10  and  C_9 
REMARK    3  A    between atoms: C_14  and  N_10 
ROOT
ATOM      1  N   UNL d   1      53.811  33.336  54.069  0.00  0.00    -0.207 NA
ATOM      2  N   UNL d   1      52.448  32.580  53.451  0.00  0.00    -0.240 NA
ATOM      3  C   UNL d   1      53.654  32.561  53.881  0.00  0.00     0.297 A 
ATOM      4  C   UNL d   1      53.329  34.002  54.009  0.00  0.00     0.086 A 
ATOM      5  C   UNL d   1      52.163  33.348  53.479  0.00  0.00     0.083 A 
ATOM      6  C   UNL d   1      53.191  32.308  53.672  0.00  0.00     0.144 A 
ATOM      7  C   UNL d   1      52.542  34.040  53.732  0.00  0.00     0.035 A 
ATOM      8  O   UNL d   1      54.270  32.035  54.014  0.00  0.00    -0.264 OA
ATOM      9  C   UNL d   1      52.153  34.767  53.716  0.00  0.00     0.003 A 
ATOM     10  C   UNL d   1      51.385  33.384  53.206  0.00  0.00     0.019 A 
ATOM     11  C   UNL d   1      53.710  34.691  54.262  0.00  0.00     0.019 A 
ATOM     12  C   UNL d   1      53.314  35.414  54.242  0.00  0.00     0.002 A 
ATOM     13  C   UNL d   1      50.984  34.120  53.186  0.00  0.00     0.002 A 
ATOM     14  C   UNL d   1      52.536  35.451  53.969  0.00  0.00     0.000 A 
ATOM     15  C   UNL d   1      51.367  34.804  53.440  0.00  0.00     0.000 A 
ENDROOT
BRANCH   6  16
ATOM     16  C   UNL d   1      53.285  31.497  53.569  0.00  0.00     0.086 C 
BRANCH  16  17
ATOM     17  C   UNL d   1      53.064  31.150  52.845  0.00  0.00     0.281 C 
ATOM     18  N   UNL d   1      52.942  30.334  52.800  0.00  0.00    -0.208 NA
ATOM     19  O   UNL d   1      52.967  31.617  52.172  0.00  0.00    -0.265 OA
BRANCH  18  20
ATOM     20  C   UNL d   1      53.038  29.861  53.471  0.00  0.00     0.085 A 
ATOM     21  C   UNL d   1      53.784  29.574  53.670  0.00  0.00     0.019 A 
ATOM     22  C   UNL d   1      53.876  29.104  54.340  0.00  0.00     0.002 A 
ATOM     23  C   UNL d   1      53.224  28.921  54.809  0.00  0.00     0.000 A 
ATOM     24  C   UNL d   1      52.474  29.212  54.606  0.00  0.00     0.002 A 
ATOM     25  C   UNL d   1      53.314  28.460  55.466  0.00  0.00     0.000 C 
ATOM     26  C   UNL d   1      52.386  29.681  53.936  0.00  0.00     0.019 A 
ENDBRANCH  18  20
ENDBRANCH  16  17
ENDBRANCH   6  16
TORSDOF 3
ENDMDL
MODEL 2
REMARK VINA RESULT:      -7.6      0.992      4.430
REMARK  3 active torsions:
REMARK  status: ('A' for Active; 'I' for Inactive)
REMARK    1  A    between atoms: C_8  and  C_6 
REMARK    2  A    between atoms: C_9  and  C_8 
REMARK       I    between atoms: N_10  and  C_9 
REMARK    3  A    between atoms: C_14  and  N_10 
ROOT
ATOM      1  N   UNL d   1      53.566  31.126  55.013  0.00  0.00    -0.207 NA
ATOM      2  N   UNL d   1      53.109  31.500  53.444  0.00  0.00    -0.240 NA
ATOM      3  C   UNL d   1      53.471  31.834  54.625  0.00  0.00     0.297 A 
ATOM      4  C   UNL d   1      53.462  30.356  54.739  0.00  0.00     0.086 A 
ATOM      5  C   UNL d   1      53.071  30.683  53.394  0.00  0.00     0.083 A 
ATOM      6  C   UNL d   1      53.316  31.957  54.094  0.00  0.00     0.144 A 
ATOM      7  C   UNL d   1      53.227  30.113  53.975  0.00  0.00     0.035 A 
ATOM      8  O   UNL d   1      53.624  32.505  55.075  0.00  0.00    -0.264 OA
ATOM      9  C   UNL d   1      53.155  29.308  53.811  0.00  0.00     0.003 A 
ATOM     10  C   UNL d   1      52.839  30.443  52.639  0.00  0.00     0.019 A 
ATOM     11  C   UNL d   1      53.619  29.791  55.321  0.00  0.00     0.019 A 
ATOM     12  C   UNL d   1      53.544  28.987  55.149  0.00  0.00     0.002 A 
ATOM     13  C   UNL d   1      52.764  29.626  52.465  0.00  0.00     0.002 A 
ATOM     14  C   UNL d   1      53.313  28.748  54.394  0.00  0.00     0.000 A 
ATOM     15  C   UNL d   1      52.921  29.066  53.048  0.00  0.00     0.000 A 
ENDROOT
BRANCH   6  16
ATOM     16  C   UNL d   1      53.294  32.767  53.942  0.00  0.00     0.086 C 
BRANCH  16  17
ATOM     17  C   UNL d   1      53.839  33.096  53.406  0.00  0.00     0.281 C 
ATOM     18  N   UNL d   1      53.608  33.721  52.917  0.00  0.00    -0.208 NA
ATOM     19  O   UNL d   1      54.608  32.801  53.360  0.00  0.00    -0.265 OA
BRANCH  18  20
ATOM     20  C   UNL d   1      52.839  34.020  52.959  0.00  0.00     0.085 A 
ATOM     21  C   UNL d   1      52.639  34.562  53.545  0.00  0.00     0.019 A 
ATOM     22  C   UNL d   1      51.871  34.858  53.584  0.00  0.00     0.002 A 
ATOM     23  C   UNL d   1      51.305  34.612  53.038  0.00  0.00     0.000 A 
ATOM     24  C   UNL d   1      51.511  34.065  52.448  0.00  0.00     0.002 A 
ATOM     25  C   UNL d   1      50.552  34.902  53.076  0.00  0.00     0.000 C 
ATOM     26  C   UNL d   1      52.278  33.772  52.413  0.00  0.00     0.019 A 
ENDBRANCH  18  20
ENDBRANCH  16  17
ENDBRANCH   6  16
TORSDOF 3
ENDMDL
MODEL 3
REMARK VINA RESULT:      -7.2      2.224      3.591
REMARK  3 active torsions:
REMARK  status: ('A' for Active; 'I' for Inactive)
REMARK    1  A    between atoms: C_8  and  C_6 
REMARK    2  A    between atoms: C_9  and  C_8 
REMARK       I    between atoms: N_10  and  C_9 
REMARK    3  A    between atoms: C_14  and  N_10 
ROOT
ATOM      1  N   UNL d   1      50.025  34.927  53.523  0.00  0.00    -0.207 NA
ATOM      2  N   UNL d   1      50.580  34.094  52.178  0.00  0.00    -0.240 NA
ATOM      3  C   UNL d   1      50.703  34.501  53.386  0.00  0.00     0.297 A 
ATOM      4  C   UNL d   1      49.388  35.081  53.024  0.00  0.00     0.086 A 
ATOM      5  C   UNL d   1      49.869  34.364  51.873  0.00  0.00     0.083 A 
ATOM      6  C   UNL d   1      50.888  34.220  52.929  0.00  0.00     0.144 A 
ATOM      7  C   UNL d   1      49.285  34.827  52.235  0.00  0.00     0.035 A 
ATOM      8  O   UNL d   1      51.227  34.460  54.017  0.00  0.00    -0.264 OA
ATOM      9  C   UNL d   1      48.601  35.043  51.826  0.00  0.00     0.003 A 
ATOM     10  C   UNL d   1      49.768  34.114  51.093  0.00  0.00     0.019 A 
ATOM     11  C   UNL d   1      48.807  35.543  53.387  0.00  0.00     0.019 A 
ATOM     12  C   UNL d   1      48.126  35.754  52.972  0.00  0.00     0.002 A 
ATOM     13  C   UNL d   1      49.076  34.329  50.673  0.00  0.00     0.002 A 
ATOM     14  C   UNL d   1      48.025  35.504  52.192  0.00  0.00     0.000 A 
ATOM     15  C   UNL d   1      48.499  34.789  51.038  0.00  0.00     0.000 A 
ENDROOT
BRANCH   6  16
ATOM     16  C   UNL d   1      51.621  33.862  53.044  0.00  0.00     0.086 C 
BRANCH  16  17
ATOM     17  C   UNL d   1      52.294  34.183  52.675  0.00  0.00     0.281 C 
ATOM     18  N   UNL d   1      52.993  33.743  52.639  0.00  0.00    -0.208 NA
ATOM     19  O   UNL d   1      52.267  34.939  52.345  0.00  0.00    -0.265 OA
BRANCH  18  20
ATOM     20  C   UNL d   1      53.025  32.986  52.968  0.00  0.00     0.085 A 
ATOM     21  C   UNL d   1      52.702  32.347  52.562  0.00  0.00     0.019 A 
ATOM     22  C   UNL d   1      52.736  31.593  52.893  0.00  0.00     0.002 A 
ATOM     23  C   UNL d   1      53.092  31.479  53.627  0.00  0.00     0.000 A 
ATOM     24  C   UNL d   1      53.417  32.127  54.033  0.00  0.00     0.002 A 
ATOM     25  C   UNL d   1      53.126  30.740  53.952  0.00  0.00     0.000 C 
ATOM     26  C   UNL d   1      53.381  32.878  53.699  0.00  0.00     0.019 A 
ENDBRANCH  18  20
ENDBRANCH  16  17
ENDBRANCH   6  16
TORSDOF 3
ENDMDL
MODEL 4
REMARK VINA RESULT:      -7.2      2.088      3.771
REMARK  3 active torsions:
REMARK  status: ('A' for Active; 'I' for Inactive)
REMARK    1  A    between atoms: C_8  and  C_6 
REMARK    2  A    between atoms: C_9  and  C_8 
REMARK       I    between atoms: N_10  and  C_9 
REMARK    3  A    between atoms: C_14  and  N_10 
ROOT
ATOM      1  N   UNL d   1      50.527  34.115  51.450  0.00  0.00    -0.207 NA
ATOM      2  N   UNL d   1      50.701  34.561  53.057  0.00  0.00    -0.240 NA
ATOM      3  C   UNL d   1      51.142  34.037  51.974  0.00  0.00     0.297 A 
ATOM      4  C   UNL d   1      49.780  34.447  51.557  0.00  0.00     0.086 A 
ATOM      5  C   UNL d   1      49.936  34.827  52.935  0.00  0.00     0.083 A 
ATOM      6  C   UNL d   1      51.198  34.189  52.518  0.00  0.00     0.144 A 
ATOM      7  C   UNL d   1      49.470  34.793  52.251  0.00  0.00     0.035 A 
ATOM      8  O   UNL d   1      51.815  33.673  51.676  0.00  0.00    -0.264 OA
ATOM      9  C   UNL d   1      48.703  35.097  52.244  0.00  0.00     0.003 A 
ATOM     10  C   UNL d   1      49.630  35.169  53.621  0.00  0.00     0.019 A 
ATOM     11  C   UNL d   1      49.318  34.412  50.872  0.00  0.00     0.019 A 
ATOM     12  C   UNL d   1      48.552  34.718  50.874  0.00  0.00     0.002 A 
ATOM     13  C   UNL d   1      48.852  35.480  53.621  0.00  0.00     0.002 A 
ATOM     14  C   UNL d   1      48.246  35.060  51.559  0.00  0.00     0.000 A 
ATOM     15  C   UNL d   1      48.395  35.443  52.937  0.00  0.00     0.000 A 
ENDROOT
BRANCH   6  16
ATOM     16  C   UNL d   1      51.934  33.997  52.834  0.00  0.00     0.086 C 
BRANCH  16  17
ATOM     17  C   UNL d   1      52.415  34.601  53.146  0.00  0.00     0.281 C 
ATOM     18  N   UNL d   1      53.091  34.406  53.579  0.00  0.00    -0.208 NA
ATOM     19  O   UNL d   1      52.219  35.393  53.025  0.00  0.00    -0.265 OA
BRANCH  18  20
ATOM     20  C   UNL d   1      53.292  33.614  53.703  0.00  0.00     0.085 A 
ATOM     21  C   UNL d   1      52.992  33.210  54.354  0.00  0.00     0.019 A 
ATOM     22  C   UNL d   1      53.193  32.421  54.475  0.00  0.00     0.002 A 
ATOM     23  C   UNL d   1      53.694  32.037  53.946  0.00  0.00     0.000 A 
ATOM     24  C   UNL d   1      53.995  32.447  53.290  0.00  0.00     0.002 A 
ATOM     25  C   UNL d   1      53.893  31.262  54.064  0.00  0.00     0.000 C 
ATOM     26  C   UNL d   1      53.791  33.235  53.173  0.00  0.00     0.019 A 
ENDBRANCH  18  20
ENDBRANCH  16  17
ENDBRANCH   6  16
TORSDOF 3
ENDMDL
