MODEL 1
REMARK VINA RESULT:      30.4      0.000      0.000
REMARK  5 active torsions:
REMARK  status: ('A' for Active; 'I' for Inactive)
REMARK    1  A    between atoms: C_4  and  S_1 
REMARK    2  A    between atoms: C_12  and  S_1 
REMARK    3  A    between atoms: C_3  and  C_6 
REMARK       I    between atoms: N_8  and  C_3 
REMARK    4  A    between atoms: C_6  and  C_4 
REMARK    5  A    between atoms: C_14  and  N_8 
ROOT
ATOM      1  C   UNL d   1      13.415  11.850  -3.528  0.00  0.00     0.280 C 
ATOM      2  N   UNL d   1      14.182  11.913  -3.220  0.00  0.00    -0.208 NA
ATOM      3  O   UNL d   1      12.769  11.780  -3.004  0.00  0.00    -0.265 OA
ENDROOT
BRANCH   1   4
ATOM      4  C   UNL d   1      13.286  11.856  -4.331  0.00  0.00     0.075 C 
BRANCH   4   5
ATOM      5  C   UNL d   1      12.903  12.413  -4.640  0.00  0.00     0.104 C 
BRANCH   5   6
ATOM      6  S   UNL d   1      13.126  13.214  -4.738  0.00  0.00     0.211 S 
ATOM      7  O   UNL d   1      13.470  13.037  -5.474  0.00  0.00    -0.217 OA
ATOM      8  O   UNL d   1      12.776  13.390  -3.990  0.00  0.00    -0.217 OA
BRANCH   6   9
ATOM      9  C   UNL d   1      13.342  14.007  -4.827  0.00  0.00     0.088 A 
ATOM     10  C   UNL d   1      12.962  14.593  -4.389  0.00  0.00     0.011 A 
ATOM     11  C   UNL d   1      13.178  15.389  -4.478  0.00  0.00     0.001 A 
ATOM     12  C   UNL d   1      13.775  15.591  -5.007  0.00  0.00     0.000 A 
ATOM     13  C   UNL d   1      14.164  15.014  -5.451  0.00  0.00     0.001 A 
ATOM     14  C   UNL d   1      13.945  14.216  -5.360  0.00  0.00     0.011 A 
ENDBRANCH   6   9
ENDBRANCH   5   6
ENDBRANCH   4   5
ENDBRANCH   1   4
BRANCH   2  15
ATOM     15  C   UNL d   1      14.306  11.905  -2.402  0.00  0.00     0.087 A 
ATOM     16  C   UNL d   1      15.073  11.859  -2.111  0.00  0.00     0.045 A 
ATOM     17  C   UNL d   1      15.197  11.852  -1.299  0.00  0.00     0.121 A 
ATOM     18  O   UNL d   1      15.897  11.809  -0.851  0.00  0.00    -0.299 OA
ATOM     19  C   UNL d   1      14.551  11.892  -0.786  0.00  0.00     0.119 A 
ATOM     20  C   UNL d   1      15.660  11.824  -0.057  0.00  0.00     0.304 A 
ATOM     21  O   UNL d   1      14.852  11.874  -0.015  0.00  0.00    -0.300 OA
ATOM     22  C   UNL d   1      13.790  11.938  -1.077  0.00  0.00     0.028 A 
ATOM     23  C   UNL d   1      13.668  11.945  -1.885  0.00  0.00     0.021 A 
ENDBRANCH   2  15
TORSDOF 5
ENDMDL
