MODEL 1
REMARK VINA RESULT:      -2.7      0.000      0.000
REMARK  5 active torsions:
REMARK  status: ('A' for Active; 'I' for Inactive)
REMARK    1  A    between atoms: N_6  and  C_1 
REMARK    2  A    between atoms: C_11  and  C_5 
REMARK       I    between atoms: C_7  and  N_8 
REMARK    3  A    between atoms: C_10  and  C_7 
REMARK    4  A    between atoms: O_27  and  C_14 
REMARK    5  A    between atoms: O_28  and  C_21 
ROOT
ATOM      1  C   UNL d   1      32.842  19.868 -22.589  0.00  0.00     0.197 A 
ATOM      2  C   UNL d   1      32.947  19.958 -23.413  0.00  0.00     0.191 A 
ATOM      3  O   UNL d   1      32.712  19.063 -22.433  0.00  0.00    -0.270 OA
ATOM      4  N   UNL d   1      32.879  19.211 -23.741  0.00  0.00    -0.208 NA
ATOM      5  C   UNL d   1      32.741  18.684 -23.166  0.00  0.00     0.185 A 
ATOM      6  C   UNL d   1      33.095  20.686 -23.830  0.00  0.00     0.124 C 
ATOM      7  N   UNL d   1      33.241  21.388 -24.253  0.00  0.00    -0.190 NA
ENDROOT
BRANCH   1   8
ATOM      8  N   UNL d   1      32.904  20.611 -22.215  0.00  0.00    -0.280 N 
ATOM      9  C   UNL d   1      33.026  21.293 -22.697  0.00  0.00     0.101 A 
ATOM     10  C   UNL d   1      33.088  22.037 -22.322  0.00  0.00     0.102 A 
ATOM     11  N   UNL d   1      33.029  22.097 -21.481  0.00  0.00    -0.267 N 
ATOM     12  C   UNL d   1      33.091  22.840 -21.107  0.00  0.00     0.288 C 
ATOM     13  C   UNL d   1      32.910  21.417 -21.026  0.00  0.00     0.102 A 
ATOM     14  O   UNL d   1      33.210  23.521 -21.562  0.00  0.00    -0.264 OA
ATOM     15  C   UNL d   1      32.849  20.674 -21.412  0.00  0.00     0.101 A 
BRANCH  12  16
ATOM     16  C   UNL d   1      33.033  22.901 -20.271  0.00  0.00     0.156 A 
ATOM     17  O   UNL d   1      33.193  22.367 -19.659  0.00  0.00    -0.300 OA
ATOM     18  C   UNL d   1      33.032  22.739 -18.960  0.00  0.00     0.123 A 
ATOM     19  C   UNL d   1      32.772  23.504 -19.097  0.00  0.00     0.029 A 
ATOM     20  C   UNL d   1      32.771  23.610 -19.916  0.00  0.00     0.032 A 
ENDBRANCH  12  16
ENDBRANCH   1   8
BRANCH   5  21
ATOM     21  C   UNL d   1      32.676  17.959 -23.492  0.00  0.00     0.043 A 
ATOM     22  C   UNL d   1      32.076  17.461 -23.284  0.00  0.00     0.030 A 
ATOM     23  C   UNL d   1      32.004  16.716 -23.613  0.00  0.00     0.116 A 
ATOM     24  C   UNL d   1      32.551  16.467 -24.168  0.00  0.00     0.116 A 
ATOM     25  C   UNL d   1      33.153  16.970 -24.374  0.00  0.00     0.026 A 
ATOM     26  C   UNL d   1      33.225  17.715 -24.044  0.00  0.00     0.006 A 
BRANCH  23  27
ATOM     27  O   UNL d   1      31.362  16.219 -23.372  0.00  0.00    -0.326 OA
ATOM     28  C   UNL d   1      30.584  16.429 -23.515  0.00  0.00     0.181 C 
ENDBRANCH  23  27
BRANCH  24  29
ATOM     29  O   UNL d   1      32.494  15.719 -24.511  0.00  0.00    -0.326 OA
ATOM     30  C   UNL d   1      33.046  15.472 -25.060  0.00  0.00     0.181 C 
ENDBRANCH  24  29
ENDBRANCH   5  21
TORSDOF 5
ENDMDL
MODEL 2
REMARK VINA RESULT:      -2.2      0.921      6.014
REMARK  5 active torsions:
REMARK  status: ('A' for Active; 'I' for Inactive)
REMARK    1  A    between atoms: N_6  and  C_1 
REMARK    2  A    between atoms: C_11  and  C_5 
REMARK       I    between atoms: C_7  and  N_8 
REMARK    3  A    between atoms: C_10  and  C_7 
REMARK    4  A    between atoms: O_27  and  C_14 
REMARK    5  A    between atoms: O_28  and  C_21 
ROOT
ATOM      1  C   UNL d   1      32.695  19.477 -22.683  0.00  0.00     0.197 A 
ATOM      2  C   UNL d   1      32.956  20.001 -23.279  0.00  0.00     0.191 A 
ATOM      3  O   UNL d   1      32.634  19.903 -21.973  0.00  0.00    -0.270 OA
ATOM      4  N   UNL d   1      33.048  20.732 -22.922  0.00  0.00    -0.208 NA
ATOM      5  C   UNL d   1      32.860  20.676 -22.156  0.00  0.00     0.185 A 
ATOM      6  C   UNL d   1      33.097  19.811 -24.097  0.00  0.00     0.124 C 
ATOM      7  N   UNL d   1      33.241  19.642 -24.900  0.00  0.00    -0.190 NA
ENDROOT
BRANCH   1   8
ATOM      8  N   UNL d   1      32.587  18.715 -23.006  0.00  0.00    -0.280 N 
ATOM      9  C   UNL d   1      33.240  18.179 -22.994  0.00  0.00     0.101 A 
ATOM     10  C   UNL d   1      33.132  17.417 -23.317  0.00  0.00     0.102 A 
ATOM     11  N   UNL d   1      32.387  17.194 -23.647  0.00  0.00    -0.267 N 
ATOM     12  C   UNL d   1      32.279  16.432 -23.970  0.00  0.00     0.288 C 
ATOM     13  C   UNL d   1      31.759  17.733 -23.649  0.00  0.00     0.102 A 
ATOM     14  O   UNL d   1      32.907  15.893 -23.967  0.00  0.00    -0.264 OA
ATOM     15  C   UNL d   1      31.877  18.497 -23.322  0.00  0.00     0.101 A 
BRANCH  12  16
ATOM     16  C   UNL d   1      31.539  16.210 -24.297  0.00  0.00     0.156 A 
ATOM     17  O   UNL d   1      31.103  16.497 -24.939  0.00  0.00    -0.300 OA
ATOM     18  C   UNL d   1      30.424  16.061 -24.990  0.00  0.00     0.123 A 
ATOM     19  C   UNL d   1      30.404  15.495 -24.398  0.00  0.00     0.029 A 
ATOM     20  C   UNL d   1      31.099  15.584 -23.962  0.00  0.00     0.032 A 
ENDBRANCH  12  16
ENDBRANCH   1   8
BRANCH   5  21
ATOM     21  C   UNL d   1      32.952  21.390 -21.815  0.00  0.00     0.043 A 
ATOM     22  C   UNL d   1      32.958  21.472 -21.012  0.00  0.00     0.030 A 
ATOM     23  C   UNL d   1      33.052  22.202 -20.656  0.00  0.00     0.116 A 
ATOM     24  C   UNL d   1      33.142  22.868 -21.122  0.00  0.00     0.116 A 
ATOM     25  C   UNL d   1      33.135  22.782 -21.928  0.00  0.00     0.026 A 
ATOM     26  C   UNL d   1      33.041  22.053 -22.284  0.00  0.00     0.006 A 
BRANCH  23  27
ATOM     27  O   UNL d   1      33.054  22.251 -19.811  0.00  0.00    -0.326 OA
ATOM     28  C   UNL d   1      33.151  21.585 -19.345  0.00  0.00     0.181 C 
ENDBRANCH  23  27
BRANCH  24  29
ATOM     29  O   UNL d   1      33.238  23.613 -20.780  0.00  0.00    -0.326 OA
ATOM     30  C   UNL d   1      33.241  23.700 -19.969  0.00  0.00     0.181 C 
ENDBRANCH  24  29
ENDBRANCH   5  21
TORSDOF 5
ENDMDL
