MODEL 1
REMARK VINA RESULT:      -5.2      0.000      0.000
REMARK  5 active torsions:
REMARK  status: ('A' for Active; 'I' for Inactive)
REMARK    1  A    between atoms: N_2  and  C_7 
REMARK    2  A    between atoms: N_8  and  C_3 
REMARK    3  A    between atoms: C_11  and  C_4 
REMARK    4  A    between atoms: N_9  and  N_8 
REMARK    5  A    between atoms: C_17  and  N_9 
ROOT
ATOM      1  N   UNL d   1      57.529  -0.668  30.616  0.00  0.00    -0.219 NA
ATOM      2  C   UNL d   1      58.083  -0.441  30.042  0.00  0.00     0.215 A 
ATOM      3  C   UNL d   1      57.401  -0.006  31.119  0.00  0.00     0.090 A 
ATOM      4  S   UNL d   1      58.288   0.333  30.187  0.00  0.00    -0.045 SA
ATOM      5  C   UNL d   1      57.869   0.604  30.850  0.00  0.00     0.058 A 
ENDROOT
BRANCH   3   6
ATOM      6  C   UNL d   1      56.875  -0.020  31.768  0.00  0.00     0.018 A 
ATOM      7  C   UNL d   1      56.613  -0.737  32.068  0.00  0.00     0.003 A 
ATOM      8  C   UNL d   1      56.106  -0.760  32.694  0.00  0.00     0.024 A 
ATOM      9  C   UNL d   1      55.846  -0.049  33.039  0.00  0.00     0.127 A 
ATOM     10  C   UNL d   1      56.103   0.661  32.746  0.00  0.00     0.024 A 
ATOM     11  C   UNL d   1      56.634   0.681  32.090  0.00  0.00     0.003 A 
BRANCH   9  12
ATOM     12  N   UNL d   1      55.334  -0.057  33.672  0.00  0.00    -0.114 N 
ATOM     13  O   UNL d   1      54.519   0.001  33.614  0.00  0.00    -0.532 OA
ATOM     14  O   UNL d   1      55.581  -0.123  34.435  0.00  0.00    -0.532 OA
ENDBRANCH   9  12
ENDBRANCH   3   6
BRANCH   2  15
ATOM     15  N   UNL d   1      58.399  -0.898  29.411  0.00  0.00    -0.122 NA
BRANCH  15  16
ATOM     16  N   UNL d   1      58.961  -1.483  29.587  0.00  0.00    -0.146 NA
BRANCH  16  17
ATOM     17  C   UNL d   1      59.240  -1.974  28.964  0.00  0.00     0.103 C 
ATOM     18  C   UNL d   1      59.881  -1.715  28.508  0.00  0.00     0.022 C 
ATOM     19  C   UNL d   1      58.879  -2.700  28.811  0.00  0.00     0.022 C 
ENDBRANCH  16  17
ENDBRANCH  15  16
ENDBRANCH   2  15
TORSDOF 5
ENDMDL
MODEL 2
REMARK VINA RESULT:      -3.7      1.109      1.473
REMARK  5 active torsions:
REMARK  status: ('A' for Active; 'I' for Inactive)
REMARK    1  A    between atoms: N_2  and  C_7 
REMARK    2  A    between atoms: N_8  and  C_3 
REMARK    3  A    between atoms: C_11  and  C_4 
REMARK    4  A    between atoms: N_9  and  N_8 
REMARK    5  A    between atoms: C_17  and  N_9 
ROOT
ATOM      1  N   UNL d   1      57.297   0.449  31.411  0.00  0.00    -0.219 NA
ATOM      2  C   UNL d   1      58.029   0.491  31.021  0.00  0.00     0.215 A 
ATOM      3  C   UNL d   1      57.443   0.570  32.231  0.00  0.00     0.090 A 
ATOM      4  S   UNL d   1      58.601   0.633  31.580  0.00  0.00    -0.045 SA
ATOM      5  C   UNL d   1      58.243   0.682  32.327  0.00  0.00     0.058 A 
ENDROOT
BRANCH   3   6
ATOM      6  C   UNL d   1      56.838   0.566  32.807  0.00  0.00     0.018 A 
ATOM      7  C   UNL d   1      56.058   0.452  32.583  0.00  0.00     0.003 A 
ATOM      8  C   UNL d   1      55.467   0.447  33.131  0.00  0.00     0.024 A 
ATOM      9  C   UNL d   1      55.652   0.560  33.934  0.00  0.00     0.127 A 
ATOM     10  C   UNL d   1      56.422   0.673  34.161  0.00  0.00     0.024 A 
ATOM     11  C   UNL d   1      57.037   0.677  33.583  0.00  0.00     0.003 A 
BRANCH   9  12
ATOM     12  N   UNL d   1      55.067   0.557  34.500  0.00  0.00    -0.114 N 
ATOM     13  O   UNL d   1      54.265   0.500  34.343  0.00  0.00    -0.532 OA
ATOM     14  O   UNL d   1      55.220   0.613  35.289  0.00  0.00    -0.532 OA
ENDBRANCH   9  12
ENDBRANCH   3   6
BRANCH   2  15
ATOM     15  N   UNL d   1      58.187   0.408  30.200  0.00  0.00    -0.122 NA
BRANCH  15  16
ATOM     16  N   UNL d   1      58.274  -0.356  29.887  0.00  0.00    -0.146 NA
BRANCH  16  17
ATOM     17  C   UNL d   1      58.527  -0.438  29.089  0.00  0.00     0.103 C 
ATOM     18  C   UNL d   1      58.967  -1.107  28.877  0.00  0.00     0.022 C 
ATOM     19  C   UNL d   1      58.340   0.139  28.530  0.00  0.00     0.022 C 
ENDBRANCH  16  17
ENDBRANCH  15  16
ENDBRANCH   2  15
TORSDOF 5
ENDMDL
MODEL 3
REMARK VINA RESULT:      -3.5      2.842      4.872
REMARK  5 active torsions:
REMARK  status: ('A' for Active; 'I' for Inactive)
REMARK    1  A    between atoms: N_2  and  C_7 
REMARK    2  A    between atoms: N_8  and  C_3 
REMARK    3  A    between atoms: C_11  and  C_4 
REMARK    4  A    between atoms: N_9  and  N_8 
REMARK    5  A    between atoms: C_17  and  N_9 
ROOT
ATOM      1  N   UNL d   1      57.740  -0.579  30.724  0.00  0.00    -0.219 NA
ATOM      2  C   UNL d   1      57.285   0.087  30.920  0.00  0.00     0.215 A 
ATOM      3  C   UNL d   1      58.219  -0.371  30.064  0.00  0.00     0.090 A 
ATOM      4  S   UNL d   1      57.478   0.682  30.401  0.00  0.00    -0.045 SA
ATOM      5  C   UNL d   1      58.053   0.403  29.872  0.00  0.00     0.058 A 
ENDROOT
BRANCH   3   6
ATOM      6  C   UNL d   1      58.755  -0.901  29.704  0.00  0.00     0.018 A 
ATOM      7  C   UNL d   1      59.493  -0.637  29.462  0.00  0.00     0.003 A 
ATOM      8  C   UNL d   1      60.017  -1.140  29.115  0.00  0.00     0.024 A 
ATOM      9  C   UNL d   1      59.806  -1.937  29.000  0.00  0.00     0.127 A 
ATOM     10  C   UNL d   1      59.079  -2.202  29.238  0.00  0.00     0.024 A 
ATOM     11  C   UNL d   1      58.532  -1.671  29.602  0.00  0.00     0.003 A 
BRANCH   9  12
ATOM     12  N   UNL d   1      60.325  -2.458  28.650  0.00  0.00    -0.114 N 
ATOM     13  O   UNL d   1      60.148  -3.234  28.455  0.00  0.00    -0.532 OA
ATOM     14  O   UNL d   1      61.081  -2.260  28.455  0.00  0.00    -0.532 OA
ENDBRANCH   9  12
ENDBRANCH   3   6
BRANCH   2  15
ATOM     15  N   UNL d   1      56.720   0.170  31.537  0.00  0.00    -0.122 NA
BRANCH  15  16
ATOM     16  N   UNL d   1      56.864  -0.208  32.262  0.00  0.00    -0.146 NA
BRANCH  16  17
ATOM     17  C   UNL d   1      56.219  -0.333  32.786  0.00  0.00     0.103 C 
ATOM     18  C   UNL d   1      55.859   0.324  33.140  0.00  0.00     0.022 C 
ATOM     19  C   UNL d   1      55.951  -1.097  32.944  0.00  0.00     0.022 C 
ENDBRANCH  16  17
ENDBRANCH  15  16
ENDBRANCH   2  15
TORSDOF 5
ENDMDL
MODEL 4
REMARK VINA RESULT:      -2.5      9.298      9.617
REMARK  5 active torsions:
REMARK  status: ('A' for Active; 'I' for Inactive)
REMARK    1  A    between atoms: N_2  and  C_7 
REMARK    2  A    between atoms: N_8  and  C_3 
REMARK    3  A    between atoms: C_11  and  C_4 
REMARK    4  A    between atoms: N_9  and  N_8 
REMARK    5  A    between atoms: C_17  and  N_9 
ROOT
ATOM      1  N   UNL d   1      58.583  -9.644  31.517  0.00  0.00    -0.219 NA
ATOM      2  C   UNL d   1      57.854  -9.761  31.137  0.00  0.00     0.215 A 
ATOM      3  C   UNL d   1      58.435  -9.631  32.346  0.00  0.00     0.090 A 
ATOM      4  S   UNL d   1      57.280  -9.818  31.711  0.00  0.00    -0.045 SA
ATOM      5  C   UNL d   1      57.636  -9.738  32.457  0.00  0.00     0.058 A 
ENDROOT
BRANCH   3   6
ATOM      6  C   UNL d   1      59.037  -9.524  32.914  0.00  0.00     0.018 A 
ATOM      7  C   UNL d   1      59.818  -9.682  32.721  0.00  0.00     0.003 A 
ATOM      8  C   UNL d   1      60.406  -9.582  33.262  0.00  0.00     0.024 A 
ATOM      9  C   UNL d   1      60.217  -9.314  34.027  0.00  0.00     0.127 A 
ATOM     10  C   UNL d   1      59.447  -9.156  34.224  0.00  0.00     0.024 A 
ATOM     11  C   UNL d   1      58.834  -9.263  33.652  0.00  0.00     0.003 A 
BRANCH   9  12
ATOM     12  N   UNL d   1      60.800  -9.208  34.586  0.00  0.00    -0.114 N 
ATOM     13  O   UNL d   1      61.115  -8.483  34.801  0.00  0.00    -0.532 OA
ATOM     14  O   UNL d   1      61.133  -9.817  34.994  0.00  0.00    -0.532 OA
ENDBRANCH   9  12
ENDBRANCH   3   6
BRANCH   2  15
ATOM     15  N   UNL d   1      57.698  -9.816  30.313  0.00  0.00    -0.122 NA
BRANCH  15  16
ATOM     16  N   UNL d   1      58.190  -9.404  29.787  0.00  0.00    -0.146 NA
BRANCH  16  17
ATOM     17  C   UNL d   1      58.043  -9.470  28.962  0.00  0.00     0.103 C 
ATOM     18  C   UNL d   1      58.635  -9.781  28.473  0.00  0.00     0.022 C 
ATOM     19  C   UNL d   1      57.319  -9.229  28.647  0.00  0.00     0.022 C 
ENDBRANCH  16  17
ENDBRANCH  15  16
ENDBRANCH   2  15
TORSDOF 5
ENDMDL
