MODEL 1
REMARK VINA RESULT:      -3.4      0.000      0.000
REMARK  5 active torsions:
REMARK  status: ('A' for Active; 'I' for Inactive)
REMARK    1  A    between atoms: C_6  and  C_1 
REMARK    2  A    between atoms: C_8  and  N_3 
REMARK    3  A    between atoms: C_7  and  C_6 
REMARK    4  A    between atoms: C_9  and  C_7 
REMARK    5  A    between atoms: C_14  and  C_8 
ROOT
ATOM      1  C   UNL d   1     -41.644-123.298 -51.690  0.00  0.00     0.148 A 
ATOM      2  N   UNL d   1     -41.737-123.817 -52.437  0.00  0.00    -0.227 NA
ATOM      3  N   UNL d   1     -41.465-122.454 -51.986  0.00  0.00    -0.289 N 
ATOM      4  C   UNL d   1     -41.447-122.445 -52.906  0.00  0.00     0.083 A 
ATOM      5  C   UNL d   1     -41.618-123.304 -53.190  0.00  0.00     0.099 A 
ATOM      6  C   UNL d   1     -41.299-121.776 -53.519  0.00  0.00     0.019 A 
ATOM      7  C   UNL d   1     -41.638-123.476 -54.081  0.00  0.00     0.021 A 
ATOM      8  C   UNL d   1     -41.323-121.974 -54.404  0.00  0.00     0.002 A 
ATOM      9  C   UNL d   1     -41.494-122.833 -54.688  0.00  0.00     0.002 A 
ENDROOT
BRANCH   1  10
ATOM     10  C   UNL d   1     -41.629-123.155 -50.923  0.00  0.00     0.037 C 
BRANCH  10  11
ATOM     11  C   UNL d   1     -41.945-123.649 -50.360  0.00  0.00     0.003 C 
BRANCH  11  12
ATOM     12  C   UNL d   1     -41.968-123.469 -49.567  0.00  0.00     0.000 A 
ATOM     13  C   UNL d   1     -42.654-123.218 -49.209  0.00  0.00     0.000 A 
ATOM     14  C   UNL d   1     -42.676-123.037 -48.417  0.00  0.00     0.000 A 
ATOM     15  C   UNL d   1     -41.989-123.110 -47.966  0.00  0.00     0.000 A 
ATOM     16  C   UNL d   1     -41.294-123.362 -48.318  0.00  0.00     0.000 A 
ATOM     17  C   UNL d   1     -41.281-123.541 -49.117  0.00  0.00     0.000 A 
ENDBRANCH  11  12
ENDBRANCH  10  11
ENDBRANCH   1  10
BRANCH   3  18
ATOM     18  C   UNL d   1     -41.305-121.691 -52.171  0.00  0.00     0.082 C 
BRANCH  18  19
ATOM     19  C   UNL d   1     -41.122-121.165 -51.557  0.00  0.00     0.019 C 
ATOM     20  C   UNL d   1     -41.141-120.355 -51.700  0.00  0.00     0.002 C 
ENDBRANCH  18  19
ENDBRANCH   3  18
TORSDOF 5
ENDMDL
MODEL 2
REMARK VINA RESULT:      -2.8      0.850      4.268
REMARK  5 active torsions:
REMARK  status: ('A' for Active; 'I' for Inactive)
REMARK    1  A    between atoms: C_6  and  C_1 
REMARK    2  A    between atoms: C_8  and  N_3 
REMARK    3  A    between atoms: C_7  and  C_6 
REMARK    4  A    between atoms: C_9  and  C_7 
REMARK    5  A    between atoms: C_14  and  C_8 
ROOT
ATOM      1  C   UNL d   1     -41.498-123.090 -52.309  0.00  0.00     0.148 A 
ATOM      2  N   UNL d   1     -41.575-123.769 -51.701  0.00  0.00    -0.227 NA
ATOM      3  N   UNL d   1     -41.319-122.336 -51.828  0.00  0.00    -0.289 N 
ATOM      4  C   UNL d   1     -41.285-122.540 -50.931  0.00  0.00     0.083 A 
ATOM      5  C   UNL d   1     -41.447-123.443 -50.852  0.00  0.00     0.099 A 
ATOM      6  C   UNL d   1     -41.130-122.030 -50.183  0.00  0.00     0.019 A 
ATOM      7  C   UNL d   1     -41.450-123.817 -50.025  0.00  0.00     0.021 A 
ATOM      8  C   UNL d   1     -41.139-122.428 -49.367  0.00  0.00     0.002 A 
ATOM      9  C   UNL d   1     -41.301-123.331 -49.288  0.00  0.00     0.002 A 
ENDROOT
BRANCH   1  10
ATOM     10  C   UNL d   1     -41.496-122.773 -53.023  0.00  0.00     0.037 C 
BRANCH  10  11
ATOM     11  C   UNL d   1     -41.884-123.089 -53.663  0.00  0.00     0.003 C 
BRANCH  11  12
ATOM     12  C   UNL d   1     -41.940-122.713 -54.383  0.00  0.00     0.000 A 
ATOM     13  C   UNL d   1     -42.604-122.295 -54.593  0.00  0.00     0.000 A 
ATOM     14  C   UNL d   1     -42.659-121.920 -55.312  0.00  0.00     0.000 A 
ATOM     15  C   UNL d   1     -42.027-121.965 -55.840  0.00  0.00     0.000 A 
ATOM     16  C   UNL d   1     -41.354-122.384 -55.638  0.00  0.00     0.000 A 
ATOM     17  C   UNL d   1     -41.308-122.759 -54.911  0.00  0.00     0.000 A 
ENDBRANCH  11  12
ENDBRANCH  10  11
ENDBRANCH   1  10
BRANCH   3  18
ATOM     18  C   UNL d   1     -41.160-121.635 -51.474  0.00  0.00     0.082 C 
BRANCH  18  19
ATOM     19  C   UNL d   1     -41.123-120.953 -51.944  0.00  0.00     0.019 C 
ATOM     20  C   UNL d   1     -41.134-120.214 -51.584  0.00  0.00     0.002 C 
ENDBRANCH  18  19
ENDBRANCH   3  18
TORSDOF 5
ENDMDL
MODEL 3
REMARK VINA RESULT:      -2.2      1.129      4.373
REMARK  5 active torsions:
REMARK  status: ('A' for Active; 'I' for Inactive)
REMARK    1  A    between atoms: C_6  and  C_1 
REMARK    2  A    between atoms: C_8  and  N_3 
REMARK    3  A    between atoms: C_7  and  C_6 
REMARK    4  A    between atoms: C_9  and  C_7 
REMARK    5  A    between atoms: C_14  and  C_8 
ROOT
ATOM      1  C   UNL d   1     -41.598-123.088 -50.503  0.00  0.00     0.148 A 
ATOM      2  N   UNL d   1     -41.137-123.523 -49.844  0.00  0.00    -0.227 NA
ATOM      3  N   UNL d   1     -42.372-122.791 -50.122  0.00  0.00    -0.289 N 
ATOM      4  C   UNL d   1     -42.395-123.037 -49.235  0.00  0.00     0.083 A 
ATOM      5  C   UNL d   1     -41.617-123.497 -49.060  0.00  0.00     0.099 A 
ATOM      6  C   UNL d   1     -43.014-122.904 -48.569  0.00  0.00     0.019 A 
ATOM      7  C   UNL d   1     -41.474-123.816 -48.223  0.00  0.00     0.021 A 
ATOM      8  C   UNL d   1     -42.848-123.232 -47.740  0.00  0.00     0.002 A 
ATOM      9  C   UNL d   1     -42.070-123.693 -47.564  0.00  0.00     0.002 A 
ENDROOT
BRANCH   1  10
ATOM     10  C   UNL d   1     -41.716-122.816 -51.226  0.00  0.00     0.037 C 
BRANCH  10  11
ATOM     11  C   UNL d   1     -41.133-122.745 -51.787  0.00  0.00     0.003 C 
BRANCH  11  12
ATOM     12  C   UNL d   1     -41.252-122.895 -52.578  0.00  0.00     0.000 A 
ATOM     13  C   UNL d   1     -41.488-122.308 -53.090  0.00  0.00     0.000 A 
ATOM     14  C   UNL d   1     -41.607-122.458 -53.880  0.00  0.00     0.000 A 
ATOM     15  C   UNL d   1     -41.484-123.221 -54.169  0.00  0.00     0.000 A 
ATOM     16  C   UNL d   1     -41.246-123.817 -53.662  0.00  0.00     0.000 A 
ATOM     17  C   UNL d   1     -41.129-123.657 -52.868  0.00  0.00     0.000 A 
ENDBRANCH  11  12
ENDBRANCH  10  11
ENDBRANCH   1  10
BRANCH   3  18
ATOM     18  C   UNL d   1     -43.070-122.501 -49.857  0.00  0.00     0.082 C 
BRANCH  18  19
ATOM     19  C   UNL d   1     -43.444-121.906 -50.296  0.00  0.00     0.019 C 
ATOM     20  C   UNL d   1     -44.259-121.931 -50.399  0.00  0.00     0.002 C 
ENDBRANCH  18  19
ENDBRANCH   3  18
TORSDOF 5
ENDMDL
