MODEL 1
REMARK VINA RESULT:      43.2      0.000      0.000
REMARK  6 active torsions:
REMARK  status: ('A' for Active; 'I' for Inactive)
REMARK    1  A    between atoms: C_10  and  C_3 
REMARK    2  A    between atoms: N_12  and  C_4 
REMARK    3  A    between atoms: N_11  and  C_14 
REMARK    4  A    between atoms: C_19  and  N_12 
REMARK    5  A    between atoms: C_14  and  C_15 
REMARK    6  A    between atoms: C_15  and  C_19 
ROOT
ATOM      1  C   UNL d   1     -51.154  25.736  33.332  0.00  0.00     0.167 A 
ATOM      2  N   UNL d   1     -50.382  26.026  33.343  0.00  0.00    -0.195 N 
ATOM      3  C   UNL d   1     -51.114  24.917  33.334  0.00  0.00     0.057 A 
ATOM      4  C   UNL d   1     -50.247  26.838  33.343  0.00  0.00     0.167 A 
ATOM      5  N   UNL d   1     -49.872  25.383  33.352  0.00  0.00    -0.161 NA
ATOM      6  N   UNL d   1     -51.791  26.258  33.321  0.00  0.00    -0.227 NA
ATOM      7  C   UNL d   1     -50.889  27.363  33.332  0.00  0.00     0.058 A 
ATOM      8  C   UNL d   1     -50.317  24.705  33.347  0.00  0.00     0.124 A 
ATOM      9  C   UNL d   1     -51.653  27.076  33.321  0.00  0.00     0.086 A 
ATOM     10  C   UNL d   1     -52.277  27.617  33.311  0.00  0.00     0.021 C 
ENDROOT
BRANCH   4  11
ATOM     11  N   UNL d   1     -49.475  27.129  33.354  0.00  0.00    -0.225 NA
BRANCH  11  12
ATOM     12  C   UNL d   1     -49.334  27.924  33.519  0.00  0.00     0.102 C 
BRANCH  12  13
ATOM     13  C   UNL d   1     -48.802  28.138  34.124  0.00  0.00     0.040 C 
BRANCH  13  14
ATOM     14  C   UNL d   1     -48.920  28.834  34.544  0.00  0.00     0.082 C 
BRANCH  14  15
ATOM     15  N   UNL d   1     -48.293  29.170  34.969  0.00  0.00    -0.299 N 
ATOM     16  C   UNL d   1     -47.831  29.768  34.626  0.00  0.00     0.107 A 
ATOM     17  C   UNL d   1     -47.207  30.103  35.049  0.00  0.00     0.142 A 
ATOM     18  O   UNL d   1     -47.041  29.842  35.815  0.00  0.00    -0.300 OA
ATOM     19  C   UNL d   1     -47.498  29.248  36.157  0.00  0.00     0.142 A 
ATOM     20  C   UNL d   1     -48.122  28.913  35.735  0.00  0.00     0.107 A 
ENDBRANCH  14  15
ENDBRANCH  13  14
ENDBRANCH  12  13
ENDBRANCH  11  12
ENDBRANCH   4  11
BRANCH   3  21
ATOM     21  C   UNL d   1     -51.805  24.462  33.325  0.00  0.00     0.004 A 
ATOM     22  C   UNL d   1     -51.758  23.646  33.324  0.00  0.00     0.000 A 
ATOM     23  C   UNL d   1     -52.439  23.188  33.314  0.00  0.00     0.000 A 
ATOM     24  C   UNL d   1     -53.183  23.565  33.306  0.00  0.00     0.000 A 
ATOM     25  C   UNL d   1     -53.220  24.389  33.307  0.00  0.00     0.000 A 
ATOM     26  C   UNL d   1     -52.539  24.832  33.316  0.00  0.00     0.000 A 
ENDBRANCH   3  21
TORSDOF 6
ENDMDL
MODEL 2
REMARK VINA RESULT:      44.5      0.720      1.495
REMARK  6 active torsions:
REMARK  status: ('A' for Active; 'I' for Inactive)
REMARK    1  A    between atoms: C_10  and  C_3 
REMARK    2  A    between atoms: N_12  and  C_4 
REMARK    3  A    between atoms: N_11  and  C_14 
REMARK    4  A    between atoms: C_19  and  N_12 
REMARK    5  A    between atoms: C_14  and  C_15 
REMARK    6  A    between atoms: C_15  and  C_19 
ROOT
ATOM      1  C   UNL d   1     -51.178  25.328  33.324  0.00  0.00     0.167 A 
ATOM      2  N   UNL d   1     -50.816  26.069  33.330  0.00  0.00    -0.195 N 
ATOM      3  C   UNL d   1     -51.990  25.445  33.326  0.00  0.00     0.057 A 
ATOM      4  C   UNL d   1     -49.994  26.126  33.329  0.00  0.00     0.167 A 
ATOM      5  N   UNL d   1     -51.407  26.637  33.337  0.00  0.00    -0.161 NA
ATOM      6  N   UNL d   1     -50.719  24.644  33.316  0.00  0.00    -0.227 NA
ATOM      7  C   UNL d   1     -49.533  25.437  33.322  0.00  0.00     0.058 A 
ATOM      8  C   UNL d   1     -52.125  26.259  33.335  0.00  0.00     0.124 A 
ATOM      9  C   UNL d   1     -49.891  24.704  33.315  0.00  0.00     0.086 A 
ATOM     10  C   UNL d   1     -49.412  24.031  33.307  0.00  0.00     0.021 C 
ENDROOT
BRANCH   4  11
ATOM     11  N   UNL d   1     -49.632  26.868  33.336  0.00  0.00    -0.225 NA
BRANCH  11  12
ATOM     12  C   UNL d   1     -49.503  27.258  34.050  0.00  0.00     0.102 C 
BRANCH  12  13
ATOM     13  C   UNL d   1     -49.108  27.992  34.060  0.00  0.00     0.040 C 
BRANCH  13  14
ATOM     14  C   UNL d   1     -48.432  28.086  34.518  0.00  0.00     0.082 C 
BRANCH  14  15
ATOM     15  N   UNL d   1     -48.234  28.836  34.810  0.00  0.00    -0.299 N 
ATOM     16  C   UNL d   1     -48.462  29.518  34.396  0.00  0.00     0.107 A 
ATOM     17  C   UNL d   1     -48.264  30.265  34.687  0.00  0.00     0.142 A 
ATOM     18  O   UNL d   1     -47.838  30.333  35.392  0.00  0.00    -0.300 OA
ATOM     19  C   UNL d   1     -47.611  29.657  35.804  0.00  0.00     0.142 A 
ATOM     20  C   UNL d   1     -47.808  28.911  35.514  0.00  0.00     0.107 A 
ENDBRANCH  14  15
ENDBRANCH  13  14
ENDBRANCH  12  13
ENDBRANCH  11  12
ENDBRANCH   4  11
BRANCH   3  21
ATOM     21  C   UNL d   1     -52.509  24.800  33.321  0.00  0.00     0.004 A 
ATOM     22  C   UNL d   1     -52.214  24.039  33.321  0.00  0.00     0.000 A 
ATOM     23  C   UNL d   1     -52.722  23.394  33.316  0.00  0.00     0.000 A 
ATOM     24  C   UNL d   1     -53.546  23.525  33.310  0.00  0.00     0.000 A 
ATOM     25  C   UNL d   1     -53.834  24.299  33.310  0.00  0.00     0.000 A 
ATOM     26  C   UNL d   1     -53.320  24.929  33.315  0.00  0.00     0.000 A 
ENDBRANCH   3  21
TORSDOF 6
ENDMDL
