MODEL 1
REMARK VINA RESULT:      76.2      0.000      0.000
REMARK  8 active torsions:
REMARK  status: ('A' for Active; 'I' for Inactive)
REMARK    1  A    between atoms: N_5  and  S_1 
REMARK    2  A    between atoms: C_8  and  S_1 
REMARK    3  A    between atoms: C_2  and  N_10 
REMARK    4  A    between atoms: C_9  and  N_5 
REMARK    5  A    between atoms: C_13  and  C_9 
REMARK    6  A    between atoms: N_10  and  O_14 
REMARK    7  A    between atoms: C_17  and  C_13 
REMARK    8  A    between atoms: O_14  and  C_17 
ROOT
ATOM      1  C   UNL d   1     -55.725-100.070 -43.965  0.00  0.00     0.193 C 
ENDROOT
BRANCH   1   2
ATOM      2  O   UNL d   1     -55.904 -99.378 -43.551  0.00  0.00    -0.206 OA
BRANCH   2   3
ATOM      3  N   UNL d   1     -56.299 -98.755 -43.935  0.00  0.00    -0.126 NA
BRANCH   3   4
ATOM      4  C   UNL d   1     -57.124 -98.762 -43.992  0.00  0.00     0.108 A 
ATOM      5  C   UNL d   1     -57.568 -98.769 -44.694  0.00  0.00     0.020 A 
ATOM      6  C   UNL d   1     -58.364 -98.774 -44.485  0.00  0.00     0.002 A 
ATOM      7  C   UNL d   1     -57.338 -98.773 -45.479  0.00  0.00     0.002 A 
ATOM      8  C   UNL d   1     -58.942 -98.782 -45.081  0.00  0.00     0.000 A 
ATOM      9  C   UNL d   1     -58.424 -98.769 -43.669  0.00  0.00     0.002 A 
ATOM     10  C   UNL d   1     -58.713 -98.785 -45.871  0.00  0.00     0.000 A 
ATOM     11  C   UNL d   1     -57.909 -98.781 -46.075  0.00  0.00     0.000 A 
ATOM     12  C   UNL d   1     -57.658 -98.762 -43.357  0.00  0.00     0.020 A 
ATOM     13  C   UNL d   1     -59.069 -98.771 -43.162  0.00  0.00     0.000 A 
ATOM     14  C   UNL d   1     -57.538 -98.756 -42.543  0.00  0.00     0.002 A 
ATOM     15  C   UNL d   1     -58.192 -98.757 -42.033  0.00  0.00     0.000 A 
ATOM     16  C   UNL d   1     -58.957 -98.765 -42.348  0.00  0.00     0.000 A 
ENDBRANCH   3   4
ENDBRANCH   2   3
ENDBRANCH   1   2
BRANCH   1  17
ATOM     17  C   UNL d   1     -55.477-100.739 -43.558  0.00  0.00     0.240 C 
ATOM     18  O   UNL d   1     -55.761-100.890 -42.797  0.00  0.00    -0.283 OA
BRANCH  17  19
ATOM     19  C   UNL d   1     -55.047-101.442 -43.459  0.00  0.00     0.136 C 
BRANCH  19  20
ATOM     20  N   UNL d   1     -55.416-102.091 -43.098  0.00  0.00    -0.225 N 
ATOM     21  C   UNL d   1     -55.977-102.626 -43.369  0.00  0.00     0.111 C 
BRANCH  20  22
ATOM     22  S   UNL d   1     -55.227-102.292 -42.318  0.00  0.00     0.272 S 
ATOM     23  O   UNL d   1     -54.762-102.829 -42.752  0.00  0.00    -0.200 OA
ATOM     24  O   UNL d   1     -55.598-101.860 -41.723  0.00  0.00    -0.200 OA
BRANCH  22  25
ATOM     25  C   UNL d   1     -55.208-102.299 -41.494  0.00  0.00     0.104 A 
ATOM     26  C   UNL d   1     -54.752-101.743 -41.088  0.00  0.00     0.013 A 
ATOM     27  C   UNL d   1     -54.732-101.750 -40.268  0.00  0.00     0.007 A 
ATOM     28  C   UNL d   1     -55.171-102.316 -39.845  0.00  0.00     0.035 A 
ATOM     29  C   UNL d   1     -55.615-102.854 -40.301  0.00  0.00     0.007 A 
ATOM     30 BR   UNL d   1     -55.167-102.342 -39.023  0.00  0.00    -0.049 Br
ATOM     31  C   UNL d   1     -55.659-102.878 -41.123  0.00  0.00     0.013 A 
ENDBRANCH  22  25
ENDBRANCH  20  22
ENDBRANCH  19  20
ENDBRANCH  17  19
ENDBRANCH   1  17
TORSDOF 8
ENDMDL
