MODEL 1
REMARK VINA RESULT:     -10.6      0.000      0.000
REMARK  4 active torsions:
REMARK  status: ('A' for Active; 'I' for Inactive)
REMARK    1  A    between atoms: N_2  and  C_1 
REMARK    2  A    between atoms: C_3  and  C_1 
REMARK       I    between atoms: C_6  and  N_2 
REMARK    3  A    between atoms: S_9  and  C_6 
REMARK    4  A    between atoms: C_14  and  S_9 
ROOT
ATOM      1  C   UNL d   1      53.864  33.022  54.204  0.00  0.00     0.385 A 
ATOM      2  O   UNL d   1      54.045  33.579  54.768  0.00  0.00    -0.283 OA
ATOM      3  O   UNL d   1      53.298  33.356  53.687  0.00  0.00    -0.283 OA
ATOM      4  C   UNL d   1      53.143  34.122  53.952  0.00  0.00     0.121 A 
ATOM      5  C   UNL d   1      53.610  34.261  54.627  0.00  0.00     0.121 A 
ATOM      6  C   UNL d   1      53.571  34.980  55.009  0.00  0.00     0.026 A 
ATOM      7  C   UNL d   1      52.646  34.703  53.671  0.00  0.00     0.026 A 
ATOM      8  C   UNL d   1      52.609  35.434  54.064  0.00  0.00     0.002 A 
ATOM      9  C   UNL d   1      53.062  35.569  54.720  0.00  0.00     0.002 A 
ENDROOT
BRANCH   1  10
ATOM     10  N   UNL d   1      54.129  32.238  54.068  0.00  0.00    -0.171 NA
ATOM     11  C   UNL d   1      53.782  31.783  53.473  0.00  0.00     0.310 C 
ATOM     12  O   UNL d   1      53.178  32.093  53.013  0.00  0.00    -0.258 OA
BRANCH  11  13
ATOM     13  S   UNL d   1      54.046  31.009  53.342  0.00  0.00    -0.026 SA
BRANCH  13  14
ATOM     14  C   UNL d   1      53.541  30.371  53.476  0.00  0.00     0.034 A 
ATOM     15  C   UNL d   1      52.895  30.243  52.979  0.00  0.00     0.007 A 
ATOM     16  C   UNL d   1      52.392  29.605  53.114  0.00  0.00     0.001 A 
ATOM     17  C   UNL d   1      52.535  29.093  53.746  0.00  0.00     0.000 A 
ATOM     18  C   UNL d   1      53.179  29.216  54.245  0.00  0.00     0.001 A 
ATOM     19  C   UNL d   1      53.683  29.858  54.107  0.00  0.00     0.007 A 
ENDBRANCH  13  14
ENDBRANCH  11  13
ENDBRANCH   1  10
BRANCH   1  20
ATOM     20  C   UNL d   1      54.351  33.090  54.861  0.00  0.00     0.470 C 
ATOM     21  F   UNL d   1      54.856  33.163  55.515  0.00  0.00    -0.164 F 
ATOM     22  F   UNL d   1      54.973  33.340  54.359  0.00  0.00    -0.164 F 
ATOM     23  F   UNL d   1      53.737  32.844  55.348  0.00  0.00    -0.164 F 
ENDBRANCH   1  20
TORSDOF 4
ENDMDL
MODEL 2
REMARK VINA RESULT:      -9.8      1.738      4.037
REMARK  4 active torsions:
REMARK  status: ('A' for Active; 'I' for Inactive)
REMARK    1  A    between atoms: N_2  and  C_1 
REMARK    2  A    between atoms: C_3  and  C_1 
REMARK       I    between atoms: C_6  and  N_2 
REMARK    3  A    between atoms: S_9  and  C_6 
REMARK    4  A    between atoms: C_14  and  S_9 
ROOT
ATOM      1  C   UNL d   1      53.078  32.066  53.369  0.00  0.00     0.385 A 
ATOM      2  O   UNL d   1      53.659  31.674  53.782  0.00  0.00    -0.283 OA
ATOM      3  O   UNL d   1      52.578  31.491  53.026  0.00  0.00    -0.283 OA
ATOM      4  C   UNL d   1      52.869  30.749  53.241  0.00  0.00     0.121 A 
ATOM      5  C   UNL d   1      53.545  30.864  53.714  0.00  0.00     0.121 A 
ATOM      6  C   UNL d   1      53.950  30.222  54.008  0.00  0.00     0.026 A 
ATOM      7  C   UNL d   1      52.611  29.995  53.072  0.00  0.00     0.026 A 
ATOM      8  C   UNL d   1      53.028  29.344  53.374  0.00  0.00     0.002 A 
ATOM      9  C   UNL d   1      53.684  29.455  53.833  0.00  0.00     0.002 A 
ENDROOT
BRANCH   1  10
ATOM     10  N   UNL d   1      52.915  32.878  53.241  0.00  0.00    -0.171 NA
ATOM     11  C   UNL d   1      52.284  33.101  52.759  0.00  0.00     0.310 C 
ATOM     12  O   UNL d   1      51.814  32.531  52.401  0.00  0.00    -0.258 OA
BRANCH  11  13
ATOM     13  S   UNL d   1      52.125  33.904  52.636  0.00  0.00    -0.026 SA
BRANCH  13  14
ATOM     14  C   UNL d   1      51.347  34.167  52.565  0.00  0.00     0.034 A 
ATOM     15  C   UNL d   1      50.981  34.186  51.827  0.00  0.00     0.007 A 
ATOM     16  C   UNL d   1      50.203  34.449  51.758  0.00  0.00     0.001 A 
ATOM     17  C   UNL d   1      49.790  34.693  52.430  0.00  0.00     0.000 A 
ATOM     18  C   UNL d   1      50.151  34.676  53.171  0.00  0.00     0.001 A 
ATOM     19  C   UNL d   1      50.932  34.412  53.237  0.00  0.00     0.007 A 
ENDBRANCH  13  14
ENDBRANCH  11  13
ENDBRANCH   1  10
BRANCH   1  20
ATOM     20  C   UNL d   1      53.734  32.252  53.826  0.00  0.00     0.470 C 
ATOM     21  F   UNL d   1      54.387  32.442  54.302  0.00  0.00    -0.164 F 
ATOM     22  F   UNL d   1      53.244  32.257  54.505  0.00  0.00    -0.164 F 
ATOM     23  F   UNL d   1      54.210  32.247  53.156  0.00  0.00    -0.164 F 
ENDBRANCH   1  20
TORSDOF 4
ENDMDL
MODEL 3
REMARK VINA RESULT:      -9.0      1.677      4.398
REMARK  4 active torsions:
REMARK  status: ('A' for Active; 'I' for Inactive)
REMARK    1  A    between atoms: N_2  and  C_1 
REMARK    2  A    between atoms: C_3  and  C_1 
REMARK       I    between atoms: C_6  and  N_2 
REMARK    3  A    between atoms: S_9  and  C_6 
REMARK    4  A    between atoms: C_14  and  S_9 
ROOT
ATOM      1  C   UNL d   1      53.295  30.972  53.503  0.00  0.00     0.385 A 
ATOM      2  O   UNL d   1      53.118  30.228  53.226  0.00  0.00    -0.283 OA
ATOM      3  O   UNL d   1      53.460  30.907  54.320  0.00  0.00    -0.283 OA
ATOM      4  C   UNL d   1      53.378  30.113  54.526  0.00  0.00     0.121 A 
ATOM      5  C   UNL d   1      53.165  29.688  53.842  0.00  0.00     0.121 A 
ATOM      6  C   UNL d   1      53.046  28.883  53.882  0.00  0.00     0.026 A 
ATOM      7  C   UNL d   1      53.469  29.725  55.237  0.00  0.00     0.026 A 
ATOM      8  C   UNL d   1      53.347  28.905  55.273  0.00  0.00     0.002 A 
ATOM      9  C   UNL d   1      53.140  28.492  54.609  0.00  0.00     0.002 A 
ENDROOT
BRANCH   1  10
ATOM     10  N   UNL d   1      53.335  31.725  53.136  0.00  0.00    -0.171 NA
ATOM     11  C   UNL d   1      53.615  32.376  53.559  0.00  0.00     0.310 C 
ATOM     12  O   UNL d   1      53.854  32.291  54.340  0.00  0.00    -0.258 OA
BRANCH  11  13
ATOM     13  S   UNL d   1      53.653  33.117  53.194  0.00  0.00    -0.026 SA
BRANCH  13  14
ATOM     14  C   UNL d   1      53.275  33.767  53.533  0.00  0.00     0.034 A 
ATOM     15  C   UNL d   1      53.598  34.135  54.197  0.00  0.00     0.007 A 
ATOM     16  C   UNL d   1      53.219  34.783  54.535  0.00  0.00     0.001 A 
ATOM     17  C   UNL d   1      52.515  35.065  54.209  0.00  0.00     0.000 A 
ATOM     18  C   UNL d   1      52.187  34.702  53.546  0.00  0.00     0.001 A 
ATOM     19  C   UNL d   1      52.570  34.050  53.208  0.00  0.00     0.007 A 
ENDBRANCH  13  14
ENDBRANCH  11  13
ENDBRANCH   1  10
BRANCH   1  20
ATOM     20  C   UNL d   1      53.087  30.619  52.792  0.00  0.00     0.470 C 
ATOM     21  F   UNL d   1      52.860  30.265  52.076  0.00  0.00    -0.164 F 
ATOM     22  F   UNL d   1      52.282  30.774  52.964  0.00  0.00    -0.164 F 
ATOM     23  F   UNL d   1      53.878  30.469  52.628  0.00  0.00    -0.164 F 
ENDBRANCH   1  20
TORSDOF 4
ENDMDL
