MODEL 1
REMARK VINA RESULT:      -2.8      0.000      0.000
REMARK  4 active torsions:
REMARK  status: ('A' for Active; 'I' for Inactive)
REMARK    1  A    between atoms: N_14  and  C_6 
REMARK    2  A    between atoms: C_19  and  N_14 
REMARK    3  A    between atoms: O_17  and  C_20 
REMARK    4  A    between atoms: C_20  and  C_19 
ROOT
ATOM      1  N   UNL d   1      58.056  -1.459  30.198  0.00  0.00    -0.183 N 
ATOM      2  C   UNL d   1      57.862  -0.744  30.573  0.00  0.00     0.169 A 
ATOM      3  C   UNL d   1      57.333  -0.730  31.197  0.00  0.00     0.073 A 
ATOM      4  C   UNL d   1      57.001  -1.435  31.445  0.00  0.00     0.185 A 
ATOM      5  N   UNL d   1      57.195  -2.150  31.071  0.00  0.00    -0.142 NA
ATOM      6  C   UNL d   1      58.585  -1.453  29.576  0.00  0.00     0.218 A 
ATOM      7  N   UNL d   1      58.202  -0.043  30.314  0.00  0.00    -0.226 NA
ATOM      8  C   UNL d   1      57.141  -0.023  31.567  0.00  0.00     0.007 A 
ATOM      9  N   UNL d   1      56.464  -1.437  32.077  0.00  0.00    -0.225 NA
ATOM     10  C   UNL d   1      58.925  -0.761  29.317  0.00  0.00     0.071 A 
ATOM     11  C   UNL d   1      56.614  -0.009  32.192  0.00  0.00     0.019 A 
ATOM     12  C   UNL d   1      58.731  -0.046  29.691  0.00  0.00     0.087 A 
ATOM     13  C   UNL d   1      56.270  -0.722  32.451  0.00  0.00     0.083 A 
ATOM     14  C   UNL d   1      57.484   0.681  31.307  0.00  0.00     0.000 C 
ATOM     15  C   UNL d   1      59.087   0.681  29.420  0.00  0.00     0.021 C 
ATOM     16  C   UNL d   1      55.744  -0.716  33.072  0.00  0.00     0.021 C 
ENDROOT
BRANCH   6  17
ATOM     17  N   UNL d   1      58.780  -2.194  29.196  0.00  0.00    -0.378 NA
BRANCH  17  18
ATOM     18  C   UNL d   1      59.042  -2.825  28.697  0.00  0.00     0.189 C 
BRANCH  18  19
ATOM     19  C   UNL d   1      59.578  -3.410  28.997  0.00  0.00     0.151 C 
BRANCH  19  20
ATOM     20  O   UNL d   1      59.862  -4.019  28.492  0.00  0.00    -0.323 OA
ATOM     21  C   UNL d   1      60.692  -4.212  28.455  0.00  0.00     0.182 C 
ENDBRANCH  19  20
ENDBRANCH  18  19
ENDBRANCH  17  18
ENDBRANCH   6  17
TORSDOF 4
ENDMDL
MODEL 2
REMARK VINA RESULT:      -2.7      8.795      9.296
REMARK  4 active torsions:
REMARK  status: ('A' for Active; 'I' for Inactive)
REMARK    1  A    between atoms: N_14  and  C_6 
REMARK    2  A    between atoms: C_19  and  N_14 
REMARK    3  A    between atoms: O_17  and  C_20 
REMARK    4  A    between atoms: C_20  and  C_19 
ROOT
ATOM      1  N   UNL d   1      58.813  -9.752  32.267  0.00  0.00    -0.183 N 
ATOM      2  C   UNL d   1      58.931  -9.774  31.446  0.00  0.00     0.169 A 
ATOM      3  C   UNL d   1      58.294  -9.782  30.932  0.00  0.00     0.073 A 
ATOM      4  C   UNL d   1      57.539  -9.767  31.245  0.00  0.00     0.185 A 
ATOM      5  N   UNL d   1      57.420  -9.745  32.066  0.00  0.00    -0.142 NA
ATOM      6  C   UNL d   1      59.461  -9.745  32.764  0.00  0.00     0.218 A 
ATOM      7  N   UNL d   1      59.695  -9.789  31.144  0.00  0.00    -0.226 NA
ATOM      8  C   UNL d   1      58.411  -9.803  30.120  0.00  0.00     0.007 A 
ATOM      9  N   UNL d   1      56.883  -9.774  30.738  0.00  0.00    -0.225 NA
ATOM     10  C   UNL d   1      60.219  -9.759  32.470  0.00  0.00     0.071 A 
ATOM     11  C   UNL d   1      57.775  -9.811  29.607  0.00  0.00     0.019 A 
ATOM     12  C   UNL d   1      60.338  -9.781  31.649  0.00  0.00     0.087 A 
ATOM     13  C   UNL d   1      57.002  -9.796  29.917  0.00  0.00     0.083 A 
ATOM     14  C   UNL d   1      59.179  -9.818  29.818  0.00  0.00     0.000 C 
ATOM     15  C   UNL d   1      61.133  -9.796  31.338  0.00  0.00     0.021 C 
ATOM     16  C   UNL d   1      56.363  -9.804  29.411  0.00  0.00     0.021 C 
ENDROOT
BRANCH   6  17
ATOM     17  N   UNL d   1      59.330  -9.723  33.609  0.00  0.00    -0.378 NA
BRANCH  17  18
ATOM     18  C   UNL d   1      59.371  -9.735  34.454  0.00  0.00     0.189 C 
BRANCH  18  19
ATOM     19  C   UNL d   1      59.338  -9.010  34.892  0.00  0.00     0.151 C 
BRANCH  19  20
ATOM     20  O   UNL d   1      59.215  -9.026  35.724  0.00  0.00    -0.323 OA
ATOM     21  C   UNL d   1      59.609  -8.473  36.240  0.00  0.00     0.182 C 
ENDBRANCH  19  20
ENDBRANCH  18  19
ENDBRANCH  17  18
ENDBRANCH   6  17
TORSDOF 4
ENDMDL
MODEL 3
REMARK VINA RESULT:      -2.0      8.706      8.953
REMARK  4 active torsions:
REMARK  status: ('A' for Active; 'I' for Inactive)
REMARK    1  A    between atoms: N_14  and  C_6 
REMARK    2  A    between atoms: C_19  and  N_14 
REMARK    3  A    between atoms: O_17  and  C_20 
REMARK    4  A    between atoms: C_20  and  C_19 
ROOT
ATOM      1  N   UNL d   1      58.934  -9.718  31.145  0.00  0.00    -0.183 N 
ATOM      2  C   UNL d   1      59.643  -9.703  31.576  0.00  0.00     0.169 A 
ATOM      3  C   UNL d   1      59.634  -9.656  32.393  0.00  0.00     0.073 A 
ATOM      4  C   UNL d   1      58.912  -9.624  32.776  0.00  0.00     0.185 A 
ATOM      5  N   UNL d   1      58.203  -9.639  32.345  0.00  0.00    -0.142 NA
ATOM      6  C   UNL d   1      58.963  -9.765  30.330  0.00  0.00     0.218 A 
ATOM      7  N   UNL d   1      60.362  -9.736  31.180  0.00  0.00    -0.226 NA
ATOM      8  C   UNL d   1      60.335  -9.641  32.819  0.00  0.00     0.007 A 
ATOM      9  N   UNL d   1      58.887  -9.576  33.602  0.00  0.00    -0.225 NA
ATOM     10  C   UNL d   1      59.672  -9.798  29.933  0.00  0.00     0.071 A 
ATOM     11  C   UNL d   1      60.327  -9.594  33.635  0.00  0.00     0.019 A 
ATOM     12  C   UNL d   1      60.381  -9.783  30.364  0.00  0.00     0.087 A 
ATOM     13  C   UNL d   1      59.596  -9.561  34.033  0.00  0.00     0.083 A 
ATOM     14  C   UNL d   1      61.057  -9.674  32.420  0.00  0.00     0.000 C 
ATOM     15  C   UNL d   1      61.127  -9.817  29.949  0.00  0.00     0.021 C 
ATOM     16  C   UNL d   1      59.580  -9.514  34.846  0.00  0.00     0.021 C 
ENDROOT
BRANCH   6  17
ATOM     17  N   UNL d   1      58.227  -9.780  29.893  0.00  0.00    -0.378 NA
BRANCH  17  18
ATOM     18  C   UNL d   1      57.603  -9.779  29.322  0.00  0.00     0.189 C 
BRANCH  18  19
ATOM     19  C   UNL d   1      56.802  -9.649  29.568  0.00  0.00     0.151 C 
BRANCH  19  20
ATOM     20  O   UNL d   1      56.247  -9.313  29.033  0.00  0.00    -0.323 OA
ATOM     21  C   UNL d   1      55.842  -9.794  28.456  0.00  0.00     0.182 C 
ENDBRANCH  19  20
ENDBRANCH  18  19
ENDBRANCH  17  18
ENDBRANCH   6  17
TORSDOF 4
ENDMDL
MODEL 4
REMARK VINA RESULT:      -1.1      2.859      4.799
REMARK  4 active torsions:
REMARK  status: ('A' for Active; 'I' for Inactive)
REMARK    1  A    between atoms: N_14  and  C_6 
REMARK    2  A    between atoms: C_19  and  N_14 
REMARK    3  A    between atoms: O_17  and  C_20 
REMARK    4  A    between atoms: C_20  and  C_19 
ROOT
ATOM      1  N   UNL d   1      57.343   0.349  31.884  0.00  0.00    -0.183 N 
ATOM      2  C   UNL d   1      58.130   0.451  31.641  0.00  0.00     0.169 A 
ATOM      3  C   UNL d   1      58.326   0.444  30.847  0.00  0.00     0.073 A 
ATOM      4  C   UNL d   1      57.732   0.335  30.297  0.00  0.00     0.185 A 
ATOM      5  N   UNL d   1      56.945   0.232  30.539  0.00  0.00    -0.142 NA
ATOM      6  C   UNL d   1      57.166   0.358  32.681  0.00  0.00     0.218 A 
ATOM      7  N   UNL d   1      58.719   0.560  32.204  0.00  0.00    -0.226 NA
ATOM      8  C   UNL d   1      59.105   0.545  30.608  0.00  0.00     0.007 A 
ATOM      9  N   UNL d   1      57.915   0.325  29.489  0.00  0.00    -0.225 NA
ATOM     10  C   UNL d   1      57.745   0.466  33.241  0.00  0.00     0.071 A 
ATOM     11  C   UNL d   1      59.302   0.538  29.814  0.00  0.00     0.019 A 
ATOM     12  C   UNL d   1      58.532   0.569  32.999  0.00  0.00     0.087 A 
ATOM     13  C   UNL d   1      58.702   0.427  29.247  0.00  0.00     0.083 A 
ATOM     14  C   UNL d   1      59.696   0.655  31.174  0.00  0.00     0.000 C 
ATOM     15  C   UNL d   1      59.142   0.682  33.587  0.00  0.00     0.021 C 
ATOM     16  C   UNL d   1      58.891   0.420  28.455  0.00  0.00     0.021 C 
ENDROOT
BRANCH   6  17
ATOM     17  N   UNL d   1      56.351   0.252  32.922  0.00  0.00    -0.378 NA
BRANCH  17  18
ATOM     18  C   UNL d   1      55.612   0.024  33.264  0.00  0.00     0.189 C 
BRANCH  18  19
ATOM     19  C   UNL d   1      55.063   0.615  33.523  0.00  0.00     0.151 C 
BRANCH  19  20
ATOM     20  O   UNL d   1      54.673   0.532  34.264  0.00  0.00    -0.323 OA
ATOM     21  C   UNL d   1      53.829   0.635  34.333  0.00  0.00     0.182 C 
ENDBRANCH  19  20
ENDBRANCH  18  19
ENDBRANCH  17  18
ENDBRANCH   6  17
TORSDOF 4
ENDMDL
MODEL 5
REMARK VINA RESULT:      -0.6      1.537      2.188
REMARK  4 active torsions:
REMARK  status: ('A' for Active; 'I' for Inactive)
REMARK    1  A    between atoms: N_14  and  C_6 
REMARK    2  A    between atoms: C_19  and  N_14 
REMARK    3  A    between atoms: O_17  and  C_20 
REMARK    4  A    between atoms: C_20  and  C_19 
ROOT
ATOM      1  N   UNL d   1      57.874   0.238  31.158  0.00  0.00    -0.183 N 
ATOM      2  C   UNL d   1      57.921   0.380  31.974  0.00  0.00     0.169 A 
ATOM      3  C   UNL d   1      57.247   0.376  32.438  0.00  0.00     0.073 A 
ATOM      4  C   UNL d   1      56.526   0.230  32.081  0.00  0.00     0.185 A 
ATOM      5  N   UNL d   1      56.479   0.088  31.265  0.00  0.00    -0.142 NA
ATOM      6  C   UNL d   1      58.558   0.246  30.711  0.00  0.00     0.218 A 
ATOM      7  N   UNL d   1      58.651   0.525  32.321  0.00  0.00    -0.226 NA
ATOM      8  C   UNL d   1      57.294   0.516  33.245  0.00  0.00     0.007 A 
ATOM      9  N   UNL d   1      55.835   0.223  32.537  0.00  0.00    -0.225 NA
ATOM     10  C   UNL d   1      59.282   0.389  31.050  0.00  0.00     0.071 A 
ATOM     11  C   UNL d   1      56.621   0.512  33.709  0.00  0.00     0.019 A 
ATOM     12  C   UNL d   1      59.330   0.531  31.866  0.00  0.00     0.087 A 
ATOM     13  C   UNL d   1      55.882   0.364  33.354  0.00  0.00     0.083 A 
ATOM     14  C   UNL d   1      58.028   0.662  33.593  0.00  0.00     0.000 C 
ATOM     15  C   UNL d   1      60.090   0.682  32.224  0.00  0.00     0.021 C 
ATOM     16  C   UNL d   1      55.207   0.359  33.810  0.00  0.00     0.021 C 
ENDROOT
BRANCH   6  17
ATOM     17  N   UNL d   1      58.500   0.099  29.870  0.00  0.00    -0.378 NA
BRANCH  17  18
ATOM     18  C   UNL d   1      58.325  -0.166  29.086  0.00  0.00     0.189 C 
BRANCH  18  19
ATOM     19  C   UNL d   1      58.841  -0.715  28.697  0.00  0.00     0.151 C 
BRANCH  19  20
ATOM     20  O   UNL d   1      58.670  -1.538  28.715  0.00  0.00    -0.323 OA
ATOM     21  C   UNL d   1      59.255  -2.117  28.491  0.00  0.00     0.182 C 
ENDBRANCH  19  20
ENDBRANCH  18  19
ENDBRANCH  17  18
ENDBRANCH   6  17
TORSDOF 4
ENDMDL
MODEL 6
REMARK VINA RESULT:      -0.0      2.248      2.712
REMARK  4 active torsions:
REMARK  status: ('A' for Active; 'I' for Inactive)
REMARK    1  A    between atoms: N_14  and  C_6 
REMARK    2  A    between atoms: C_19  and  N_14 
REMARK    3  A    between atoms: O_17  and  C_20 
REMARK    4  A    between atoms: C_20  and  C_19 
ROOT
ATOM      1  N   UNL d   1      58.348   0.680  31.615  0.00  0.00    -0.183 N 
ATOM      2  C   UNL d   1      57.533   0.679  31.774  0.00  0.00     0.169 A 
ATOM      3  C   UNL d   1      57.258   0.680  32.544  0.00  0.00     0.073 A 
ATOM      4  C   UNL d   1      57.801   0.681  33.155  0.00  0.00     0.185 A 
ATOM      5  N   UNL d   1      58.616   0.682  32.997  0.00  0.00    -0.142 NA
ATOM      6  C   UNL d   1      58.603   0.679  30.839  0.00  0.00     0.218 A 
ATOM      7  N   UNL d   1      56.996   0.677  31.152  0.00  0.00    -0.226 NA
ATOM      8  C   UNL d   1      56.452   0.679  32.701  0.00  0.00     0.007 A 
ATOM      9  N   UNL d   1      57.539   0.682  33.941  0.00  0.00    -0.225 NA
ATOM     10  C   UNL d   1      58.076   0.678  30.221  0.00  0.00     0.071 A 
ATOM     11  C   UNL d   1      56.177   0.679  33.471  0.00  0.00     0.019 A 
ATOM     12  C   UNL d   1      57.262   0.677  30.379  0.00  0.00     0.087 A 
ATOM     13  C   UNL d   1      56.724   0.681  34.099  0.00  0.00     0.083 A 
ATOM     14  C   UNL d   1      55.914   0.677  32.075  0.00  0.00     0.000 C 
ATOM     15  C   UNL d   1      56.707   0.675  29.730  0.00  0.00     0.021 C 
ATOM     16  C   UNL d   1      56.457   0.681  34.868  0.00  0.00     0.021 C 
ENDROOT
BRANCH   6  17
ATOM     17  N   UNL d   1      59.445   0.680  30.685  0.00  0.00    -0.378 NA
BRANCH  17  18
ATOM     18  C   UNL d   1      60.228   0.678  30.365  0.00  0.00     0.189 C 
BRANCH  18  19
ATOM     19  C   UNL d   1      60.559  -0.040  30.057  0.00  0.00     0.151 C 
BRANCH  19  20
ATOM     20  O   UNL d   1      60.862  -0.060  29.272  0.00  0.00    -0.323 OA
ATOM     21  C   UNL d   1      60.946  -0.797  28.850  0.00  0.00     0.182 C 
ENDBRANCH  19  20
ENDBRANCH  18  19
ENDBRANCH  17  18
ENDBRANCH   6  17
TORSDOF 4
ENDMDL
