MODEL 1
REMARK VINA RESULT:      -4.1      0.000      0.000
REMARK  3 active torsions:
REMARK  status: ('A' for Active; 'I' for Inactive)
REMARK    1  A    between atoms: C_7  and  C_2 
REMARK    2  A    between atoms: N_5  and  C_8 
REMARK    3  A    between atoms: C_9  and  C_7 
ROOT
ATOM      1  C   UNL d   1      55.635  -0.434  33.431  0.00  0.00     0.127 A 
ATOM      2  C   UNL d   1      56.250  -0.354  32.881  0.00  0.00     0.023 A 
ATOM      3  C   UNL d   1      56.518  -1.013  32.468  0.00  0.00     0.002 A 
ATOM      4  C   UNL d   1      55.295  -1.165  33.563  0.00  0.00     0.024 A 
ATOM      5  C   UNL d   1      56.177  -1.753  32.600  0.00  0.00     0.000 A 
ATOM      6  C   UNL d   1      55.563  -1.824  33.151  0.00  0.00     0.002 A 
ENDROOT
BRANCH   2   7
ATOM      7  C   UNL d   1      56.588   0.383  32.751  0.00  0.00     0.013 C 
BRANCH   7   8
ATOM      8  C   UNL d   1      57.146   0.482  32.149  0.00  0.00     0.092 A 
ATOM      9  C   UNL d   1      57.954   0.619  32.251  0.00  0.00     0.288 A 
ATOM     10  N   UNL d   1      58.293   0.680  31.500  0.00  0.00    -0.163 NA
ATOM     11  O   UNL d   1      58.346   0.682  32.973  0.00  0.00    -0.265 OA
ATOM     12  C   UNL d   1      57.703   0.583  30.939  0.00  0.00     0.313 A 
ATOM     13  S   UNL d   1      56.992   0.460  31.336  0.00  0.00    -0.021 SA
ATOM     14  O   UNL d   1      57.803   0.604  30.120  0.00  0.00    -0.258 OA
ENDBRANCH   7   8
ENDBRANCH   2   7
BRANCH   1  15
ATOM     15  N   UNL d   1      55.366   0.230  33.845  0.00  0.00    -0.114 N 
ATOM     16  O   UNL d   1      55.714   0.445  34.562  0.00  0.00    -0.532 OA
ATOM     17  O   UNL d   1      54.743   0.682  33.537  0.00  0.00    -0.532 OA
ENDBRANCH   1  15
TORSDOF 3
ENDMDL
MODEL 2
REMARK VINA RESULT:      -3.9      1.253      1.705
REMARK  3 active torsions:
REMARK  status: ('A' for Active; 'I' for Inactive)
REMARK    1  A    between atoms: C_7  and  C_2 
REMARK    2  A    between atoms: N_5  and  C_8 
REMARK    3  A    between atoms: C_9  and  C_7 
ROOT
ATOM      1  C   UNL d   1      55.774   0.232  33.857  0.00  0.00     0.127 A 
ATOM      2  C   UNL d   1      56.346   0.178  33.260  0.00  0.00     0.023 A 
ATOM      3  C   UNL d   1      57.127   0.377  33.422  0.00  0.00     0.002 A 
ATOM      4  C   UNL d   1      55.985   0.483  34.606  0.00  0.00     0.024 A 
ATOM      5  C   UNL d   1      57.343   0.631  34.177  0.00  0.00     0.000 A 
ATOM      6  C   UNL d   1      56.766   0.682  34.768  0.00  0.00     0.002 A 
ENDROOT
BRANCH   2   7
ATOM      7  C   UNL d   1      56.129  -0.074  32.508  0.00  0.00     0.013 C 
BRANCH   7   8
ATOM      8  C   UNL d   1      56.694  -0.114  31.907  0.00  0.00     0.092 A 
ATOM      9  C   UNL d   1      56.919  -0.792  31.494  0.00  0.00     0.288 A 
ATOM     10  N   UNL d   1      57.498  -0.570  30.947  0.00  0.00    -0.163 NA
ATOM     11  O   UNL d   1      56.620  -1.551  31.611  0.00  0.00    -0.265 OA
ATOM     12  C   UNL d   1      57.629   0.235  31.019  0.00  0.00     0.313 A 
ATOM     13  S   UNL d   1      57.134   0.522  31.611  0.00  0.00    -0.021 SA
ATOM     14  O   UNL d   1      58.163   0.682  30.576  0.00  0.00    -0.258 OA
ENDBRANCH   7   8
ENDBRANCH   2   7
BRANCH   1  15
ATOM     15  N   UNL d   1      54.988   0.031  33.693  0.00  0.00    -0.114 N 
ATOM     16  O   UNL d   1      54.734  -0.752  33.756  0.00  0.00    -0.532 OA
ATOM     17  O   UNL d   1      54.453   0.621  33.462  0.00  0.00    -0.532 OA
ENDBRANCH   1  15
TORSDOF 3
ENDMDL
MODEL 3
REMARK VINA RESULT:      -2.8      9.150      9.827
REMARK  3 active torsions:
REMARK  status: ('A' for Active; 'I' for Inactive)
REMARK    1  A    between atoms: C_7  and  C_2 
REMARK    2  A    between atoms: N_5  and  C_8 
REMARK    3  A    between atoms: C_9  and  C_7 
ROOT
ATOM      1  C   UNL d   1      59.904  -8.274  35.599  0.00  0.00     0.127 A 
ATOM      2  C   UNL d   1      59.984  -8.812  34.973  0.00  0.00     0.023 A 
ATOM      3  C   UNL d   1      60.524  -9.429  35.031  0.00  0.00     0.002 A 
ATOM      4  C   UNL d   1      60.360  -8.356  36.272  0.00  0.00     0.024 A 
ATOM      5  C   UNL d   1      60.986  -9.515  35.709  0.00  0.00     0.000 A 
ATOM      6  C   UNL d   1      60.900  -8.973  36.330  0.00  0.00     0.002 A 
ENDROOT
BRANCH   2   7
ATOM      7  C   UNL d   1      59.524  -8.725  34.298  0.00  0.00     0.013 C 
BRANCH   7   8
ATOM      8  C   UNL d   1      59.736  -9.114  33.601  0.00  0.00     0.092 A 
ATOM      9  C   UNL d   1      59.222  -9.505  33.085  0.00  0.00     0.288 A 
ATOM     10  N   UNL d   1      59.676  -9.810  32.466  0.00  0.00    -0.163 NA
ATOM     11  O   UNL d   1      58.407  -9.575  33.177  0.00  0.00    -0.265 OA
ATOM     12  C   UNL d   1      60.460  -9.611  32.594  0.00  0.00     0.313 A 
ATOM     13  S   UNL d   1      60.502  -9.181  33.295  0.00  0.00    -0.021 SA
ATOM     14  O   UNL d   1      61.097  -9.807  32.107  0.00  0.00    -0.258 OA
ENDBRANCH   7   8
ENDBRANCH   2   7
BRANCH   1  15
ATOM     15  N   UNL d   1      59.360  -7.653  35.538  0.00  0.00    -0.114 N 
ATOM     16  O   UNL d   1      58.573  -7.762  35.766  0.00  0.00    -0.532 OA
ATOM     17  O   UNL d   1      59.606  -6.917  35.247  0.00  0.00    -0.532 OA
ENDBRANCH   1  15
TORSDOF 3
ENDMDL
MODEL 4
REMARK VINA RESULT:      -2.7      3.305      5.143
REMARK  3 active torsions:
REMARK  status: ('A' for Active; 'I' for Inactive)
REMARK    1  A    between atoms: C_7  and  C_2 
REMARK    2  A    between atoms: N_5  and  C_8 
REMARK    3  A    between atoms: C_9  and  C_7 
ROOT
ATOM      1  C   UNL d   1      60.021  -2.185  29.008  0.00  0.00     0.127 A 
ATOM      2  C   UNL d   1      59.332  -1.724  29.041  0.00  0.00     0.023 A 
ATOM      3  C   UNL d   1      58.597  -2.081  28.952  0.00  0.00     0.002 A 
ATOM      4  C   UNL d   1      59.970  -2.992  28.887  0.00  0.00     0.024 A 
ATOM      5  C   UNL d   1      58.542  -2.896  28.830  0.00  0.00     0.000 A 
ATOM      6  C   UNL d   1      59.234  -3.348  28.798  0.00  0.00     0.002 A 
ENDROOT
BRANCH   2   7
ATOM      7  C   UNL d   1      59.388  -0.914  29.163  0.00  0.00     0.013 C 
BRANCH   7   8
ATOM      8  C   UNL d   1      58.750  -0.500  29.485  0.00  0.00     0.092 A 
ATOM      9  C   UNL d   1      58.390   0.169  29.161  0.00  0.00     0.288 A 
ATOM     10  N   UNL d   1      57.779   0.394  29.669  0.00  0.00    -0.163 NA
ATOM     11  O   UNL d   1      58.604   0.539  28.457  0.00  0.00    -0.265 OA
ATOM     12  C   UNL d   1      57.760  -0.127  30.302  0.00  0.00     0.313 A 
ATOM     13  S   UNL d   1      58.359  -0.682  30.192  0.00  0.00    -0.021 SA
ATOM     14  O   UNL d   1      57.234  -0.103  30.937  0.00  0.00    -0.258 OA
ENDBRANCH   7   8
ENDBRANCH   2   7
BRANCH   1  15
ATOM     15  N   UNL d   1      60.760  -1.824  29.098  0.00  0.00    -0.114 N 
ATOM     16  O   UNL d   1      61.127  -1.457  28.456  0.00  0.00    -0.532 OA
ATOM     17  O   UNL d   1      61.133  -1.831  29.838  0.00  0.00    -0.532 OA
ENDBRANCH   1  15
TORSDOF 3
ENDMDL
MODEL 5
REMARK VINA RESULT:      -1.8      3.133      5.063
REMARK  3 active torsions:
REMARK  status: ('A' for Active; 'I' for Inactive)
REMARK    1  A    between atoms: C_7  and  C_2 
REMARK    2  A    between atoms: N_5  and  C_8 
REMARK    3  A    between atoms: C_9  and  C_7 
ROOT
ATOM      1  C   UNL d   1      59.757  -2.128  29.075  0.00  0.00     0.127 A 
ATOM      2  C   UNL d   1      59.475  -1.353  29.161  0.00  0.00     0.023 A 
ATOM      3  C   UNL d   1      60.003  -0.723  29.157  0.00  0.00     0.002 A 
ATOM      4  C   UNL d   1      60.558  -2.266  28.987  0.00  0.00     0.024 A 
ATOM      5  C   UNL d   1      60.813  -0.859  29.069  0.00  0.00     0.000 A 
ATOM      6  C   UNL d   1      61.086  -1.636  28.984  0.00  0.00     0.002 A 
ENDROOT
BRANCH   2   7
ATOM      7  C   UNL d   1      58.669  -1.220  29.249  0.00  0.00     0.013 C 
BRANCH   7   8
ATOM      8  C   UNL d   1      58.404  -0.554  29.659  0.00  0.00     0.092 A 
ATOM      9  C   UNL d   1      57.982   0.080  29.338  0.00  0.00     0.288 A 
ATOM     10  N   UNL d   1      57.835   0.616  29.949  0.00  0.00    -0.163 NA
ATOM     11  O   UNL d   1      57.752   0.158  28.551  0.00  0.00    -0.265 OA
ATOM     12  C   UNL d   1      58.161   0.320  30.641  0.00  0.00     0.313 A 
ATOM     13  S   UNL d   1      58.514  -0.403  30.466  0.00  0.00    -0.021 SA
ATOM     14  O   UNL d   1      58.140   0.681  31.382  0.00  0.00    -0.258 OA
ENDBRANCH   7   8
ENDBRANCH   2   7
BRANCH   1  15
ATOM     15  N   UNL d   1      59.225  -2.761  29.079  0.00  0.00    -0.114 N 
ATOM     16  O   UNL d   1      59.227  -3.307  29.698  0.00  0.00    -0.532 OA
ATOM     17  O   UNL d   1      58.685  -2.847  28.455  0.00  0.00    -0.532 OA
ENDBRANCH   1  15
TORSDOF 3
ENDMDL
MODEL 6
REMARK VINA RESULT:      -1.7      8.743      9.394
REMARK  3 active torsions:
REMARK  status: ('A' for Active; 'I' for Inactive)
REMARK    1  A    between atoms: C_7  and  C_2 
REMARK    2  A    between atoms: N_5  and  C_8 
REMARK    3  A    between atoms: C_9  and  C_7 
ROOT
ATOM      1  C   UNL d   1      59.552  -6.900  35.864  0.00  0.00     0.127 A 
ATOM      2  C   UNL d   1      60.057  -7.557  35.842  0.00  0.00     0.023 A 
ATOM      3  C   UNL d   1      60.844  -7.476  36.065  0.00  0.00     0.002 A 
ATOM      4  C   UNL d   1      59.835  -6.173  36.106  0.00  0.00     0.024 A 
ATOM      5  C   UNL d   1      61.133  -6.742  36.310  0.00  0.00     0.000 A 
ATOM      6  C   UNL d   1      60.622  -6.091  36.329  0.00  0.00     0.002 A 
ENDROOT
BRANCH   2   7
ATOM      7  C   UNL d   1      59.768  -8.287  35.598  0.00  0.00     0.013 C 
BRANCH   7   8
ATOM      8  C   UNL d   1      60.235  -8.778  35.126  0.00  0.00     0.092 A 
ATOM      9  C   UNL d   1      60.654  -9.443  35.380  0.00  0.00     0.288 A 
ATOM     10  N   UNL d   1      61.039  -9.761  34.722  0.00  0.00    -0.163 NA
ATOM     11  O   UNL d   1      60.680  -9.732  36.151  0.00  0.00    -0.265 OA
ATOM     12  C   UNL d   1      60.862  -9.300  34.068  0.00  0.00     0.313 A 
ATOM     13  S   UNL d   1      60.364  -8.691  34.313  0.00  0.00    -0.021 SA
ATOM     14  O   UNL d   1      61.133  -9.423  33.298  0.00  0.00    -0.258 OA
ENDBRANCH   7   8
ENDBRANCH   2   7
BRANCH   1  15
ATOM     15  N   UNL d   1      58.760  -6.984  35.640  0.00  0.00    -0.114 N 
ATOM     16  O   UNL d   1      58.506  -6.726  34.898  0.00  0.00    -0.532 OA
ATOM     17  O   UNL d   1      58.219  -7.330  36.164  0.00  0.00    -0.532 OA
ENDBRANCH   1  15
TORSDOF 3
ENDMDL
MODEL 7
REMARK VINA RESULT:      -1.5      4.719      5.456
REMARK  3 active torsions:
REMARK  status: ('A' for Active; 'I' for Inactive)
REMARK    1  A    between atoms: C_7  and  C_2 
REMARK    2  A    between atoms: N_5  and  C_8 
REMARK    3  A    between atoms: C_9  and  C_7 
ROOT
ATOM      1  C   UNL d   1      59.543  -2.947  28.875  0.00  0.00     0.127 A 
ATOM      2  C   UNL d   1      59.747  -2.152  28.758  0.00  0.00     0.023 A 
ATOM      3  C   UNL d   1      60.518  -1.953  28.556  0.00  0.00     0.002 A 
ATOM      4  C   UNL d   1      60.108  -3.532  28.789  0.00  0.00     0.024 A 
ATOM      5  C   UNL d   1      61.091  -2.541  28.469  0.00  0.00     0.000 A 
ATOM      6  C   UNL d   1      60.880  -3.333  28.587  0.00  0.00     0.002 A 
ENDROOT
BRANCH   2   7
ATOM      7  C   UNL d   1      59.176  -1.567  28.845  0.00  0.00     0.013 C 
BRANCH   7   8
ATOM      8  C   UNL d   1      59.399  -0.802  29.062  0.00  0.00     0.092 A 
ATOM      9  C   UNL d   1      58.986  -0.108  28.891  0.00  0.00     0.288 A 
ATOM     10  N   UNL d   1      59.412   0.522  29.215  0.00  0.00    -0.163 NA
ATOM     11  O   UNL d   1      58.278  -0.057  28.473  0.00  0.00    -0.265 OA
ATOM     12  C   UNL d   1      60.081   0.223  29.582  0.00  0.00     0.313 A 
ATOM     13  S   UNL d   1      60.077  -0.596  29.490  0.00  0.00    -0.021 SA
ATOM     14  O   UNL d   1      60.657   0.662  29.976  0.00  0.00    -0.258 OA
ENDBRANCH   7   8
ENDBRANCH   2   7
BRANCH   1  15
ATOM     15  N   UNL d   1      58.766  -3.146  29.078  0.00  0.00    -0.114 N 
ATOM     16  O   UNL d   1      58.560  -3.275  29.867  0.00  0.00    -0.532 OA
ATOM     17  O   UNL d   1      58.191  -3.216  28.485  0.00  0.00    -0.532 OA
ENDBRANCH   1  15
TORSDOF 3
ENDMDL
MODEL 8
REMARK VINA RESULT:      -1.2      3.942      5.033
REMARK  3 active torsions:
REMARK  status: ('A' for Active; 'I' for Inactive)
REMARK    1  A    between atoms: C_7  and  C_2 
REMARK    2  A    between atoms: N_5  and  C_8 
REMARK    3  A    between atoms: C_9  and  C_7 
ROOT
ATOM      1  C   UNL d   1      59.098   0.033  29.633  0.00  0.00     0.127 A 
ATOM      2  C   UNL d   1      59.033  -0.792  29.577  0.00  0.00     0.023 A 
ATOM      3  C   UNL d   1      58.417  -1.180  29.959  0.00  0.00     0.002 A 
ATOM      4  C   UNL d   1      58.552   0.459  30.067  0.00  0.00     0.024 A 
ATOM      5  C   UNL d   1      57.864  -0.752  30.398  0.00  0.00     0.000 A 
ATOM      6  C   UNL d   1      57.937   0.071  30.449  0.00  0.00     0.002 A 
ENDROOT
BRANCH   2   7
ATOM      7  C   UNL d   1      59.584  -1.216  29.140  0.00  0.00     0.013 C 
BRANCH   7   8
ATOM      8  C   UNL d   1      59.501  -2.034  29.054  0.00  0.00     0.092 A 
ATOM      9  C   UNL d   1      60.084  -2.600  29.203  0.00  0.00     0.288 A 
ATOM     10  N   UNL d   1      59.757  -3.342  29.044  0.00  0.00    -0.163 NA
ATOM     11  O   UNL d   1      60.850  -2.448  29.464  0.00  0.00    -0.265 OA
ATOM     12  C   UNL d   1      58.981  -3.238  28.799  0.00  0.00     0.313 A 
ATOM     13  S   UNL d   1      58.819  -2.431  28.804  0.00  0.00    -0.021 SA
ATOM     14  O   UNL d   1      58.455  -3.836  28.585  0.00  0.00    -0.258 OA
ENDBRANCH   7   8
ENDBRANCH   2   7
BRANCH   1  15
ATOM     15  N   UNL d   1      59.718   0.422  29.247  0.00  0.00    -0.114 N 
ATOM     16  O   UNL d   1      59.646   0.643  28.455  0.00  0.00    -0.532 OA
ATOM     17  O   UNL d   1      60.417   0.591  29.660  0.00  0.00    -0.532 OA
ENDBRANCH   1  15
TORSDOF 3
ENDMDL
