MODEL 1
REMARK VINA RESULT:      -5.2      0.000      0.000
REMARK  6 active torsions:
REMARK  status: ('A' for Active; 'I' for Inactive)
REMARK    1  A    between atoms: C_3  and  N_1 
REMARK    2  A    between atoms: N_9  and  C_3 
REMARK    3  A    between atoms: C_7  and  C_4 
REMARK    4  A    between atoms: C_8  and  C_5 
REMARK    5  A    between atoms: C_16  and  N_9 
REMARK    6  A    between atoms: O_17  and  C_13 
ROOT
ATOM      1  N   UNL d   1     -47.838  13.110  22.182  0.00  0.00    -0.201 N 
ATOM      2  N   UNL d   1     -47.191  12.601  22.102  0.00  0.00    -0.163 NA
ATOM      3  C   UNL d   1     -46.511  13.029  22.306  0.00  0.00     0.105 A 
ATOM      4  C   UNL d   1     -47.577  13.848  22.431  0.00  0.00     0.110 A 
ATOM      5  C   UNL d   1     -46.754  13.768  22.499  0.00  0.00     0.042 A 
ENDROOT
BRANCH   1   6
ATOM      6  C   UNL d   1     -48.624  12.911  22.034  0.00  0.00     0.222 C 
ATOM      7  S   UNL d   1     -48.401  12.603  21.305  0.00  0.00    -0.037 SA
BRANCH   6   8
ATOM      8  N   UNL d   1     -49.421  12.713  21.894  0.00  0.00    -0.217 NA
BRANCH   8   9
ATOM      9  C   UNL d   1     -49.852  12.381  22.485  0.00  0.00     0.084 A 
ATOM     10  C   UNL d   1     -49.563  11.732  22.924  0.00  0.00     0.019 A 
ATOM     11  C   UNL d   1     -50.027  11.415  23.521  0.00  0.00     0.002 A 
ATOM     12  C   UNL d   1     -50.755  11.710  23.697  0.00  0.00     0.000 A 
ATOM     13  C   UNL d   1     -51.064  12.357  23.273  0.00  0.00     0.002 A 
ATOM     14  C   UNL d   1     -50.613  12.692  22.667  0.00  0.00     0.019 A 
ENDBRANCH   8   9
ENDBRANCH   6   8
ENDBRANCH   1   6
BRANCH   4  15
ATOM     15  C   UNL d   1     -48.142  14.655  22.608  0.00  0.00     0.118 A 
ATOM     16  O   UNL d   1     -48.709  14.743  23.240  0.00  0.00    -0.304 OA
ATOM     17  C   UNL d   1     -49.050  15.488  23.184  0.00  0.00     0.123 A 
ATOM     18  C   UNL d   1     -48.717  15.876  22.537  0.00  0.00     0.029 A 
ATOM     19  C   UNL d   1     -48.180  15.390  22.192  0.00  0.00     0.028 A 
ENDBRANCH   4  15
BRANCH   3  20
ATOM     20  C   UNL d   1     -45.688  12.714  22.304  0.00  0.00     0.042 A 
ATOM     21  C   UNL d   1     -44.924  12.568  22.114  0.00  0.00     0.096 A 
ATOM     22  C   UNL d   1     -44.540  12.067  22.567  0.00  0.00     0.024 A 
ATOM     23  C   UNL d   1     -44.896  11.700  23.214  0.00  0.00     0.002 A 
ATOM     24  C   UNL d   1     -45.635  11.832  23.408  0.00  0.00     0.000 A 
ATOM     25  C   UNL d   1     -46.043  12.346  22.951  0.00  0.00     0.004 A 
BRANCH  21  26
ATOM     26  O   UNL d   1     -44.569  12.936  21.467  0.00  0.00    -0.328 OA
ATOM     27  C   UNL d   1     -43.819  12.945  21.423  0.00  0.00     0.181 C 
ENDBRANCH  21  26
ENDBRANCH   3  20
TORSDOF 6
ENDMDL
MODEL 2
REMARK VINA RESULT:      -4.0      8.522      9.626
REMARK  6 active torsions:
REMARK  status: ('A' for Active; 'I' for Inactive)
REMARK    1  A    between atoms: C_3  and  N_1 
REMARK    2  A    between atoms: N_9  and  C_3 
REMARK    3  A    between atoms: C_7  and  C_4 
REMARK    4  A    between atoms: C_8  and  C_5 
REMARK    5  A    between atoms: C_16  and  N_9 
REMARK    6  A    between atoms: O_17  and  C_13 
ROOT
ATOM      1  N   UNL d   1     -38.883  14.555  20.000  0.00  0.00    -0.201 N 
ATOM      2  N   UNL d   1     -38.524  14.414  20.732  0.00  0.00    -0.163 NA
ATOM      3  C   UNL d   1     -39.054  14.658  21.320  0.00  0.00     0.105 A 
ATOM      4  C   UNL d   1     -39.627  14.881  20.118  0.00  0.00     0.110 A 
ATOM      5  C   UNL d   1     -39.705  14.933  20.943  0.00  0.00     0.042 A 
ENDROOT
BRANCH   1   6
ATOM      6  C   UNL d   1     -38.548  14.393  19.264  0.00  0.00     0.222 C 
ATOM      7  S   UNL d   1     -37.955  14.941  19.422  0.00  0.00    -0.037 SA
BRANCH   6   8
ATOM      8  N   UNL d   1     -38.217  14.224  18.519  0.00  0.00    -0.217 NA
BRANCH   8   9
ATOM      9  C   UNL d   1     -38.250  13.472  18.237  0.00  0.00     0.084 A 
ATOM     10  C   UNL d   1     -38.583  13.301  17.489  0.00  0.00     0.019 A 
ATOM     11  C   UNL d   1     -38.601  12.524  17.229  0.00  0.00     0.002 A 
ATOM     12  C   UNL d   1     -38.309  11.919  17.673  0.00  0.00     0.000 A 
ATOM     13  C   UNL d   1     -37.973  12.065  18.420  0.00  0.00     0.002 A 
ATOM     14  C   UNL d   1     -37.944  12.842  18.702  0.00  0.00     0.019 A 
ENDBRANCH   8   9
ENDBRANCH   6   8
ENDBRANCH   1   6
BRANCH   4  15
ATOM     15  C   UNL d   1     -40.282  15.151  19.412  0.00  0.00     0.118 A 
ATOM     16  O   UNL d   1     -40.770  14.623  18.949  0.00  0.00    -0.304 OA
ATOM     17  C   UNL d   1     -41.226  15.072  18.434  0.00  0.00     0.123 A 
ATOM     18  C   UNL d   1     -41.043  15.868  18.554  0.00  0.00     0.029 A 
ATOM     19  C   UNL d   1     -40.487  15.922  19.130  0.00  0.00     0.028 A 
ENDBRANCH   4  15
BRANCH   3  20
ATOM     20  C   UNL d   1     -38.910  14.614  22.189  0.00  0.00     0.042 A 
ATOM     21  C   UNL d   1     -38.753  14.807  22.949  0.00  0.00     0.096 A 
ATOM     22  C   UNL d   1     -38.745  14.224  23.463  0.00  0.00     0.024 A 
ATOM     23  C   UNL d   1     -38.890  13.443  23.243  0.00  0.00     0.002 A 
ATOM     24  C   UNL d   1     -39.044  13.243  22.509  0.00  0.00     0.000 A 
ATOM     25  C   UNL d   1     -39.056  13.832  21.969  0.00  0.00     0.004 A 
BRANCH  21  26
ATOM     26  O   UNL d   1     -38.608  15.588  23.169  0.00  0.00    -0.328 OA
ATOM     27  C   UNL d   1     -37.955  15.755  23.498  0.00  0.00     0.181 C 
ENDBRANCH  21  26
ENDBRANCH   3  20
TORSDOF 6
ENDMDL
MODEL 3
REMARK VINA RESULT:      -3.8      6.936      9.475
REMARK  6 active torsions:
REMARK  status: ('A' for Active; 'I' for Inactive)
REMARK    1  A    between atoms: C_3  and  N_1 
REMARK    2  A    between atoms: N_9  and  C_3 
REMARK    3  A    between atoms: C_7  and  C_4 
REMARK    4  A    between atoms: C_8  and  C_5 
REMARK    5  A    between atoms: C_16  and  N_9 
REMARK    6  A    between atoms: O_17  and  C_13 
ROOT
ATOM      1  N   UNL d   1     -39.412  14.997  19.194  0.00  0.00    -0.201 N 
ATOM      2  N   UNL d   1     -39.418  14.814  18.388  0.00  0.00    -0.163 NA
ATOM      3  C   UNL d   1     -38.633  14.694  18.153  0.00  0.00     0.105 A 
ATOM      4  C   UNL d   1     -38.638  14.995  19.469  0.00  0.00     0.110 A 
ATOM      5  C   UNL d   1     -38.179  14.805  18.805  0.00  0.00     0.042 A 
ENDROOT
BRANCH   1   6
ATOM      6  C   UNL d   1     -40.078  15.158  19.653  0.00  0.00     0.222 C 
ATOM      7  S   UNL d   1     -40.319  15.712  19.095  0.00  0.00    -0.037 SA
BRANCH   6   8
ATOM      8  N   UNL d   1     -40.747  15.313  20.124  0.00  0.00    -0.217 NA
BRANCH   8   9
ATOM      9  C   UNL d   1     -41.183  14.699  20.401  0.00  0.00     0.084 A 
ATOM     10  C   UNL d   1     -41.548  14.153  19.883  0.00  0.00     0.019 A 
ATOM     11  C   UNL d   1     -41.986  13.537  20.198  0.00  0.00     0.002 A 
ATOM     12  C   UNL d   1     -42.076  13.438  20.992  0.00  0.00     0.000 A 
ATOM     13  C   UNL d   1     -41.722  13.968  21.527  0.00  0.00     0.002 A 
ATOM     14  C   UNL d   1     -41.275  14.599  21.232  0.00  0.00     0.019 A 
ENDBRANCH   8   9
ENDBRANCH   6   8
ENDBRANCH   1   6
BRANCH   4  15
ATOM     15  C   UNL d   1     -38.335  15.183  20.404  0.00  0.00     0.118 A 
ATOM     16  O   UNL d   1     -38.187  14.601  21.012  0.00  0.00    -0.304 OA
ATOM     17  C   UNL d   1     -37.948  14.991  21.695  0.00  0.00     0.123 A 
ATOM     18  C   UNL d   1     -37.940  15.801  21.540  0.00  0.00     0.029 A 
ATOM     19  C   UNL d   1     -38.167  15.922  20.780  0.00  0.00     0.028 A 
ENDBRANCH   4  15
BRANCH   3  20
ATOM     20  C   UNL d   1     -38.367  14.486  17.339  0.00  0.00     0.042 A 
ATOM     21  C   UNL d   1     -38.149  14.530  16.570  0.00  0.00     0.096 A 
ATOM     22  C   UNL d   1     -37.955  13.862  16.223  0.00  0.00     0.024 A 
ATOM     23  C   UNL d   1     -37.970  13.140  16.621  0.00  0.00     0.002 A 
ATOM     24  C   UNL d   1     -38.179  13.085  17.367  0.00  0.00     0.000 A 
ATOM     25  C   UNL d   1     -38.382  13.764  17.737  0.00  0.00     0.004 A 
BRANCH  21  26
ATOM     26  O   UNL d   1     -38.134  15.252  16.172  0.00  0.00    -0.328 OA
ATOM     27  C   UNL d   1     -37.951  15.259  15.444  0.00  0.00     0.181 C 
ENDBRANCH  21  26
ENDBRANCH   3  20
TORSDOF 6
ENDMDL
MODEL 4
REMARK VINA RESULT:      -3.1      1.162      2.546
REMARK  6 active torsions:
REMARK  status: ('A' for Active; 'I' for Inactive)
REMARK    1  A    between atoms: C_3  and  N_1 
REMARK    2  A    between atoms: N_9  and  C_3 
REMARK    3  A    between atoms: C_7  and  C_4 
REMARK    4  A    between atoms: C_8  and  C_5 
REMARK    5  A    between atoms: C_16  and  N_9 
REMARK    6  A    between atoms: O_17  and  C_13 
ROOT
ATOM      1  N   UNL d   1     -48.526  13.076  22.661  0.00  0.00    -0.201 N 
ATOM      2  N   UNL d   1     -47.717  13.213  22.557  0.00  0.00    -0.163 NA
ATOM      3  C   UNL d   1     -47.311  12.585  22.913  0.00  0.00     0.105 A 
ATOM      4  C   UNL d   1     -48.635  12.374  23.074  0.00  0.00     0.110 A 
ATOM      5  C   UNL d   1     -47.867  12.094  23.216  0.00  0.00     0.042 A 
ENDROOT
BRANCH   1   6
ATOM      6  C   UNL d   1     -49.133  13.566  22.392  0.00  0.00     0.222 C 
ATOM      7  S   UNL d   1     -48.782  13.578  21.648  0.00  0.00    -0.037 SA
BRANCH   6   8
ATOM      8  N   UNL d   1     -49.749  14.060  22.129  0.00  0.00    -0.217 NA
BRANCH   8   9
ATOM      9  C   UNL d   1     -49.992  14.666  22.596  0.00  0.00     0.084 A 
ATOM     10  C   UNL d   1     -49.468  15.275  22.829  0.00  0.00     0.019 A 
ATOM     11  C   UNL d   1     -49.747  15.880  23.306  0.00  0.00     0.002 A 
ATOM     12  C   UNL d   1     -50.511  15.907  23.560  0.00  0.00     0.000 A 
ATOM     13  C   UNL d   1     -51.050  15.312  23.341  0.00  0.00     0.002 A 
ATOM     14  C   UNL d   1     -50.791  14.691  22.859  0.00  0.00     0.019 A 
ENDBRANCH   8   9
ENDBRANCH   6   8
ENDBRANCH   1   6
BRANCH   4  15
ATOM     15  C   UNL d   1     -49.508  11.965  23.339  0.00  0.00     0.118 A 
ATOM     16  O   UNL d   1     -50.245  12.380  23.454  0.00  0.00    -0.304 OA
ATOM     17  C   UNL d   1     -50.823  11.836  23.668  0.00  0.00     0.123 A 
ATOM     18  C   UNL d   1     -50.476  11.088  23.692  0.00  0.00     0.029 A 
ATOM     19  C   UNL d   1     -49.699  11.156  23.499  0.00  0.00     0.028 A 
ENDBRANCH   4  15
BRANCH   3  20
ATOM     20  C   UNL d   1     -46.435  12.492  22.942  0.00  0.00     0.042 A 
ATOM     21  C   UNL d   1     -45.649  12.609  22.847  0.00  0.00     0.096 A 
ATOM     22  C   UNL d   1     -45.176  12.076  23.155  0.00  0.00     0.024 A 
ATOM     23  C   UNL d   1     -45.462  11.418  23.562  0.00  0.00     0.002 A 
ATOM     24  C   UNL d   1     -46.222  11.293  23.661  0.00  0.00     0.000 A 
ATOM     25  C   UNL d   1     -46.721  11.834  23.349  0.00  0.00     0.004 A 
BRANCH  21  26
ATOM     26  O   UNL d   1     -45.363  13.267  22.440  0.00  0.00    -0.328 OA
ATOM     27  C   UNL d   1     -44.821  13.169  21.930  0.00  0.00     0.181 C 
ENDBRANCH  21  26
ENDBRANCH   3  20
TORSDOF 6
ENDMDL
MODEL 5
REMARK VINA RESULT:      -2.6      6.096      8.687
REMARK  6 active torsions:
REMARK  status: ('A' for Active; 'I' for Inactive)
REMARK    1  A    between atoms: C_3  and  N_1 
REMARK    2  A    between atoms: N_9  and  C_3 
REMARK    3  A    between atoms: C_7  and  C_4 
REMARK    4  A    between atoms: C_8  and  C_5 
REMARK    5  A    between atoms: C_16  and  N_9 
REMARK    6  A    between atoms: O_17  and  C_13 
ROOT
ATOM      1  N   UNL d   1     -40.390  14.803  19.708  0.00  0.00    -0.201 N 
ATOM      2  N   UNL d   1     -40.777  15.073  19.029  0.00  0.00    -0.163 NA
ATOM      3  C   UNL d   1     -40.214  15.124  18.425  0.00  0.00     0.105 A 
ATOM      4  C   UNL d   1     -39.595  14.685  19.541  0.00  0.00     0.110 A 
ATOM      5  C   UNL d   1     -39.515  14.891  18.741  0.00  0.00     0.042 A 
ENDROOT
BRANCH   1   6
ATOM      6  C   UNL d   1     -40.745  14.673  20.442  0.00  0.00     0.222 C 
ATOM      7  S   UNL d   1     -40.945  15.470  20.477  0.00  0.00    -0.037 SA
BRANCH   6   8
ATOM      8  N   UNL d   1     -41.100  14.531  21.181  0.00  0.00    -0.217 NA
BRANCH   8   9
ATOM      9  C   UNL d   1     -41.668  13.967  21.242  0.00  0.00     0.084 A 
ATOM     10  C   UNL d   1     -42.456  14.114  21.006  0.00  0.00     0.019 A 
ATOM     11  C   UNL d   1     -43.013  13.518  21.080  0.00  0.00     0.002 A 
ATOM     12  C   UNL d   1     -42.825  12.792  21.374  0.00  0.00     0.000 A 
ATOM     13  C   UNL d   1     -42.047  12.623  21.616  0.00  0.00     0.002 A 
ATOM     14  C   UNL d   1     -41.468  13.210  21.550  0.00  0.00     0.019 A 
ENDBRANCH   8   9
ENDBRANCH   6   8
ENDBRANCH   1   6
BRANCH   4  15
ATOM     15  C   UNL d   1     -38.891  14.362  20.175  0.00  0.00     0.118 A 
ATOM     16  O   UNL d   1     -38.488  14.833  20.763  0.00  0.00    -0.304 OA
ATOM     17  C   UNL d   1     -37.955  14.354  21.163  0.00  0.00     0.123 A 
ATOM     18  C   UNL d   1     -38.006  13.592  20.849  0.00  0.00     0.029 A 
ATOM     19  C   UNL d   1     -38.557  13.590  20.265  0.00  0.00     0.028 A 
ENDBRANCH   4  15
BRANCH   3  20
ATOM     20  C   UNL d   1     -40.371  15.387  17.598  0.00  0.00     0.042 A 
ATOM     21  C   UNL d   1     -40.734  15.573  16.910  0.00  0.00     0.096 A 
ATOM     22  C   UNL d   1     -40.282  15.833  16.334  0.00  0.00     0.024 A 
ATOM     23  C   UNL d   1     -39.466  15.916  16.421  0.00  0.00     0.002 A 
ATOM     24  C   UNL d   1     -39.102  15.738  17.083  0.00  0.00     0.000 A 
ATOM     25  C   UNL d   1     -39.555  15.469  17.684  0.00  0.00     0.004 A 
BRANCH  21  26
ATOM     26  O   UNL d   1     -41.551  15.491  16.824  0.00  0.00    -0.328 OA
ATOM     27  C   UNL d   1     -41.899  15.888  16.291  0.00  0.00     0.181 C 
ENDBRANCH  21  26
ENDBRANCH   3  20
TORSDOF 6
ENDMDL
MODEL 6
REMARK VINA RESULT:      -2.6      1.466      2.842
REMARK  6 active torsions:
REMARK  status: ('A' for Active; 'I' for Inactive)
REMARK    1  A    between atoms: C_3  and  N_1 
REMARK    2  A    between atoms: N_9  and  C_3 
REMARK    3  A    between atoms: C_7  and  C_4 
REMARK    4  A    between atoms: C_8  and  C_5 
REMARK    5  A    between atoms: C_16  and  N_9 
REMARK    6  A    between atoms: O_17  and  C_13 
ROOT
ATOM      1  N   UNL d   1     -46.940  12.997  23.078  0.00  0.00    -0.201 N 
ATOM      2  N   UNL d   1     -46.129  13.102  22.954  0.00  0.00    -0.163 NA
ATOM      3  C   UNL d   1     -45.812  12.366  22.744  0.00  0.00     0.105 A 
ATOM      4  C   UNL d   1     -47.137  12.210  22.949  0.00  0.00     0.110 A 
ATOM      5  C   UNL d   1     -46.420  11.845  22.744  0.00  0.00     0.042 A 
ENDROOT
BRANCH   1   6
ATOM      6  C   UNL d   1     -47.471  13.589  23.297  0.00  0.00     0.222 C 
ATOM      7  S   UNL d   1     -46.865  13.973  23.698  0.00  0.00    -0.037 SA
BRANCH   6   8
ATOM      8  N   UNL d   1     -48.015  14.181  23.512  0.00  0.00    -0.217 NA
BRANCH   8   9
ATOM      9  C   UNL d   1     -48.363  14.622  22.939  0.00  0.00     0.084 A 
ATOM     10  C   UNL d   1     -47.909  15.038  22.373  0.00  0.00     0.019 A 
ATOM     11  C   UNL d   1     -48.294  15.480  21.800  0.00  0.00     0.002 A 
ATOM     12  C   UNL d   1     -49.097  15.526  21.764  0.00  0.00     0.000 A 
ATOM     13  C   UNL d   1     -49.569  15.120  22.316  0.00  0.00     0.002 A 
ATOM     14  C   UNL d   1     -49.202  14.668  22.904  0.00  0.00     0.019 A 
ENDBRANCH   8   9
ENDBRANCH   6   8
ENDBRANCH   1   6
BRANCH   4  15
ATOM     15  C   UNL d   1     -48.046  11.800  23.027  0.00  0.00     0.118 A 
ATOM     16  O   UNL d   1     -48.623  11.730  22.400  0.00  0.00    -0.304 OA
ATOM     17  C   UNL d   1     -49.292  11.360  22.700  0.00  0.00     0.123 A 
ATOM     18  C   UNL d   1     -49.160  11.193  23.497  0.00  0.00     0.029 A 
ATOM     19  C   UNL d   1     -48.426  11.450  23.697  0.00  0.00     0.028 A 
ENDBRANCH   4  15
BRANCH   3  20
ATOM     20  C   UNL d   1     -44.964  12.207  22.559  0.00  0.00     0.042 A 
ATOM     21  C   UNL d   1     -44.223  11.906  22.563  0.00  0.00     0.096 A 
ATOM     22  C   UNL d   1     -43.721  12.204  22.051  0.00  0.00     0.024 A 
ATOM     23  C   UNL d   1     -43.934  12.802  21.525  0.00  0.00     0.002 A 
ATOM     24  C   UNL d   1     -44.649  13.103  21.511  0.00  0.00     0.000 A 
ATOM     25  C   UNL d   1     -45.177  12.806  22.032  0.00  0.00     0.004 A 
BRANCH  21  26
ATOM     26  O   UNL d   1     -44.010  11.307  23.090  0.00  0.00    -0.328 OA
ATOM     27  C   UNL d   1     -43.327  11.003  23.033  0.00  0.00     0.181 C 
ENDBRANCH  21  26
ENDBRANCH   3  20
TORSDOF 6
ENDMDL
