MODEL 1
REMARK VINA RESULT:     -10.0      0.000      0.000
REMARK  1 active torsions:
REMARK  status: ('A' for Active; 'I' for Inactive)
REMARK    1  A    between atoms: C_11  and  C_9 
ROOT
ATOM      1  N   UNL d   1      52.993  34.101  54.051  0.00  0.00    -0.253 N 
ATOM      2  C   UNL d   1      52.563  33.468  53.754  0.00  0.00     0.182 A 
ATOM      3  C   UNL d   1      52.739  34.885  53.868  0.00  0.00     0.267 A 
ATOM      4  N   UNL d   1      52.912  32.785  54.003  0.00  0.00    -0.221 NA
ATOM      5  S   UNL d   1      51.899  33.577  53.288  0.00  0.00    -0.050 SA
ATOM      6  C   UNL d   1      52.081  35.015  53.406  0.00  0.00     0.068 A 
ATOM      7  C   UNL d   1      53.606  33.796  54.482  0.00  0.00     0.086 A 
ATOM      8  C   UNL d   1      53.578  32.977  54.468  0.00  0.00     0.100 A 
ATOM      9  C   UNL d   1      51.648  34.339  53.107  0.00  0.00     0.037 A 
ATOM     10  O   UNL d   1      53.170  35.560  54.165  0.00  0.00    -0.267 OA
ATOM     11  C   UNL d   1      54.226  34.181  54.914  0.00  0.00     0.019 A 
ATOM     12  C   UNL d   1      54.131  32.529  54.858  0.00  0.00     0.021 A 
ATOM     13  C   UNL d   1      54.777  33.718  55.303  0.00  0.00     0.002 A 
ATOM     14  C   UNL d   1      54.742  32.915  55.283  0.00  0.00     0.002 A 
ENDROOT
BRANCH   9  15
ATOM     15  C   UNL d   1      50.960  34.358  52.625  0.00  0.00     0.006 A 
ATOM     16  C   UNL d   1      51.016  34.219  51.814  0.00  0.00     0.001 A 
ATOM     17  C   UNL d   1      50.330  34.237  51.329  0.00  0.00     0.000 A 
ATOM     18  C   UNL d   1      49.602  34.394  51.669  0.00  0.00     0.000 A 
ATOM     19  C   UNL d   1      49.536  34.536  52.495  0.00  0.00     0.000 A 
ATOM     20  C   UNL d   1      50.210  34.518  52.971  0.00  0.00     0.001 A 
ENDBRANCH   9  15
TORSDOF 1
ENDMDL
MODEL 2
REMARK VINA RESULT:      -9.6      1.994      3.570
REMARK  1 active torsions:
REMARK  status: ('A' for Active; 'I' for Inactive)
REMARK    1  A    between atoms: C_11  and  C_9 
ROOT
ATOM      1  N   UNL d   1      53.387  33.257  54.243  0.00  0.00    -0.253 N 
ATOM      2  C   UNL d   1      52.880  32.960  53.671  0.00  0.00     0.182 A 
ATOM      3  C   UNL d   1      53.894  32.723  54.654  0.00  0.00     0.267 A 
ATOM      4  N   UNL d   1      52.458  33.572  53.361  0.00  0.00    -0.221 NA
ATOM      5  S   UNL d   1      52.853  32.162  53.491  0.00  0.00    -0.050 SA
ATOM      6  C   UNL d   1      53.883  31.924  54.490  0.00  0.00     0.068 A 
ATOM      7  C   UNL d   1      53.270  34.058  54.277  0.00  0.00     0.086 A 
ATOM      8  C   UNL d   1      52.695  34.280  53.737  0.00  0.00     0.100 A 
ATOM      9  C   UNL d   1      53.345  31.636  53.889  0.00  0.00     0.037 A 
ATOM     10  O   UNL d   1      54.431  33.008  55.253  0.00  0.00    -0.267 OA
ATOM     11  C   UNL d   1      53.634  34.652  54.761  0.00  0.00     0.019 A 
ATOM     12  C   UNL d   1      52.468  35.054  53.655  0.00  0.00     0.021 A 
ATOM     13  C   UNL d   1      53.397  35.430  54.669  0.00  0.00     0.002 A 
ATOM     14  C   UNL d   1      52.832  35.638  54.136  0.00  0.00     0.002 A 
ENDROOT
BRANCH   9  15
ATOM     15  C   UNL d   1      53.251  30.839  53.641  0.00  0.00     0.006 A 
ATOM     16  C   UNL d   1      53.060  30.666  52.858  0.00  0.00     0.001 A 
ATOM     17  C   UNL d   1      52.966  29.870  52.606  0.00  0.00     0.000 A 
ATOM     18  C   UNL d   1      53.065  29.263  53.147  0.00  0.00     0.000 A 
ATOM     19  C   UNL d   1      53.261  29.431  53.948  0.00  0.00     0.000 A 
ATOM     20  C   UNL d   1      53.353  30.213  54.194  0.00  0.00     0.001 A 
ENDBRANCH   9  15
TORSDOF 1
ENDMDL
MODEL 3
REMARK VINA RESULT:      -8.7      2.079      3.327
REMARK  1 active torsions:
REMARK  status: ('A' for Active; 'I' for Inactive)
REMARK    1  A    between atoms: C_11  and  C_9 
ROOT
ATOM      1  N   UNL d   1      52.890  31.891  53.357  0.00  0.00    -0.253 N 
ATOM      2  C   UNL d   1      53.385  32.151  53.958  0.00  0.00     0.182 A 
ATOM      3  C   UNL d   1      52.409  32.456  52.955  0.00  0.00     0.267 A 
ATOM      4  N   UNL d   1      53.782  31.515  54.252  0.00  0.00    -0.221 NA
ATOM      5  S   UNL d   1      53.424  32.939  54.176  0.00  0.00    -0.050 SA
ATOM      6  C   UNL d   1      52.433  33.246  53.157  0.00  0.00     0.068 A 
ATOM      7  C   UNL d   1      52.990  31.091  53.289  0.00  0.00     0.086 A 
ATOM      8  C   UNL d   1      53.542  30.831  53.837  0.00  0.00     0.100 A 
ATOM      9  C   UNL d   1      52.957  33.494  53.787  0.00  0.00     0.037 A 
ATOM     10  O   UNL d   1      51.886  32.211  52.327  0.00  0.00    -0.267 OA
ATOM     11  C   UNL d   1      52.629  30.528  52.768  0.00  0.00     0.019 A 
ATOM     12  C   UNL d   1      53.749  30.048  53.890  0.00  0.00     0.021 A 
ATOM     13  C   UNL d   1      52.846  29.742  52.830  0.00  0.00     0.002 A 
ATOM     14  C   UNL d   1      53.389  29.497  53.371  0.00  0.00     0.002 A 
ENDROOT
BRANCH   9  15
ATOM     15  C   UNL d   1      53.060  34.276  54.074  0.00  0.00     0.006 A 
ATOM     16  C   UNL d   1      53.254  34.407  54.865  0.00  0.00     0.001 A 
ATOM     17  C   UNL d   1      53.357  35.189  55.156  0.00  0.00     0.000 A 
ATOM     18  C   UNL d   1      53.265  35.823  54.646  0.00  0.00     0.000 A 
ATOM     19  C   UNL d   1      53.067  35.698  53.838  0.00  0.00     0.000 A 
ATOM     20  C   UNL d   1      52.965  34.930  53.554  0.00  0.00     0.001 A 
ENDBRANCH   9  15
TORSDOF 1
ENDMDL
MODEL 4
REMARK VINA RESULT:      -8.6      2.263      3.335
REMARK  1 active torsions:
REMARK  status: ('A' for Active; 'I' for Inactive)
REMARK    1  A    between atoms: C_11  and  C_9 
ROOT
ATOM      1  N   UNL d   1      53.339  31.785  53.936  0.00  0.00    -0.253 N 
ATOM      2  C   UNL d   1      52.950  32.266  53.396  0.00  0.00     0.182 A 
ATOM      3  C   UNL d   1      53.712  32.143  54.603  0.00  0.00     0.267 A 
ATOM      4  N   UNL d   1      52.643  31.799  52.816  0.00  0.00    -0.221 NA
ATOM      5  S   UNL d   1      52.916  33.078  53.488  0.00  0.00    -0.050 SA
ATOM      6  C   UNL d   1      53.690  32.951  54.712  0.00  0.00     0.068 A 
ATOM      7  C   UNL d   1      53.264  31.021  53.678  0.00  0.00     0.086 A 
ATOM      8  C   UNL d   1      52.834  31.003  52.981  0.00  0.00     0.100 A 
ATOM      9  C   UNL d   1      53.279  33.432  54.136  0.00  0.00     0.037 A 
ATOM     10  O   UNL d   1      54.123  31.665  55.178  0.00  0.00    -0.267 OA
ATOM     11  C   UNL d   1      53.550  30.294  54.008  0.00  0.00     0.019 A 
ATOM     12  C   UNL d   1      52.676  30.304  52.600  0.00  0.00     0.021 A 
ATOM     13  C   UNL d   1      53.384  29.596  53.615  0.00  0.00     0.002 A 
ATOM     14  C   UNL d   1      52.961  29.588  52.931  0.00  0.00     0.002 A 
ENDROOT
BRANCH   9  15
ATOM     15  C   UNL d   1      53.194  34.268  54.150  0.00  0.00     0.006 A 
ATOM     16  C   UNL d   1      53.096  34.665  54.866  0.00  0.00     0.001 A 
ATOM     17  C   UNL d   1      53.011  35.501  54.884  0.00  0.00     0.000 A 
ATOM     18  C   UNL d   1      53.027  35.921  54.182  0.00  0.00     0.000 A 
ATOM     19  C   UNL d   1      53.126  35.524  53.447  0.00  0.00     0.000 A 
ATOM     20  C   UNL d   1      53.210  34.703  53.430  0.00  0.00     0.001 A 
ENDBRANCH   9  15
TORSDOF 1
ENDMDL
MODEL 5
REMARK VINA RESULT:      -8.4      1.290      1.698
REMARK  1 active torsions:
REMARK  status: ('A' for Active; 'I' for Inactive)
REMARK    1  A    between atoms: C_11  and  C_9 
ROOT
ATOM      1  N   UNL d   1      52.433  33.188  53.138  0.00  0.00    -0.253 N 
ATOM      2  C   UNL d   1      51.704  32.830  53.024  0.00  0.00     0.182 A 
ATOM      3  C   UNL d   1      52.477  34.030  53.133  0.00  0.00     0.267 A 
ATOM      4  N   UNL d   1      51.805  32.031  53.052  0.00  0.00    -0.221 NA
ATOM      5  S   UNL d   1      51.022  33.267  52.906  0.00  0.00    -0.050 SA
ATOM      6  C   UNL d   1      51.810  34.484  53.017  0.00  0.00     0.068 A 
ATOM      7  C   UNL d   1      52.980  32.598  53.235  0.00  0.00     0.086 A 
ATOM      8  C   UNL d   1      52.613  31.866  53.186  0.00  0.00     0.100 A 
ATOM      9  C   UNL d   1      51.060  34.089  52.901  0.00  0.00     0.037 A 
ATOM     10  O   UNL d   1      53.225  34.426  53.249  0.00  0.00    -0.267 OA
ATOM     11  C   UNL d   1      53.816  32.633  53.371  0.00  0.00     0.019 A 
ATOM     12  C   UNL d   1      53.034  31.177  53.265  0.00  0.00     0.021 A 
ATOM     13  C   UNL d   1      54.229  31.931  53.449  0.00  0.00     0.002 A 
ATOM     14  C   UNL d   1      53.861  31.218  53.399  0.00  0.00     0.002 A 
ENDROOT
BRANCH   9  15
ATOM     15  C   UNL d   1      50.314  34.456  52.774  0.00  0.00     0.006 A 
ATOM     16  C   UNL d   1      49.912  34.809  53.401  0.00  0.00     0.001 A 
ATOM     17  C   UNL d   1      49.167  35.177  53.278  0.00  0.00     0.000 A 
ATOM     18  C   UNL d   1      48.841  35.182  52.527  0.00  0.00     0.000 A 
ATOM     19  C   UNL d   1      49.244  34.824  51.882  0.00  0.00     0.000 A 
ATOM     20  C   UNL d   1      49.976  34.463  52.004  0.00  0.00     0.001 A 
ENDBRANCH   9  15
TORSDOF 1
ENDMDL
MODEL 6
REMARK VINA RESULT:      -8.3      1.206      4.181
REMARK  1 active torsions:
REMARK  status: ('A' for Active; 'I' for Inactive)
REMARK    1  A    between atoms: C_11  and  C_9 
ROOT
ATOM      1  N   UNL d   1      51.960  33.645  53.043  0.00  0.00    -0.253 N 
ATOM      2  C   UNL d   1      52.140  34.192  53.627  0.00  0.00     0.182 A 
ATOM      3  C   UNL d   1      52.499  33.013  52.899  0.00  0.00     0.267 A 
ATOM      4  N   UNL d   1      51.546  34.736  53.658  0.00  0.00    -0.221 NA
ATOM      5  S   UNL d   1      52.825  34.140  54.071  0.00  0.00    -0.050 SA
ATOM      6  C   UNL d   1      53.188  32.943  53.330  0.00  0.00     0.068 A 
ATOM      7  C   UNL d   1      51.250  33.861  52.719  0.00  0.00     0.086 A 
ATOM      8  C   UNL d   1      50.970  34.539  53.086  0.00  0.00     0.100 A 
ATOM      9  C   UNL d   1      53.355  33.526  53.934  0.00  0.00     0.037 A 
ATOM     10  O   UNL d   1      52.334  32.431  52.296  0.00  0.00    -0.267 OA
ATOM     11  C   UNL d   1      50.792  33.508  52.099  0.00  0.00     0.019 A 
ATOM     12  C   UNL d   1      50.266  34.878  52.867  0.00  0.00     0.021 A 
ATOM     13  C   UNL d   1      50.083  33.858  51.888  0.00  0.00     0.002 A 
ATOM     14  C   UNL d   1      49.817  34.524  52.254  0.00  0.00     0.002 A 
ENDROOT
BRANCH   9  15
ATOM     15  C   UNL d   1      54.030  33.550  54.434  0.00  0.00     0.006 A 
ATOM     16  C   UNL d   1      54.753  33.821  54.144  0.00  0.00     0.001 A 
ATOM     17  C   UNL d   1      55.430  33.847  54.641  0.00  0.00     0.000 A 
ATOM     18  C   UNL d   1      55.367  33.599  55.419  0.00  0.00     0.000 A 
ATOM     19  C   UNL d   1      54.633  33.321  55.722  0.00  0.00     0.000 A 
ATOM     20  C   UNL d   1      53.969  33.296  55.233  0.00  0.00     0.001 A 
ENDBRANCH   9  15
TORSDOF 1
ENDMDL
