MODEL 1
REMARK VINA RESULT:      83.5      0.000      0.000
REMARK  4 active torsions:
REMARK  status: ('A' for Active; 'I' for Inactive)
REMARK    1  A    between atoms: C_2  and  C_1 
REMARK    2  A    between atoms: C_4  and  C_2 
REMARK    3  A    between atoms: N_6  and  C_2 
REMARK    4  A    between atoms: C_8  and  N_6 
ROOT
ATOM      1  C   UNL d   1      60.568  48.784  51.005  0.00  0.00     0.088 C 
ENDROOT
BRANCH   1   2
ATOM      2  C   UNL d   1      60.740  48.006  50.761  0.00  0.00     0.058 A 
ATOM      3  C   UNL d   1      61.348  47.870  50.202  0.00  0.00     0.214 A 
ATOM      4  C   UNL d   1      61.515  47.097  49.964  0.00  0.00     0.120 A 
ATOM      5  O   UNL d   1      61.779  48.511  49.890  0.00  0.00    -0.285 OA
ATOM      6  N   UNL d   1      62.112  46.974  49.416  0.00  0.00    -0.241 NA
ATOM      7  C   UNL d   1      61.089  46.462  50.273  0.00  0.00     0.021 A 
ATOM      8  C   UNL d   1      62.286  46.192  49.171  0.00  0.00     0.099 A 
ATOM      9  C   UNL d   1      61.860  45.558  49.480  0.00  0.00     0.021 A 
ATOM     10  C   UNL d   1      61.252  45.695  50.039  0.00  0.00     0.003 A 
ATOM     11  C   UNL d   1      60.488  46.591  50.825  0.00  0.00     0.002 A 
ATOM     12  C   UNL d   1      60.314  47.371  51.071  0.00  0.00     0.005 A 
ENDBRANCH   1   2
BRANCH   1  13
ATOM     13  C   UNL d   1      60.924  49.092  51.697  0.00  0.00     0.045 A 
ATOM     14  C   UNL d   1      60.504  49.077  52.407  0.00  0.00     0.141 A 
ATOM     15  F   UNL d   1      59.775  48.825  52.647  0.00  0.00    -0.204 F 
ATOM     16  C   UNL d   1      60.854  49.381  53.094  0.00  0.00     0.030 A 
ATOM     17  C   UNL d   1      61.617  49.693  53.054  0.00  0.00     0.002 A 
ATOM     18  C   UNL d   1      62.038  49.708  52.344  0.00  0.00     0.000 A 
ATOM     19  C   UNL d   1      61.682  49.400  51.653  0.00  0.00     0.004 A 
ENDBRANCH   1  13
BRANCH   1  20
ATOM     20  N   UNL d   1      60.043  49.255  50.561  0.00  0.00    -0.227 NA
BRANCH  20  21
ATOM     21  C   UNL d   1      59.376  49.405  50.415  0.00  0.00     0.162 A 
ATOM     22  N   UNL d   1      58.913  49.471  50.943  0.00  0.00    -0.225 NA
ATOM     23  C   UNL d   1      58.238  49.623  50.800  0.00  0.00     0.101 A 
ATOM     24  C   UNL d   1      58.031  49.707  50.140  0.00  0.00     0.021 A 
ATOM     25  C   UNL d   1      58.496  49.642  49.616  0.00  0.00     0.005 A 
ATOM     26  C   UNL d   1      59.170  49.490  49.759  0.00  0.00     0.039 A 
ENDBRANCH  20  21
ENDBRANCH   1  20
TORSDOF 4
ENDMDL
