MODEL 1
REMARK VINA RESULT:       8.4      0.000      0.000
REMARK  2 active torsions:
REMARK  status: ('A' for Active; 'I' for Inactive)
REMARK    1  A    between atoms: C_6  and  C_2 
REMARK    2  A    between atoms: O_13  and  C_10 
ROOT
ATOM      1  C   UNL d   1      13.730  12.150  -2.893  0.00  0.00     0.026 A 
ATOM      2  C   UNL d   1      13.029  11.786  -3.148  0.00  0.00     0.004 A 
ATOM      3  C   UNL d   1      14.163  12.590  -3.427  0.00  0.00     0.004 A 
ATOM      4  C   UNL d   1      13.220  12.311  -4.449  0.00  0.00     0.094 A 
ATOM      5  C   UNL d   1      12.769  11.861  -3.919  0.00  0.00     0.024 A 
ATOM      6  C   UNL d   1      13.905  12.673  -4.218  0.00  0.00     0.024 A 
ENDROOT
BRANCH   1   7
ATOM      7  C   UNL d   1      13.986  12.069  -2.113  0.00  0.00     0.135 A 
ATOM      8  S   UNL d   1      13.507  11.961  -1.454  0.00  0.00    -0.024 SA
ATOM      9  C   UNL d   1      13.985  11.908  -0.796  0.00  0.00     0.236 A 
ATOM     10  N   UNL d   1      14.773  11.983  -1.035  0.00  0.00    -0.119 NA
ATOM     11  N   UNL d   1      13.728  11.799  -0.019  0.00  0.00    -0.118 N 
ATOM     12  N   UNL d   1      14.773  12.083  -1.857  0.00  0.00    -0.139 NA
ENDBRANCH   1   7
BRANCH   4  13
ATOM     13  O   UNL d   1      12.957  12.386  -5.224  0.00  0.00    -0.328 OA
ATOM     14  C   UNL d   1      13.173  11.831  -5.792  0.00  0.00     0.181 C 
ENDBRANCH   4  13
TORSDOF 2
ENDMDL
