MODEL 1
REMARK VINA RESULT:     101.9      0.000      0.000
REMARK  4 active torsions:
REMARK  status: ('A' for Active; 'I' for Inactive)
REMARK    1  A    between atoms: C_6  and  C_1 
REMARK       I    between atoms: N_9  and  C_6 
REMARK       I    between atoms: C_8  and  N_10 
REMARK    2  A    between atoms: C_11  and  C_8 
REMARK    3  A    between atoms: N_10  and  N_9 
REMARK    4  A    between atoms: O_22  and  C_13 
ROOT
ATOM      1  C   UNL d   1      61.388  47.170  50.394  0.00  0.00     0.123 A 
ATOM      2  C   UNL d   1      60.984  47.511  49.761  0.00  0.00     0.305 A 
ATOM      3  O   UNL d   1      60.591  48.209  49.862  0.00  0.00    -0.271 OA
ATOM      4  C   UNL d   1      61.389  47.538  51.111  0.00  0.00     0.012 A 
ATOM      5  C   UNL d   1      60.583  48.605  50.606  0.00  0.00     0.125 A 
ATOM      6  C   UNL d   1      60.988  48.265  51.239  0.00  0.00     0.025 A 
ATOM      7  O   UNL d   1      60.980  47.146  49.041  0.00  0.00    -0.259 OA
ATOM      8  C   UNL d   1      60.183  49.321  50.720  0.00  0.00     0.117 A 
ATOM      9  C   UNL d   1      60.982  48.649  51.969  0.00  0.00     0.002 A 
ATOM     10  C   UNL d   1      60.584  49.366  52.089  0.00  0.00     0.002 A 
ATOM     11  C   UNL d   1      60.180  49.707  51.456  0.00  0.00     0.026 A 
ENDROOT
BRANCH   1  12
ATOM     12  C   UNL d   1      61.794  46.461  50.314  0.00  0.00     0.302 C 
ATOM     13  N   UNL d   1      61.496  45.798  50.711  0.00  0.00    -0.102 NA
ATOM     14  O   UNL d   1      62.495  46.411  49.841  0.00  0.00    -0.263 OA
BRANCH  13  15
ATOM     15  N   UNL d   1      61.880  45.086  50.647  0.00  0.00    -0.102 NA
ATOM     16  C   UNL d   1      61.586  44.427  51.058  0.00  0.00     0.297 C 
ATOM     17  O   UNL d   1      60.923  44.487  51.521  0.00  0.00    -0.264 OA
BRANCH  16  18
ATOM     18  C   UNL d   1      61.967  43.707  50.999  0.00  0.00     0.059 A 
ATOM     19  C   UNL d   1      61.938  43.164  51.605  0.00  0.00     0.005 A 
ATOM     20  C   UNL d   1      62.317  42.441  51.551  0.00  0.00     0.007 A 
ATOM     21  C   UNL d   1      62.740  42.241  50.882  0.00  0.00     0.035 A 
ATOM     22  C   UNL d   1      62.775  42.797  50.253  0.00  0.00     0.007 A 
ATOM     23 BR   UNL d   1      63.119  41.515  50.833  0.00  0.00    -0.049 Br
ATOM     24  C   UNL d   1      62.395  43.520  50.308  0.00  0.00     0.005 A 
ENDBRANCH  16  18
ENDBRANCH  13  15
ENDBRANCH   1  12
BRANCH   8  25
ATOM     25  O   UNL d   1      59.783  49.658  50.094  0.00  0.00    -0.326 OA
ATOM     26  C   UNL d   1      58.975  49.705  50.104  0.00  0.00     0.181 C 
ENDBRANCH   8  25
TORSDOF 4
ENDMDL
