MODEL 1
REMARK VINA RESULT:      82.3      0.000      0.000
REMARK  4 active torsions:
REMARK  status: ('A' for Active; 'I' for Inactive)
REMARK    1  A    between atoms: C_7  and  C_2 
REMARK    2  A    between atoms: C_9  and  C_4 
REMARK    3  A    between atoms: C_15  and  C_7 
REMARK    4  A    between atoms: N_8  and  C_9 
ROOT
ATOM      1  C   UNL d   1      60.050  49.635  51.211  0.00  0.00     0.108 A 
ATOM      2  C   UNL d   1      60.788  49.596  52.328  0.00  0.00     0.139 A 
ATOM      3  O   UNL d   1      60.008  49.614  52.040  0.00  0.00    -0.304 OA
ATOM      4  C   UNL d   1      59.468  49.658  50.630  0.00  0.00     0.079 A 
ATOM      5  C   UNL d   1      60.848  49.630  50.993  0.00  0.00     0.064 A 
ATOM      6  C   UNL d   1      61.300  49.607  51.682  0.00  0.00     0.220 A 
ATOM      7  C   UNL d   1      61.059  49.648  50.196  0.00  0.00     0.009 A 
ATOM      8  C   UNL d   1      59.682  49.675  49.840  0.00  0.00     0.199 A 
ATOM      9  O   UNL d   1      62.129  49.595  51.720  0.00  0.00    -0.284 OA
ATOM     10  C   UNL d   1      60.473  49.671  49.616  0.00  0.00     0.042 A 
ATOM     11  O   UNL d   1      59.095  49.698  49.260  0.00  0.00    -0.286 OA
ENDROOT
BRANCH   2  12
ATOM     12  C   UNL d   1      61.006  49.573  53.126  0.00  0.00     0.028 C 
BRANCH  12  13
ATOM     13  C   UNL d   1      60.428  49.605  53.717  0.00  0.00     0.002 A 
ATOM     14  C   UNL d   1      59.630  49.569  53.510  0.00  0.00     0.000 A 
ATOM     15  C   UNL d   1      59.051  49.601  54.093  0.00  0.00     0.000 A 
ATOM     16  C   UNL d   1      59.271  49.668  54.892  0.00  0.00     0.000 A 
ATOM     17  C   UNL d   1      60.069  49.703  55.098  0.00  0.00     0.000 A 
ATOM     18  C   UNL d   1      58.692  49.699  55.478  0.00  0.00     0.000 C 
ATOM     19  C   UNL d   1      60.646  49.671  54.507  0.00  0.00     0.000 A 
ENDBRANCH  12  13
ENDBRANCH   2  12
BRANCH   4  20
ATOM     20  C   UNL d   1      58.679  49.662  50.845  0.00  0.00     0.086 C 
BRANCH  20  21
ATOM     21  N   UNL d   1      58.065  49.267  50.444  0.00  0.00    -0.300 N 
ATOM     22  C   UNL d   1      57.400  49.695  50.226  0.00  0.00     0.100 A 
ATOM     23  C   UNL d   1      56.787  49.314  49.829  0.00  0.00     0.100 A 
ATOM     24  N   UNL d   1      56.855  48.517  49.662  0.00  0.00    -0.299 N 
ATOM     25  C   UNL d   1      57.525  48.104  49.887  0.00  0.00     0.100 A 
ATOM     26  C   UNL d   1      56.250  48.136  49.270  0.00  0.00     0.100 C 
ATOM     27  C   UNL d   1      58.126  48.487  50.278  0.00  0.00     0.100 A 
ENDBRANCH  20  21
ENDBRANCH   4  20
TORSDOF 4
ENDMDL
