MODEL 1
REMARK VINA RESULT:      85.9      0.000      0.000
REMARK  3 active torsions:
REMARK  status: ('A' for Active; 'I' for Inactive)
REMARK    1  A    between atoms: C_4  and  C_1 
REMARK    2  A    between atoms: C_11  and  C_10 
REMARK    3  A    between atoms: O_20  and  C_11 
ROOT
ATOM      1  C   UNL d   1     -56.176 -99.126 -44.012  0.00  0.00     0.004 A 
ATOM      2  C   UNL d   1     -56.336 -98.848 -45.404  0.00  0.00     0.102 A 
ATOM      3  C   UNL d   1     -55.850 -99.034 -44.763  0.00  0.00     0.023 A 
ATOM      4  O   UNL d   1     -57.148 -98.756 -45.293  0.00  0.00    -0.307 OA
ATOM      5  C   UNL d   1     -57.472 -98.848 -44.542  0.00  0.00     0.102 A 
ATOM      6  C   UNL d   1     -56.986 -99.034 -43.902  0.00  0.00     0.023 A 
ATOM      7  C   UNL d   1     -56.012 -98.756 -46.154  0.00  0.00     0.046 A 
ATOM      8  C   UNL d   1     -55.041 -99.126 -44.874  0.00  0.00     0.004 A 
ATOM      9  C   UNL d   1     -58.283 -98.755 -44.432  0.00  0.00     0.046 A 
ATOM     10  C   UNL d   1     -55.198 -98.849 -46.267  0.00  0.00     0.105 A 
ATOM     11  C   UNL d   1     -54.712 -99.034 -45.627  0.00  0.00     0.021 A 
ATOM     12  C   UNL d   1     -57.311 -99.126 -43.151  0.00  0.00     0.004 A 
ATOM     13  N   UNL d   1     -54.867 -98.756 -47.024  0.00  0.00    -0.148 N 
ATOM     14  C   UNL d   1     -58.613 -98.848 -43.676  0.00  0.00     0.105 A 
ATOM     15  C   UNL d   1     -58.127 -99.034 -43.036  0.00  0.00     0.021 A 
ATOM     16  N   UNL d   1     -59.428 -98.755 -43.563  0.00  0.00    -0.148 N 
ENDROOT
BRANCH   1  17
ATOM     17  C   UNL d   1     -55.690 -99.312 -43.372  0.00  0.00     0.005 A 
ATOM     18  C   UNL d   1     -55.312-100.042 -43.338  0.00  0.00     0.063 A 
ATOM     19  C   UNL d   1     -54.824-100.229 -42.694  0.00  0.00     0.005 A 
ATOM     20  C   UNL d   1     -54.715 -99.684 -42.087  0.00  0.00     0.000 A 
ATOM     21  C   UNL d   1     -55.094 -98.949 -42.119  0.00  0.00     0.000 A 
ATOM     22  C   UNL d   1     -55.582 -98.762 -42.763  0.00  0.00     0.000 A 
BRANCH  18  23
ATOM     23  C   UNL d   1     -55.175-100.795 -43.709  0.00  0.00     0.296 C 
ATOM     24  O   UNL d   1     -55.248-101.488 -43.105  0.00  0.00    -0.259 OA
BRANCH  23  25
ATOM     25  O   UNL d   1     -55.004-101.374 -44.300  0.00  0.00    -0.296 OA
ATOM     26  C   UNL d   1     -55.240-102.306 -44.325  0.00  0.00     0.185 C 
ENDBRANCH  23  25
ENDBRANCH  18  23
ENDBRANCH   1  17
TORSDOF 3
ENDMDL
MODEL 2
REMARK VINA RESULT:      86.4      1.290      2.516
REMARK  3 active torsions:
REMARK  status: ('A' for Active; 'I' for Inactive)
REMARK    1  A    between atoms: C_4  and  C_1 
REMARK    2  A    between atoms: C_11  and  C_10 
REMARK    3  A    between atoms: O_20  and  C_11 
ROOT
ATOM      1  C   UNL d   1     -56.189 -99.137 -44.460  0.00  0.00     0.004 A 
ATOM      2  C   UNL d   1     -56.361 -98.853 -43.071  0.00  0.00     0.102 A 
ATOM      3  C   UNL d   1     -55.870 -99.043 -43.706  0.00  0.00     0.023 A 
ATOM      4  O   UNL d   1     -57.171 -98.757 -43.189  0.00  0.00    -0.307 OA
ATOM      5  C   UNL d   1     -57.489 -98.852 -43.942  0.00  0.00     0.102 A 
ATOM      6  C   UNL d   1     -56.998 -99.042 -44.577  0.00  0.00     0.023 A 
ATOM      7  C   UNL d   1     -56.043 -98.758 -42.318  0.00  0.00     0.046 A 
ATOM      8  C   UNL d   1     -55.062 -99.138 -43.589  0.00  0.00     0.004 A 
ATOM      9  C   UNL d   1     -58.298 -98.756 -44.060  0.00  0.00     0.046 A 
ATOM     10  C   UNL d   1     -55.230 -98.853 -42.197  0.00  0.00     0.105 A 
ATOM     11  C   UNL d   1     -54.739 -99.043 -42.833  0.00  0.00     0.021 A 
ATOM     12  C   UNL d   1     -57.317 -99.136 -45.331  0.00  0.00     0.004 A 
ATOM     13  N   UNL d   1     -54.905 -98.759 -41.439  0.00  0.00    -0.148 N 
ATOM     14  C   UNL d   1     -58.623 -98.851 -44.818  0.00  0.00     0.105 A 
ATOM     15  C   UNL d   1     -58.132 -99.041 -45.453  0.00  0.00     0.021 A 
ATOM     16  N   UNL d   1     -59.436 -98.755 -44.938  0.00  0.00    -0.148 N 
ENDROOT
BRANCH   1  17
ATOM     17  C   UNL d   1     -55.699 -99.327 -45.095  0.00  0.00     0.005 A 
ATOM     18  C   UNL d   1     -55.309-100.052 -45.114  0.00  0.00     0.063 A 
ATOM     19  C   UNL d   1     -54.816-100.243 -45.752  0.00  0.00     0.005 A 
ATOM     20  C   UNL d   1     -54.714 -99.709 -46.370  0.00  0.00     0.000 A 
ATOM     21  C   UNL d   1     -55.105 -98.979 -46.353  0.00  0.00     0.000 A 
ATOM     22  C   UNL d   1     -55.598 -98.788 -45.715  0.00  0.00     0.000 A 
BRANCH  18  23
ATOM     23  C   UNL d   1     -55.160-100.795 -44.727  0.00  0.00     0.296 C 
ATOM     24  O   UNL d   1     -54.791-101.409 -45.307  0.00  0.00    -0.259 OA
BRANCH  23  25
ATOM     25  O   UNL d   1     -55.120-101.388 -44.128  0.00  0.00    -0.296 OA
ATOM     26  C   UNL d   1     -55.009-102.339 -44.218  0.00  0.00     0.185 C 
ENDBRANCH  23  25
ENDBRANCH  18  23
ENDBRANCH   1  17
TORSDOF 3
ENDMDL
