MODEL 1
REMARK VINA RESULT:      -8.5      0.000      0.000
REMARK  3 active torsions:
REMARK  status: ('A' for Active; 'I' for Inactive)
REMARK    1  A    between atoms: C_2  and  S_1 
REMARK    2  A    between atoms: N_3  and  S_1 
REMARK    3  A    between atoms: C_10  and  N_3 
ROOT
ATOM      1  S   UNL d   1     -48.002  14.453  22.565  0.00  0.00     0.285 S 
ATOM      2  O   UNL d   1     -47.923  14.196  21.768  0.00  0.00    -0.198 OA
ATOM      3  O   UNL d   1     -48.070  14.694  23.353  0.00  0.00    -0.198 OA
ENDROOT
BRANCH   1   4
ATOM      4  C   UNL d   1     -47.473  13.855  22.813  0.00  0.00     0.107 A 
ATOM      5  C   UNL d   1     -47.752  13.093  22.975  0.00  0.00     0.040 A 
ATOM      6  C   UNL d   1     -47.222  12.527  23.214  0.00  0.00     0.123 A 
ATOM      7  O   UNL d   1     -47.480  11.765  23.379  0.00  0.00    -0.301 OA
ATOM      8  C   UNL d   1     -46.409  12.717  23.293  0.00  0.00     0.123 A 
ATOM      9  C   UNL d   1     -46.928  11.194  23.623  0.00  0.00     0.149 A 
ATOM     10  C   UNL d   1     -46.165  11.373  23.698  0.00  0.00     0.149 A 
ATOM     11  O   UNL d   1     -45.883  12.139  23.535  0.00  0.00    -0.301 OA
ATOM     12  C   UNL d   1     -46.154  13.468  23.131  0.00  0.00     0.028 A 
ATOM     13  C   UNL d   1     -46.710  14.034  22.887  0.00  0.00     0.015 A 
ENDBRANCH   1   4
BRANCH   1  14
ATOM     14  N   UNL d   1     -48.531  15.054  22.338  0.00  0.00    -0.158 NA
BRANCH  14  15
ATOM     15  C   UNL d   1     -49.353  14.936  22.466  0.00  0.00     0.094 A 
ATOM     16  C   UNL d   1     -49.790  14.525  21.891  0.00  0.00     0.020 A 
ATOM     17  C   UNL d   1     -50.606  14.408  22.018  0.00  0.00     0.002 A 
ATOM     18  C   UNL d   1     -51.064  13.994  21.447  0.00  0.00     0.000 C 
ATOM     19  C   UNL d   1     -50.966  14.697  22.701  0.00  0.00     0.000 A 
ATOM     20  C   UNL d   1     -50.500  15.100  23.248  0.00  0.00     0.002 A 
ATOM     21  C   UNL d   1     -49.710  15.216  23.130  0.00  0.00     0.020 A 
ENDBRANCH  14  15
ENDBRANCH   1  14
TORSDOF 3
ENDMDL
MODEL 2
REMARK VINA RESULT:      -8.2      1.384      2.092
REMARK  3 active torsions:
REMARK  status: ('A' for Active; 'I' for Inactive)
REMARK    1  A    between atoms: C_2  and  S_1 
REMARK    2  A    between atoms: N_3  and  S_1 
REMARK    3  A    between atoms: C_10  and  N_3 
ROOT
ATOM      1  S   UNL d   1     -48.750  12.347  23.279  0.00  0.00     0.285 S 
ATOM      2  O   UNL d   1     -48.714  13.075  23.698  0.00  0.00    -0.198 OA
ATOM      3  O   UNL d   1     -48.768  11.631  22.866  0.00  0.00    -0.198 OA
ENDROOT
BRANCH   1   4
ATOM      4  C   UNL d   1     -47.915  12.327  23.238  0.00  0.00     0.107 A 
ATOM      5  C   UNL d   1     -47.510  12.863  22.755  0.00  0.00     0.040 A 
ATOM      6  C   UNL d   1     -46.699  12.829  22.728  0.00  0.00     0.123 A 
ATOM      7  O   UNL d   1     -46.279  13.353  22.255  0.00  0.00    -0.301 OA
ATOM      8  C   UNL d   1     -46.287  12.258  23.184  0.00  0.00     0.123 A 
ATOM      9  C   UNL d   1     -45.450  13.307  22.237  0.00  0.00     0.149 A 
ATOM     10  C   UNL d   1     -45.063  12.772  22.664  0.00  0.00     0.149 A 
ATOM     11  O   UNL d   1     -45.470  12.231  23.151  0.00  0.00    -0.301 OA
ATOM     12  C   UNL d   1     -46.700  11.742  23.651  0.00  0.00     0.028 A 
ATOM     13  C   UNL d   1     -47.528  11.792  23.665  0.00  0.00     0.015 A 
ENDBRANCH   1   4
BRANCH   1  14
ATOM     14  N   UNL d   1     -49.580  12.348  23.309  0.00  0.00    -0.158 NA
BRANCH  14  15
ATOM     15  C   UNL d   1     -50.005  12.766  22.717  0.00  0.00     0.094 A 
ATOM     16  C   UNL d   1     -50.319  13.512  22.904  0.00  0.00     0.020 A 
ATOM     17  C   UNL d   1     -50.740  13.928  22.315  0.00  0.00     0.002 A 
ATOM     18  C   UNL d   1     -51.064  14.684  22.487  0.00  0.00     0.000 C 
ATOM     19  C   UNL d   1     -50.840  13.599  21.566  0.00  0.00     0.000 A 
ATOM     20  C   UNL d   1     -50.514  12.857  21.418  0.00  0.00     0.002 A 
ATOM     21  C   UNL d   1     -50.106  12.450  21.984  0.00  0.00     0.020 A 
ENDBRANCH  14  15
ENDBRANCH   1  14
TORSDOF 3
ENDMDL
MODEL 3
REMARK VINA RESULT:      -8.0      0.677      1.255
REMARK  3 active torsions:
REMARK  status: ('A' for Active; 'I' for Inactive)
REMARK    1  A    between atoms: C_2  and  S_1 
REMARK    2  A    between atoms: N_3  and  S_1 
REMARK    3  A    between atoms: C_10  and  N_3 
ROOT
ATOM      1  S   UNL d   1     -47.924  13.693  22.590  0.00  0.00     0.285 S 
ATOM      2  O   UNL d   1     -47.741  14.037  23.335  0.00  0.00    -0.198 OA
ATOM      3  O   UNL d   1     -48.097  13.339  21.863  0.00  0.00    -0.198 OA
ENDROOT
BRANCH   1   4
ATOM      4  C   UNL d   1     -47.612  12.961  22.850  0.00  0.00     0.107 A 
ATOM      5  C   UNL d   1     -46.795  12.864  22.933  0.00  0.00     0.040 A 
ATOM      6  C   UNL d   1     -46.511  12.147  23.187  0.00  0.00     0.123 A 
ATOM      7  O   UNL d   1     -45.704  12.030  23.276  0.00  0.00    -0.301 OA
ATOM      8  C   UNL d   1     -47.043  11.521  23.359  0.00  0.00     0.123 A 
ATOM      9  C   UNL d   1     -45.426  11.292  23.536  0.00  0.00     0.149 A 
ATOM     10  C   UNL d   1     -45.925  10.705  23.698  0.00  0.00     0.149 A 
ATOM     11  O   UNL d   1     -46.748  10.802  23.615  0.00  0.00    -0.301 OA
ATOM     12  C   UNL d   1     -47.840  11.635  23.272  0.00  0.00     0.028 A 
ATOM     13  C   UNL d   1     -48.111  12.375  23.012  0.00  0.00     0.015 A 
ENDBRANCH   1   4
BRANCH   1  14
ATOM     14  N   UNL d   1     -48.238  14.410  22.313  0.00  0.00    -0.158 NA
BRANCH  14  15
ATOM     15  C   UNL d   1     -49.025  14.615  22.526  0.00  0.00     0.094 A 
ATOM     16  C   UNL d   1     -49.644  14.402  22.015  0.00  0.00     0.020 A 
ATOM     17  C   UNL d   1     -50.425  14.605  22.226  0.00  0.00     0.002 A 
ATOM     18  C   UNL d   1     -51.064  14.398  21.721  0.00  0.00     0.000 C 
ATOM     19  C   UNL d   1     -50.573  15.008  22.931  0.00  0.00     0.000 A 
ATOM     20  C   UNL d   1     -49.933  15.202  23.412  0.00  0.00     0.002 A 
ATOM     21  C   UNL d   1     -49.176  15.008  23.211  0.00  0.00     0.020 A 
ENDBRANCH  14  15
ENDBRANCH   1  14
TORSDOF 3
ENDMDL
MODEL 4
REMARK VINA RESULT:      -7.6      1.233      4.022
REMARK  3 active torsions:
REMARK  status: ('A' for Active; 'I' for Inactive)
REMARK    1  A    between atoms: C_2  and  S_1 
REMARK    2  A    between atoms: N_3  and  S_1 
REMARK    3  A    between atoms: C_10  and  N_3 
ROOT
ATOM      1  S   UNL d   1     -47.657  14.316  22.936  0.00  0.00     0.285 S 
ATOM      2  O   UNL d   1     -47.907  13.784  23.538  0.00  0.00    -0.198 OA
ATOM      3  O   UNL d   1     -47.428  14.839  22.339  0.00  0.00    -0.198 OA
ENDROOT
BRANCH   1   4
ATOM      4  C   UNL d   1     -48.442  14.364  22.651  0.00  0.00     0.107 A 
ATOM      5  C   UNL d   1     -48.750  13.760  22.176  0.00  0.00     0.040 A 
ATOM      6  C   UNL d   1     -49.514  13.825  21.909  0.00  0.00     0.123 A 
ATOM      7  O   UNL d   1     -49.837  13.236  21.438  0.00  0.00    -0.301 OA
ATOM      8  C   UNL d   1     -49.976  14.494  22.114  0.00  0.00     0.123 A 
ATOM      9  C   UNL d   1     -50.620  13.313  21.171  0.00  0.00     0.149 A 
ATOM     10  C   UNL d   1     -51.054  13.941  21.363  0.00  0.00     0.149 A 
ATOM     11  O   UNL d   1     -50.745  14.551  21.840  0.00  0.00    -0.301 OA
ATOM     12  C   UNL d   1     -49.658  15.075  22.579  0.00  0.00     0.028 A 
ATOM     13  C   UNL d   1     -48.876  14.992  22.843  0.00  0.00     0.015 A 
ENDBRANCH   1   4
BRANCH   1  14
ATOM     14  N   UNL d   1     -46.872  14.281  23.204  0.00  0.00    -0.158 NA
BRANCH  14  15
ATOM     15  C   UNL d   1     -46.421  13.591  23.042  0.00  0.00     0.094 A 
ATOM     16  C   UNL d   1     -45.808  13.638  22.482  0.00  0.00     0.020 A 
ATOM     17  C   UNL d   1     -45.360  12.953  22.321  0.00  0.00     0.002 A 
ATOM     18  C   UNL d   1     -44.737  12.982  21.758  0.00  0.00     0.000 C 
ATOM     19  C   UNL d   1     -45.527  12.246  22.713  0.00  0.00     0.000 A 
ATOM     20  C   UNL d   1     -46.141  12.239  23.261  0.00  0.00     0.002 A 
ATOM     21  C   UNL d   1     -46.578  12.899  23.421  0.00  0.00     0.020 A 
ENDBRANCH  14  15
ENDBRANCH   1  14
TORSDOF 3
ENDMDL
MODEL 5
REMARK VINA RESULT:      -7.5      1.393      4.196
REMARK  3 active torsions:
REMARK  status: ('A' for Active; 'I' for Inactive)
REMARK    1  A    between atoms: C_2  and  S_1 
REMARK    2  A    between atoms: N_3  and  S_1 
REMARK    3  A    between atoms: C_10  and  N_3 
ROOT
ATOM      1  S   UNL d   1     -48.844  12.959  22.115  0.00  0.00     0.285 S 
ATOM      2  O   UNL d   1     -49.233  12.421  22.631  0.00  0.00    -0.198 OA
ATOM      3  O   UNL d   1     -48.474  13.501  21.612  0.00  0.00    -0.198 OA
ENDROOT
BRANCH   1   4
ATOM      4  C   UNL d   1     -49.400  13.552  22.313  0.00  0.00     0.107 A 
ATOM      5  C   UNL d   1     -49.190  14.166  22.825  0.00  0.00     0.040 A 
ATOM      6  C   UNL d   1     -49.743  14.732  23.005  0.00  0.00     0.123 A 
ATOM      7  O   UNL d   1     -49.553  15.349  23.511  0.00  0.00    -0.301 OA
ATOM      8  C   UNL d   1     -50.513  14.688  22.673  0.00  0.00     0.123 A 
ATOM      9  C   UNL d   1     -50.129  15.922  23.687  0.00  0.00     0.149 A 
ATOM     10  C   UNL d   1     -50.850  15.881  23.376  0.00  0.00     0.149 A 
ATOM     11  O   UNL d   1     -51.064  15.263  22.860  0.00  0.00    -0.301 OA
ATOM     12  C   UNL d   1     -50.701  14.080  22.174  0.00  0.00     0.028 A 
ATOM     13  C   UNL d   1     -50.122  13.511  22.001  0.00  0.00     0.015 A 
ENDBRANCH   1   4
BRANCH   1  14
ATOM     14  N   UNL d   1     -48.282  12.384  21.906  0.00  0.00    -0.158 NA
BRANCH  14  15
ATOM     15  C   UNL d   1     -47.588  12.310  22.375  0.00  0.00     0.094 A 
ATOM     16  C   UNL d   1     -46.955  12.829  22.235  0.00  0.00     0.020 A 
ATOM     17  C   UNL d   1     -46.267  12.756  22.700  0.00  0.00     0.002 A 
ATOM     18  C   UNL d   1     -45.617  13.273  22.572  0.00  0.00     0.000 C 
ATOM     19  C   UNL d   1     -46.221  12.177  23.286  0.00  0.00     0.000 A 
ATOM     20  C   UNL d   1     -46.869  11.680  23.395  0.00  0.00     0.002 A 
ATOM     21  C   UNL d   1     -47.538  11.747  22.948  0.00  0.00     0.020 A 
ENDBRANCH  14  15
ENDBRANCH   1  14
TORSDOF 3
ENDMDL
MODEL 6
REMARK VINA RESULT:      -6.7      8.524      9.898
REMARK  3 active torsions:
REMARK  status: ('A' for Active; 'I' for Inactive)
REMARK    1  A    between atoms: C_2  and  S_1 
REMARK    2  A    between atoms: N_3  and  S_1 
REMARK    3  A    between atoms: C_10  and  N_3 
ROOT
ATOM      1  S   UNL d   1     -40.564  14.624  18.791  0.00  0.00     0.285 S 
ATOM      2  O   UNL d   1     -40.568  15.465  18.766  0.00  0.00    -0.198 OA
ATOM      3  O   UNL d   1     -40.552  13.798  18.801  0.00  0.00    -0.198 OA
ENDROOT
BRANCH   1   4
ATOM      4  C   UNL d   1     -40.140  14.603  18.070  0.00  0.00     0.107 A 
ATOM      5  C   UNL d   1     -39.518  14.068  17.970  0.00  0.00     0.040 A 
ATOM      6  C   UNL d   1     -39.118  14.062  17.263  0.00  0.00     0.123 A 
ATOM      7  O   UNL d   1     -38.497  13.538  17.144  0.00  0.00    -0.301 OA
ATOM      8  C   UNL d   1     -39.339  14.592  16.651  0.00  0.00     0.123 A 
ATOM      9  C   UNL d   1     -38.096  13.542  16.417  0.00  0.00     0.149 A 
ATOM     10  C   UNL d   1     -38.303  14.039  15.842  0.00  0.00     0.149 A 
ATOM     11  O   UNL d   1     -38.930  14.579  15.942  0.00  0.00    -0.301 OA
ATOM     12  C   UNL d   1     -39.950  15.109  16.767  0.00  0.00     0.028 A 
ATOM     13  C   UNL d   1     -40.347  15.100  17.496  0.00  0.00     0.015 A 
ENDBRANCH   1   4
BRANCH   1  14
ATOM     14  N   UNL d   1     -40.985  14.625  19.508  0.00  0.00    -0.158 NA
BRANCH  14  15
ATOM     15  C   UNL d   1     -40.596  14.891  20.203  0.00  0.00     0.094 A 
ATOM     16  C   UNL d   1     -40.211  14.333  20.683  0.00  0.00     0.020 A 
ATOM     17  C   UNL d   1     -39.825  14.598  21.374  0.00  0.00     0.002 A 
ATOM     18  C   UNL d   1     -39.430  14.047  21.871  0.00  0.00     0.000 C 
ATOM     19  C   UNL d   1     -39.829  15.399  21.570  0.00  0.00     0.000 A 
ATOM     20  C   UNL d   1     -40.221  15.922  21.070  0.00  0.00     0.002 A 
ATOM     21  C   UNL d   1     -40.597  15.671  20.401  0.00  0.00     0.020 A 
ENDBRANCH  14  15
ENDBRANCH   1  14
TORSDOF 3
ENDMDL
