MODEL 1
REMARK VINA RESULT:      81.9      0.000      0.000
REMARK  7 active torsions:
REMARK  status: ('A' for Active; 'I' for Inactive)
REMARK    1  A    between atoms: C_5  and  C_1 
REMARK    2  A    between atoms: N_3  and  C_2 
REMARK    3  A    between atoms: C_14  and  C_5 
REMARK    4  A    between atoms: C_10  and  C_6 
REMARK    5  A    between atoms: O_19  and  C_10 
REMARK    6  A    between atoms: O_22  and  C_18 
REMARK    7  A    between atoms: C_26  and  O_19 
ROOT
ATOM      1  C   UNL d   1     -51.507  24.446  33.572  0.00  0.00     0.074 A 
ATOM      2  C   UNL d   1     -50.784  24.844  33.714  0.00  0.00     0.070 A 
ATOM      3  C   UNL d   1     -50.068  24.439  33.652  0.00  0.00     0.036 A 
ATOM      4  C   UNL d   1     -51.500  23.646  33.370  0.00  0.00     0.103 A 
ATOM      5  N   UNL d   1     -50.770  23.240  33.309  0.00  0.00    -0.244 NA
ATOM      6  C   UNL d   1     -50.061  23.638  33.450  0.00  0.00     0.083 A 
ATOM      7  C   UNL d   1     -49.359  24.837  33.793  0.00  0.00     0.027 A 
ATOM      8  C   UNL d   1     -49.344  23.233  33.388  0.00  0.00     0.021 A 
ATOM      9  C   UNL d   1     -48.642  24.432  33.731  0.00  0.00     0.094 A 
ATOM     10  C   UNL d   1     -48.635  23.631  33.529  0.00  0.00     0.026 A 
ENDROOT
BRANCH   2  11
ATOM     11  N   UNL d   1     -50.792  25.650  33.917  0.00  0.00    -0.303 N 
ATOM     12  C   UNL d   1     -50.842  25.876  34.709  0.00  0.00     0.086 A 
ATOM     13  C   UNL d   1     -50.849  26.685  34.913  0.00  0.00     0.081 A 
ATOM     14  C   UNL d   1     -50.806  27.260  34.323  0.00  0.00     0.008 A 
ATOM     15  C   UNL d   1     -50.756  27.035  33.531  0.00  0.00     0.019 A 
ATOM     16  C   UNL d   1     -50.748  26.225  33.327  0.00  0.00     0.080 A 
BRANCH  13  17
ATOM     17  C   UNL d   1     -50.901  26.912  35.717  0.00  0.00     0.302 C 
ATOM     18  O   UNL d   1     -50.401  27.519  36.000  0.00  0.00    -0.259 OA
BRANCH  17  19
ATOM     19  O   UNL d   1     -51.439  26.538  36.218  0.00  0.00    -0.271 OA
BRANCH  19  20
ATOM     20  C   UNL d   1     -51.276  26.478  37.025  0.00  0.00     0.126 C 
ATOM     21  C   UNL d   1     -50.553  26.745  37.319  0.00  0.00     0.029 C 
ENDBRANCH  19  20
ENDBRANCH  17  19
ENDBRANCH  13  17
ENDBRANCH   2  11
BRANCH   1  22
ATOM     22  C   UNL d   1     -52.223  24.851  33.634  0.00  0.00     0.198 C 
ATOM     23  O   UNL d   1     -52.241  25.660  33.803  0.00  0.00    -0.286 OA
BRANCH  22  24
ATOM     24  C   UNL d   1     -52.933  24.446  33.525  0.00  0.00     0.039 A 
ATOM     25  C   UNL d   1     -52.933  23.621  33.491  0.00  0.00     0.003 A 
ATOM     26  C   UNL d   1     -53.649  23.204  33.382  0.00  0.00     0.000 A 
ATOM     27  C   UNL d   1     -54.352  23.632  33.309  0.00  0.00     0.000 A 
ATOM     28  C   UNL d   1     -54.353  24.456  33.343  0.00  0.00     0.000 A 
ATOM     29  C   UNL d   1     -53.642  24.864  33.451  0.00  0.00     0.003 A 
ENDBRANCH  22  24
ENDBRANCH   1  22
BRANCH   9  30
ATOM     30  O   UNL d   1     -47.933  24.834  33.873  0.00  0.00    -0.328 OA
ATOM     31  C   UNL d   1     -47.888  25.644  33.714  0.00  0.00     0.181 C 
ENDBRANCH   9  30
TORSDOF 7
ENDMDL
