MODEL 1
REMARK VINA RESULT:      41.2      0.000      0.000
REMARK  9 active torsions:
REMARK  status: ('A' for Active; 'I' for Inactive)
REMARK    1  A    between atoms: N_3  and  C_1 
REMARK       I    between atoms: C_5  and  N_3 
REMARK    2  A    between atoms: C_9  and  N_3 
REMARK    3  A    between atoms: C_8  and  C_5 
REMARK    4  A    between atoms: C_16  and  C_9 
REMARK    5  A    between atoms: O_18  and  C_12 
REMARK    6  A    between atoms: N_17  and  C_16 
REMARK    7  A    between atoms: C_22  and  N_17 
REMARK    8  A    between atoms: C_23  and  N_17 
REMARK    9  A    between atoms: C_24  and  O_18 
ROOT
ATOM      1  N   UNL d   1      14.213  13.384  -2.079  0.00  0.00    -0.250 N 
ATOM      2  C   UNL d   1      14.261  12.577  -1.933  0.00  0.00     0.289 C 
ATOM      3  O   UNL d   1      13.999  12.042  -2.483  0.00  0.00    -0.264 OA
ENDROOT
BRANCH   1   4
ATOM      4  C   UNL d   1      13.892  13.646  -2.797  0.00  0.00     0.182 A 
ATOM      5  N   UNL d   1      13.613  13.147  -3.419  0.00  0.00    -0.220 NA
ATOM      6  C   UNL d   1      13.332  13.649  -4.049  0.00  0.00     0.112 A 
ATOM      7  C   UNL d   1      12.999  13.478  -4.792  0.00  0.00     0.118 A 
ATOM      8  C   UNL d   1      13.440  14.446  -3.807  0.00  0.00     0.052 A 
ATOM      9  C   UNL d   1      12.770  14.096  -5.304  0.00  0.00     0.026 A 
ATOM     10  C   UNL d   1      12.876  14.896  -5.067  0.00  0.00     0.003 A 
ATOM     11  C   UNL d   1      13.215  15.057  -4.310  0.00  0.00     0.008 A 
ATOM     12  S   UNL d   1      13.787  14.454  -3.033  0.00  0.00    -0.048 SA
BRANCH   7  13
ATOM     13  O   UNL d   1      12.891  12.675  -5.032  0.00  0.00    -0.304 OA
BRANCH  13  14
ATOM     14  C   UNL d   1      13.542  12.237  -5.338  0.00  0.00     0.123 C 
ATOM     15  C   UNL d   1      13.510  11.779  -5.698  0.00  0.00     0.029 C 
ENDBRANCH  13  14
ENDBRANCH   7  13
ENDBRANCH   1   4
BRANCH   1  16
ATOM     16  C   UNL d   1      14.479  13.925  -1.523  0.00  0.00     0.104 C 
BRANCH  16  17
ATOM     17  C   UNL d   1      14.624  14.706  -1.747  0.00  0.00     0.100 C 
BRANCH  17  18
ATOM     18  N   UNL d   1      14.951  15.230  -1.209  0.00  0.00    -0.301 N 
BRANCH  18  19
ATOM     19  C   UNL d   1      14.786  16.036  -1.270  0.00  0.00     0.080 C 
ATOM     20  C   UNL d   1      15.401  16.573  -1.340  0.00  0.00     0.021 C 
ENDBRANCH  18  19
BRANCH  18  21
ATOM     21  C   UNL d   1      15.439  14.954  -0.613  0.00  0.00     0.080 C 
ATOM     22  C   UNL d   1      15.919  15.477  -0.205  0.00  0.00     0.021 C 
ENDBRANCH  18  21
ENDBRANCH  17  18
ENDBRANCH  16  17
ENDBRANCH   1  16
BRANCH   2  23
ATOM     23  C   UNL d   1      14.581  12.321  -1.220  0.00  0.00     0.156 A 
ATOM     24  O   UNL d   1      15.356  12.400  -0.976  0.00  0.00    -0.300 OA
ATOM     25  C   UNL d   1      15.422  12.062  -0.223  0.00  0.00     0.123 A 
ATOM     26  C   UNL d   1      14.693  11.782  -0.014  0.00  0.00     0.029 A 
ATOM     27  C   UNL d   1      14.157  11.930  -0.615  0.00  0.00     0.032 A 
ENDBRANCH   2  23
TORSDOF 9
ENDMDL
MODEL 2
REMARK VINA RESULT:      43.4      1.307      4.023
REMARK  9 active torsions:
REMARK  status: ('A' for Active; 'I' for Inactive)
REMARK    1  A    between atoms: N_3  and  C_1 
REMARK       I    between atoms: C_5  and  N_3 
REMARK    2  A    between atoms: C_9  and  N_3 
REMARK    3  A    between atoms: C_8  and  C_5 
REMARK    4  A    between atoms: C_16  and  C_9 
REMARK    5  A    between atoms: O_18  and  C_12 
REMARK    6  A    between atoms: N_17  and  C_16 
REMARK    7  A    between atoms: C_22  and  N_17 
REMARK    8  A    between atoms: C_23  and  N_17 
REMARK    9  A    between atoms: C_24  and  O_18 
ROOT
ATOM      1  N   UNL d   1      13.650  12.959  -3.446  0.00  0.00    -0.250 N 
ATOM      2  C   UNL d   1      13.253  12.479  -3.982  0.00  0.00     0.289 C 
ATOM      3  O   UNL d   1      12.920  11.780  -3.743  0.00  0.00    -0.264 OA
ENDROOT
BRANCH   1   4
ATOM      4  C   UNL d   1      13.707  12.718  -2.655  0.00  0.00     0.182 A 
ATOM      5  N   UNL d   1      14.386  12.817  -2.161  0.00  0.00    -0.220 NA
ATOM      6  C   UNL d   1      14.200  12.490  -1.395  0.00  0.00     0.112 A 
ATOM      7  C   UNL d   1      14.642  12.428  -0.693  0.00  0.00     0.118 A 
ATOM      8  C   UNL d   1      13.414  12.197  -1.427  0.00  0.00     0.052 A 
ATOM      9  C   UNL d   1      14.309  12.075  -0.014  0.00  0.00     0.026 A 
ATOM     10  C   UNL d   1      13.522  11.779  -0.041  0.00  0.00     0.003 A 
ATOM     11  C   UNL d   1      13.083  11.847  -0.759  0.00  0.00     0.008 A 
ATOM     12  S   UNL d   1      13.100  12.333  -2.204  0.00  0.00    -0.048 SA
BRANCH   7  13
ATOM     13  O   UNL d   1      15.432  12.725  -0.664  0.00  0.00    -0.304 OA
BRANCH  13  14
ATOM     14  C   UNL d   1      16.052  12.242  -0.361  0.00  0.00     0.123 C 
ATOM     15  C   UNL d   1      16.370  11.859  -0.665  0.00  0.00     0.029 C 
ENDBRANCH  13  14
ENDBRANCH   7  13
ENDBRANCH   1   4
BRANCH   1  16
ATOM     16  C   UNL d   1      13.987  13.666  -3.689  0.00  0.00     0.104 C 
BRANCH  16  17
ATOM     17  C   UNL d   1      13.621  14.381  -3.498  0.00  0.00     0.100 C 
BRANCH  17  18
ATOM     18  N   UNL d   1      14.061  15.072  -3.484  0.00  0.00    -0.301 N 
BRANCH  18  19
ATOM     19  C   UNL d   1      14.611  15.195  -2.881  0.00  0.00     0.080 C 
ATOM     20  C   UNL d   1      14.890  15.952  -2.734  0.00  0.00     0.021 C 
ENDBRANCH  18  19
BRANCH  18  21
ATOM     21  C   UNL d   1      13.955  15.637  -4.066  0.00  0.00     0.080 C 
ATOM     22  C   UNL d   1      14.422  16.308  -4.071  0.00  0.00     0.021 C 
ENDBRANCH  18  21
ENDBRANCH  17  18
ENDBRANCH  16  17
ENDBRANCH   1  16
BRANCH   2  23
ATOM     23  C   UNL d   1      13.199  12.721  -4.766  0.00  0.00     0.156 A 
ATOM     24  O   UNL d   1      13.438  12.301  -5.424  0.00  0.00    -0.300 OA
ATOM     25  C   UNL d   1      13.276  12.761  -6.093  0.00  0.00     0.123 A 
ATOM     26  C   UNL d   1      12.942  13.452  -5.842  0.00  0.00     0.029 A 
ATOM     27  C   UNL d   1      12.884  13.451  -5.025  0.00  0.00     0.032 A 
ENDBRANCH   2  23
TORSDOF 9
ENDMDL
MODEL 3
REMARK VINA RESULT:      43.9      1.622      3.857
REMARK  9 active torsions:
REMARK  status: ('A' for Active; 'I' for Inactive)
REMARK    1  A    between atoms: N_3  and  C_1 
REMARK       I    between atoms: C_5  and  N_3 
REMARK    2  A    between atoms: C_9  and  N_3 
REMARK    3  A    between atoms: C_8  and  C_5 
REMARK    4  A    between atoms: C_16  and  C_9 
REMARK    5  A    between atoms: O_18  and  C_12 
REMARK    6  A    between atoms: N_17  and  C_16 
REMARK    7  A    between atoms: C_22  and  N_17 
REMARK    8  A    between atoms: C_23  and  N_17 
REMARK    9  A    between atoms: C_24  and  O_18 
ROOT
ATOM      1  N   UNL d   1      14.831  15.348  -1.288  0.00  0.00    -0.250 N 
ATOM      2  C   UNL d   1      15.215  15.805  -0.724  0.00  0.00     0.289 C 
ATOM      3  O   UNL d   1      15.493  15.469  -0.040  0.00  0.00    -0.264 OA
ENDROOT
BRANCH   1   4
ATOM      4  C   UNL d   1      14.730  14.537  -1.150  0.00  0.00     0.182 A 
ATOM      5  N   UNL d   1      14.595  13.952  -1.745  0.00  0.00    -0.220 NA
ATOM      6  C   UNL d   1      14.524  13.196  -1.356  0.00  0.00     0.112 A 
ATOM      7  C   UNL d   1      14.391  12.429  -1.649  0.00  0.00     0.118 A 
ATOM      8  C   UNL d   1      14.617  13.324  -0.532  0.00  0.00     0.052 A 
ATOM      9  C   UNL d   1      14.348  11.780  -1.126  0.00  0.00     0.026 A 
ATOM     10  C   UNL d   1      14.440  11.902  -0.300  0.00  0.00     0.003 A 
ATOM     11  C   UNL d   1      14.575  12.685  -0.014  0.00  0.00     0.008 A 
ATOM     12  S   UNL d   1      14.745  14.152  -0.394  0.00  0.00    -0.048 SA
BRANCH   7  13
ATOM     13  O   UNL d   1      14.298  12.304  -2.479  0.00  0.00    -0.304 OA
BRANCH  13  14
ATOM     14  C   UNL d   1      13.626  11.888  -2.770  0.00  0.00     0.123 C 
ATOM     15  C   UNL d   1      13.439  11.879  -3.322  0.00  0.00     0.029 C 
ENDBRANCH  13  14
ENDBRANCH   7  13
ENDBRANCH   1   4
BRANCH   1  16
ATOM     16  C   UNL d   1      14.550  15.688  -1.979  0.00  0.00     0.104 C 
BRANCH  16  17
ATOM     17  C   UNL d   1      14.865  15.459  -2.706  0.00  0.00     0.100 C 
BRANCH  17  18
ATOM     18  N   UNL d   1      14.505  15.701  -3.401  0.00  0.00    -0.301 N 
BRANCH  18  19
ATOM     19  C   UNL d   1      13.686  15.643  -3.479  0.00  0.00     0.080 C 
ATOM     20  C   UNL d   1      13.359  15.012  -3.890  0.00  0.00     0.021 C 
ENDBRANCH  18  19
BRANCH  18  21
ATOM     21  C   UNL d   1      14.956  15.999  -4.015  0.00  0.00     0.080 C 
ATOM     22  C   UNL d   1      14.591  16.264  -4.697  0.00  0.00     0.021 C 
ENDBRANCH  18  21
ENDBRANCH  17  18
ENDBRANCH  16  17
ENDBRANCH   1  16
BRANCH   2  23
ATOM     23  C   UNL d   1      15.313  16.609  -0.864  0.00  0.00     0.156 A 
ATOM     24  O   UNL d   1      16.020  17.003  -0.969  0.00  0.00    -0.300 OA
ATOM     25  C   UNL d   1      15.849  17.804  -1.094  0.00  0.00     0.123 A 
ATOM     26  C   UNL d   1      15.047  17.892  -1.064  0.00  0.00     0.029 A 
ATOM     27  C   UNL d   1      14.694  17.167  -0.922  0.00  0.00     0.032 A 
ENDBRANCH   2  23
TORSDOF 9
ENDMDL
