MODEL 1
REMARK VINA RESULT:      46.3      0.000      0.000
REMARK  5 active torsions:
REMARK  status: ('A' for Active; 'I' for Inactive)
REMARK    1  A    between atoms: C_10  and  N_3 
REMARK    2  A    between atoms: C_11  and  N_8 
REMARK    3  A    between atoms: C_14  and  C_10 
REMARK    4  A    between atoms: C_19  and  C_11 
REMARK    5  A    between atoms: C_20  and  C_19 
ROOT
ATOM      1  C   UNL d   1     -58.466 -98.776 -44.289  0.00  0.00     0.174 A 
ATOM      2  C   UNL d   1     -57.743 -98.769 -43.847  0.00  0.00     0.158 A 
ATOM      3  N   UNL d   1     -58.491 -98.766 -42.621  0.00  0.00    -0.219 N 
ATOM      4  N   UNL d   1     -58.272 -98.780 -45.066  0.00  0.00    -0.203 NA
ATOM      5  N   UNL d   1     -59.183 -98.778 -43.881  0.00  0.00    -0.240 N 
ATOM      6  C   UNL d   1     -59.215 -98.773 -43.063  0.00  0.00     0.343 A 
ATOM      7  C   UNL d   1     -57.754 -98.763 -43.009  0.00  0.00     0.287 A 
ATOM      8  N   UNL d   1     -57.117 -98.768 -44.362  0.00  0.00    -0.279 N 
ATOM      9  C   UNL d   1     -57.434 -98.775 -45.119  0.00  0.00     0.185 A 
ATOM     10  O   UNL d   1     -59.953 -98.776 -42.663  0.00  0.00    -0.245 OA
ATOM     11  O   UNL d   1     -57.045 -98.756 -42.576  0.00  0.00    -0.265 OA
ATOM     12 BR   UNL d   1     -56.940 -98.776 -45.811  0.00  0.00    -0.008 Br
ATOM     13  C   UNL d   1     -59.912 -98.786 -44.326  0.00  0.00     0.105 C 
ENDROOT
BRANCH   8  14
ATOM     14  C   UNL d   1     -56.280 -98.761 -44.201  0.00  0.00     0.082 C 
BRANCH  14  15
ATOM     15  C   UNL d   1     -55.872 -99.382 -43.851  0.00  0.00     0.019 C 
BRANCH  15  16
ATOM     16  C   UNL d   1     -55.489 -99.953 -44.279  0.00  0.00     0.002 C 
ATOM     17  C   UNL d   1     -55.212 -99.798 -45.030  0.00  0.00     0.000 C 
ATOM     18  C   UNL d   1     -55.386-100.705 -43.931  0.00  0.00     0.000 C 
ENDBRANCH  15  16
ENDBRANCH  14  15
ENDBRANCH   8  14
BRANCH   3  19
ATOM     19  C   UNL d   1     -58.505 -98.760 -41.779  0.00  0.00     0.151 C 
BRANCH  19  20
ATOM     20  C   UNL d   1     -59.156 -99.048 -41.375  0.00  0.00     0.315 C 
ATOM     21  O   UNL d   1     -59.242 -98.916 -40.564  0.00  0.00    -0.262 OA
ATOM     22  N   UNL d   1     -59.727 -99.473 -41.788  0.00  0.00    -0.101 N 
ENDBRANCH  19  20
ENDBRANCH   3  19
TORSDOF 5
ENDMDL
