MODEL 1
REMARK VINA RESULT:      34.7      0.000      0.000
REMARK  4 active torsions:
REMARK  status: ('A' for Active; 'I' for Inactive)
REMARK    1  A    between atoms: N_7  and  C_1 
REMARK    2  A    between atoms: C_12  and  N_4 
REMARK    3  A    between atoms: S_6  and  N_7 
REMARK    4  A    between atoms: C_11  and  S_6 
ROOT
ATOM      1  C   UNL d   1      13.216  12.551  -3.485  0.00  0.00     0.169 A 
ATOM      2  C   UNL d   1      13.475  13.323  -3.322  0.00  0.00     0.299 A 
ATOM      3  N   UNL d   1      13.233  13.237  -4.632  0.00  0.00    -0.238 N 
ATOM      4  N   UNL d   1      13.486  13.743  -4.018  0.00  0.00    -0.209 N 
ATOM      5  C   UNL d   1      13.069  12.486  -4.256  0.00  0.00     0.105 A 
ATOM      6  O   UNL d   1      13.688  13.614  -2.557  0.00  0.00    -0.263 OA
ATOM      7  C   UNL d   1      13.160  13.428  -5.425  0.00  0.00     0.120 C 
ATOM      8  C   UNL d   1      12.793  11.780  -4.644  0.00  0.00     0.022 C 
ENDROOT
BRANCH   1   9
ATOM      9  N   UNL d   1      13.117  11.911  -2.917  0.00  0.00    -0.152 NA
BRANCH   9  10
ATOM     10  S   UNL d   1      13.574  11.878  -2.233  0.00  0.00     0.285 S 
ATOM     11  O   UNL d   1      14.256  11.825  -2.690  0.00  0.00    -0.198 OA
ATOM     12  O   UNL d   1      12.863  11.932  -1.759  0.00  0.00    -0.198 OA
BRANCH  10  13
ATOM     13  C   UNL d   1      14.021  11.845  -1.542  0.00  0.00     0.105 A 
ATOM     14  C   UNL d   1      13.647  11.832  -0.800  0.00  0.00     0.013 A 
ATOM     15  C   UNL d   1      14.091  11.799  -0.095  0.00  0.00     0.001 A 
ATOM     16  C   UNL d   1      14.903  11.779  -0.147  0.00  0.00     0.000 A 
ATOM     17  C   UNL d   1      15.294  11.792  -0.903  0.00  0.00     0.001 A 
ATOM     18  C   UNL d   1      14.865  11.824  -1.580  0.00  0.00     0.013 A 
ENDBRANCH  10  13
ENDBRANCH   9  10
ENDBRANCH   1   9
BRANCH   4  19
ATOM     19  C   UNL d   1      13.713  14.534  -4.086  0.00  0.00     0.085 A 
ATOM     20  C   UNL d   1      14.222  14.878  -3.536  0.00  0.00     0.019 A 
ATOM     21  C   UNL d   1      14.449  15.674  -3.607  0.00  0.00     0.002 A 
ATOM     22  C   UNL d   1      14.169  16.121  -4.220  0.00  0.00     0.000 A 
ATOM     23  C   UNL d   1      13.662  15.779  -4.767  0.00  0.00     0.002 A 
ATOM     24  C   UNL d   1      13.433  14.992  -4.704  0.00  0.00     0.019 A 
ENDBRANCH   4  19
TORSDOF 4
ENDMDL
