MODEL 1
REMARK VINA RESULT:       9.9      0.000      0.000
REMARK  4 active torsions:
REMARK  status: ('A' for Active; 'I' for Inactive)
REMARK    1  A    between atoms: N_7  and  C_6 
REMARK       I    between atoms: C_8  and  N_7 
REMARK    2  A    between atoms: C_14  and  C_8 
REMARK    3  A    between atoms: C_16  and  C_14 
REMARK    4  A    between atoms: C_17  and  C_16 
ROOT
ATOM      1  C   UNL d   1      46.573 -18.189  42.538  0.00  0.00     0.269 A 
ATOM      2  N   UNL d   1      46.573 -18.900  42.099  0.00  0.00    -0.239 N 
ATOM      3  C   UNL d   1      46.487 -18.401  43.333  0.00  0.00     0.079 A 
ATOM      4  C   UNL d   1      46.491 -19.518  42.615  0.00  0.00     0.267 A 
ATOM      5  C   UNL d   1      46.437 -19.223  43.380  0.00  0.00     0.063 A 
ATOM      6  C   UNL d   1      46.450 -17.945  44.015  0.00  0.00     0.089 A 
ATOM      7  O   UNL d   1      46.643 -17.425  42.243  0.00  0.00    -0.267 OA
ATOM      8  O   UNL d   1      46.465 -20.330  42.401  0.00  0.00    -0.267 OA
ATOM      9  C   UNL d   1      46.646 -18.956  41.279  0.00  0.00     0.105 C 
ATOM     10  C   UNL d   1      46.349 -19.589  44.109  0.00  0.00     0.005 A 
ATOM     11  C   UNL d   1      46.362 -18.312  44.749  0.00  0.00     0.019 A 
ATOM     12  C   UNL d   1      46.311 -19.134  44.797  0.00  0.00     0.002 A 
ENDROOT
BRANCH   6  13
ATOM     13  N   UNL d   1      46.501 -17.123  43.968  0.00  0.00    -0.208 NA
ATOM     14  C   UNL d   1      46.008 -16.657  44.434  0.00  0.00     0.279 C 
ATOM     15  O   UNL d   1      45.465 -17.003  44.947  0.00  0.00    -0.265 OA
BRANCH  14  16
ATOM     16  C   UNL d   1      46.059 -15.835  44.387  0.00  0.00     0.062 C 
BRANCH  16  17
ATOM     17  C   UNL d   1      45.507 -15.364  44.781  0.00  0.00     0.005 C 
BRANCH  17  18
ATOM     18  C   UNL d   1      45.448 -14.561  44.603  0.00  0.00     0.000 A 
ATOM     19  C   UNL d   1      45.977 -14.021  44.955  0.00  0.00     0.000 A 
ATOM     20  C   UNL d   1      45.918 -13.217  44.777  0.00  0.00     0.000 A 
ATOM     21  C   UNL d   1      45.331 -12.954  44.248  0.00  0.00     0.000 A 
ATOM     22  C   UNL d   1      44.819 -13.489  43.910  0.00  0.00     0.000 A 
ATOM     23  C   UNL d   1      44.878 -14.293  44.087  0.00  0.00     0.000 A 
ENDBRANCH  17  18
ENDBRANCH  16  17
ENDBRANCH  14  16
ENDBRANCH   6  13
TORSDOF 4
ENDMDL
