MODEL 1
REMARK VINA RESULT:      -8.2      0.000      0.000
REMARK  6 active torsions:
REMARK  status: ('A' for Active; 'I' for Inactive)
REMARK    1  A    between atoms: N_2  and  S_1 
REMARK    2  A    between atoms: C_3  and  S_1 
REMARK    3  A    between atoms: O_13  and  C_8 
REMARK    4  A    between atoms: C_14  and  O_13 
REMARK    5  A    between atoms: C_15  and  C_14 
REMARK    6  A    between atoms: C_16  and  C_15 
ROOT
ATOM      1  C   UNL d   1      51.789  33.884  53.119  0.00  0.00     0.104 A 
ATOM      2  C   UNL d   1      51.802  34.254  52.380  0.00  0.00     0.015 A 
ATOM      3  C   UNL d   1      51.111  33.658  53.455  0.00  0.00     0.015 A 
ATOM      4  C   UNL d   1      50.392  34.163  52.313  0.00  0.00     0.100 A 
ATOM      5  C   UNL d   1      51.113  34.390  51.985  0.00  0.00     0.025 A 
ATOM      6  C   UNL d   1      50.379  33.794  53.052  0.00  0.00     0.025 A 
ENDROOT
BRANCH   1   7
ATOM      7  S   UNL d   1      52.511  33.750  53.517  0.00  0.00     0.271 S 
ATOM      8  O   UNL d   1      52.260  32.978  53.671  0.00  0.00    -0.200 OA
ATOM      9  O   UNL d   1      52.754  34.535  53.354  0.00  0.00    -0.200 OA
BRANCH   7  10
ATOM     10  N   UNL d   1      53.242  33.615  53.920  0.00  0.00    -0.229 N 
ATOM     11  C   UNL d   1      53.715  33.080  53.485  0.00  0.00     0.092 A 
ATOM     12  C   UNL d   1      54.465  32.801  53.681  0.00  0.00     0.020 A 
ATOM     13  C   UNL d   1      54.905  32.983  54.332  0.00  0.00     0.002 A 
ATOM     14  C   UNL d   1      54.761  33.467  54.963  0.00  0.00     0.002 A 
ATOM     15  C   UNL d   1      54.075  33.916  55.084  0.00  0.00     0.020 A 
ATOM     16  C   UNL d   1      53.406  33.987  54.635  0.00  0.00     0.092 A 
ENDBRANCH   7  10
ENDBRANCH   1   7
BRANCH   4  17
ATOM     17  O   UNL d   1      49.695  34.308  51.899  0.00  0.00    -0.305 OA
BRANCH  17  18
ATOM     18  C   UNL d   1      49.176  34.865  52.171  0.00  0.00     0.123 C 
BRANCH  18  19
ATOM     19  C   UNL d   1      48.476  35.031  51.745  0.00  0.00     0.027 C 
BRANCH  19  20
ATOM     20  C   UNL d   1      47.983  35.652  51.971  0.00  0.00     0.002 C 
ATOM     21  C   UNL d   1      47.203  35.717  51.680  0.00  0.00     0.000 C 
ENDBRANCH  19  20
ENDBRANCH  18  19
ENDBRANCH  17  18
ENDBRANCH   4  17
TORSDOF 6
ENDMDL
MODEL 2
REMARK VINA RESULT:      -7.2      1.320      5.131
REMARK  6 active torsions:
REMARK  status: ('A' for Active; 'I' for Inactive)
REMARK    1  A    between atoms: N_2  and  S_1 
REMARK    2  A    between atoms: C_3  and  S_1 
REMARK    3  A    between atoms: O_13  and  C_8 
REMARK    4  A    between atoms: C_14  and  O_13 
REMARK    5  A    between atoms: C_15  and  C_14 
REMARK    6  A    between atoms: C_16  and  C_15 
ROOT
ATOM      1  C   UNL d   1      50.826  34.113  52.790  0.00  0.00     0.104 A 
ATOM      2  C   UNL d   1      50.826  33.366  53.142  0.00  0.00     0.015 A 
ATOM      3  C   UNL d   1      51.496  34.515  52.675  0.00  0.00     0.015 A 
ATOM      4  C   UNL d   1      52.234  33.428  53.267  0.00  0.00     0.100 A 
ATOM      5  C   UNL d   1      51.520  33.030  53.376  0.00  0.00     0.025 A 
ATOM      6  C   UNL d   1      52.233  34.175  52.915  0.00  0.00     0.025 A 
ENDROOT
BRANCH   1   7
ATOM      7  S   UNL d   1      50.098  34.449  52.553  0.00  0.00     0.271 S 
ATOM      8  O   UNL d   1      49.894  34.522  53.350  0.00  0.00    -0.200 OA
ATOM      9  O   UNL d   1      50.318  34.369  51.748  0.00  0.00    -0.200 OA
BRANCH   7  10
ATOM     10  N   UNL d   1      49.363  34.788  52.311  0.00  0.00    -0.229 N 
ATOM     11  C   UNL d   1      49.069  35.292  52.909  0.00  0.00     0.092 A 
ATOM     12  C   UNL d   1      48.370  35.730  52.897  0.00  0.00     0.020 A 
ATOM     13  C   UNL d   1      47.821  35.767  52.307  0.00  0.00     0.002 A 
ATOM     14  C   UNL d   1      47.780  35.409  51.584  0.00  0.00     0.002 A 
ATOM     15  C   UNL d   1      48.340  34.885  51.269  0.00  0.00     0.020 A 
ATOM     16  C   UNL d   1      49.035  34.608  51.578  0.00  0.00     0.092 A 
ENDBRANCH   7  10
ENDBRANCH   1   7
BRANCH   4  17
ATOM     17  O   UNL d   1      52.937  33.075  53.510  0.00  0.00    -0.305 OA
BRANCH  17  18
ATOM     18  C   UNL d   1      53.305  33.336  54.181  0.00  0.00     0.123 C 
BRANCH  18  19
ATOM     19  C   UNL d   1      54.042  33.013  54.408  0.00  0.00     0.027 C 
BRANCH  19  20
ATOM     20  C   UNL d   1      54.377  33.202  55.137  0.00  0.00     0.002 C 
ATOM     21  C   UNL d   1      55.107  33.603  55.191  0.00  0.00     0.000 C 
ENDBRANCH  19  20
ENDBRANCH  18  19
ENDBRANCH  17  18
ENDBRANCH   4  17
TORSDOF 6
ENDMDL
MODEL 3
REMARK VINA RESULT:      -5.6      2.666      4.747
REMARK  6 active torsions:
REMARK  status: ('A' for Active; 'I' for Inactive)
REMARK    1  A    between atoms: N_2  and  S_1 
REMARK    2  A    between atoms: C_3  and  S_1 
REMARK    3  A    between atoms: O_13  and  C_8 
REMARK    4  A    between atoms: C_14  and  O_13 
REMARK    5  A    between atoms: C_15  and  C_14 
REMARK    6  A    between atoms: C_16  and  C_15 
ROOT
ATOM      1  C   UNL d   1      53.233  32.492  53.675  0.00  0.00     0.104 A 
ATOM      2  C   UNL d   1      53.903  32.089  53.940  0.00  0.00     0.015 A 
ATOM      3  C   UNL d   1      52.651  32.117  53.294  0.00  0.00     0.015 A 
ATOM      4  C   UNL d   1      53.382  30.882  53.419  0.00  0.00     0.100 A 
ATOM      5  C   UNL d   1      53.975  31.297  53.813  0.00  0.00     0.025 A 
ATOM      6  C   UNL d   1      52.712  31.285  53.153  0.00  0.00     0.025 A 
ENDROOT
BRANCH   1   7
ATOM      7  S   UNL d   1      53.172  33.313  53.813  0.00  0.00     0.271 S 
ATOM      8  O   UNL d   1      53.976  33.384  53.637  0.00  0.00    -0.200 OA
ATOM      9  O   UNL d   1      52.357  33.229  53.990  0.00  0.00    -0.200 OA
BRANCH   7  10
ATOM     10  N   UNL d   1      53.109  34.145  53.954  0.00  0.00    -0.229 N 
ATOM     11  C   UNL d   1      53.276  34.314  54.756  0.00  0.00     0.092 A 
ATOM     12  C   UNL d   1      53.276  35.052  55.122  0.00  0.00     0.020 A 
ATOM     13  C   UNL d   1      53.116  35.769  54.789  0.00  0.00     0.002 A 
ATOM     14  C   UNL d   1      52.916  35.982  54.036  0.00  0.00     0.002 A 
ATOM     15  C   UNL d   1      52.826  35.466  53.393  0.00  0.00     0.020 A 
ATOM     16  C   UNL d   1      52.908  34.663  53.347  0.00  0.00     0.092 A 
ENDBRANCH   7  10
ENDBRANCH   1   7
BRANCH   4  17
ATOM     17  O   UNL d   1      53.467  30.073  53.295  0.00  0.00    -0.305 OA
BRANCH  17  18
ATOM     18  C   UNL d   1      53.078  29.551  53.776  0.00  0.00     0.123 C 
BRANCH  18  19
ATOM     19  C   UNL d   1      53.477  28.879  54.075  0.00  0.00     0.027 C 
BRANCH  19  20
ATOM     20  C   UNL d   1      53.248  28.538  54.790  0.00  0.00     0.002 C 
ATOM     21  C   UNL d   1      53.703  27.940  55.152  0.00  0.00     0.000 C 
ENDBRANCH  19  20
ENDBRANCH  18  19
ENDBRANCH  17  18
ENDBRANCH   4  17
TORSDOF 6
ENDMDL
