MODEL 1
REMARK VINA RESULT:      -9.6      0.000      0.000
REMARK  4 active torsions:
REMARK  status: ('A' for Active; 'I' for Inactive)
REMARK    1  A    between atoms: C_4  and  C_3 
REMARK    2  A    between atoms: C_5  and  C_4 
REMARK    3  A    between atoms: C_9  and  C_5 
REMARK    4  A    between atoms: C_13  and  C_9 
ROOT
ATOM      1  N   UNL d   1      53.238  33.620  53.522  0.00  0.00    -0.234 NA
ATOM      2  C   UNL d   1      52.563  34.046  53.315  0.00  0.00     0.138 A 
ATOM      3  C   UNL d   1      51.897  33.650  53.028  0.00  0.00     0.029 A 
ATOM      4  C   UNL d   1      53.250  32.799  53.441  0.00  0.00     0.082 A 
ATOM      5  C   UNL d   1      52.585  32.403  53.154  0.00  0.00     0.018 A 
ATOM      6  C   UNL d   1      51.953  32.855  52.966  0.00  0.00     0.004 A 
ATOM      7  C   UNL d   1      52.640  31.608  53.092  0.00  0.00     0.002 A 
ATOM      8  C   UNL d   1      53.925  32.373  53.648  0.00  0.00     0.019 A 
ATOM      9 CL   UNL d   1      52.551  34.867  53.396  0.00  0.00    -0.061 Cl
ATOM     10  C   UNL d   1      53.271  31.157  53.279  0.00  0.00     0.000 A 
ATOM     11  C   UNL d   1      53.937  31.553  53.567  0.00  0.00     0.002 A 
ATOM     12  C   UNL d   1      53.314  30.385  53.215  0.00  0.00     0.000 C 
ENDROOT
BRANCH   3  13
ATOM     13  C   UNL d   1      51.266  34.102  52.840  0.00  0.00     0.006 C 
BRANCH  13  14
ATOM     14  C   UNL d   1      50.584  34.273  52.408  0.00  0.00     0.042 C 
BRANCH  14  15
ATOM     15  C   UNL d   1      49.873  34.644  52.570  0.00  0.00     0.196 C 
ATOM     16  O   UNL d   1      49.727  34.947  53.325  0.00  0.00    -0.287 OA
BRANCH  15  17
ATOM     17  C   UNL d   1      49.300  34.720  51.994  0.00  0.00     0.039 A 
ATOM     18  C   UNL d   1      49.413  34.410  51.240  0.00  0.00     0.003 A 
ATOM     19  C   UNL d   1      48.821  34.498  50.672  0.00  0.00     0.000 A 
ATOM     20  C   UNL d   1      48.116  34.894  50.849  0.00  0.00     0.000 A 
ATOM     21  C   UNL d   1      48.001  35.203  51.596  0.00  0.00     0.000 A 
ATOM     22  C   UNL d   1      48.597  35.115  52.170  0.00  0.00     0.003 A 
ENDBRANCH  15  17
ENDBRANCH  14  15
ENDBRANCH  13  14
ENDBRANCH   3  13
TORSDOF 4
ENDMDL
MODEL 2
REMARK VINA RESULT:      -9.2      1.868      5.219
REMARK  4 active torsions:
REMARK  status: ('A' for Active; 'I' for Inactive)
REMARK    1  A    between atoms: C_4  and  C_3 
REMARK    2  A    between atoms: C_5  and  C_4 
REMARK    3  A    between atoms: C_9  and  C_5 
REMARK    4  A    between atoms: C_13  and  C_9 
ROOT
ATOM      1  N   UNL d   1      53.386  33.752  53.350  0.00  0.00    -0.234 NA
ATOM      2  C   UNL d   1      53.640  32.968  53.395  0.00  0.00     0.138 A 
ATOM      3  C   UNL d   1      53.102  32.353  53.276  0.00  0.00     0.029 A 
ATOM      4  C   UNL d   1      52.595  33.922  53.186  0.00  0.00     0.082 A 
ATOM      5  C   UNL d   1      52.057  33.306  53.066  0.00  0.00     0.018 A 
ATOM      6  C   UNL d   1      52.347  32.563  53.119  0.00  0.00     0.004 A 
ATOM      7  C   UNL d   1      51.302  33.515  52.910  0.00  0.00     0.002 A 
ATOM      8  C   UNL d   1      52.341  34.705  53.141  0.00  0.00     0.019 A 
ATOM      9 CL   UNL d   1      54.430  32.800  53.559  0.00  0.00    -0.061 Cl
ATOM     10  C   UNL d   1      51.013  34.258  52.857  0.00  0.00     0.000 A 
ATOM     11  C   UNL d   1      51.551  34.874  52.977  0.00  0.00     0.002 A 
ATOM     12  C   UNL d   1      50.278  34.450  52.705  0.00  0.00     0.000 C 
ENDROOT
BRANCH   3  13
ATOM     13  C   UNL d   1      53.391  31.610  53.328  0.00  0.00     0.006 C 
BRANCH  13  14
ATOM     14  C   UNL d   1      53.487  30.881  53.702  0.00  0.00     0.042 C 
BRANCH  14  15
ATOM     15  C   UNL d   1      53.266  30.110  53.535  0.00  0.00     0.196 C 
ATOM     16  O   UNL d   1      52.963  29.919  52.790  0.00  0.00    -0.287 OA
BRANCH  15  17
ATOM     17  C   UNL d   1      53.341  29.523  54.096  0.00  0.00     0.039 A 
ATOM     18  C   UNL d   1      53.782  28.845  53.944  0.00  0.00     0.003 A 
ATOM     19  C   UNL d   1      53.844  28.263  54.525  0.00  0.00     0.000 A 
ATOM     20  C   UNL d   1      53.471  28.351  55.259  0.00  0.00     0.000 A 
ATOM     21  C   UNL d   1      53.033  29.022  55.412  0.00  0.00     0.000 A 
ATOM     22  C   UNL d   1      52.969  29.610  54.827  0.00  0.00     0.003 A 
ENDBRANCH  15  17
ENDBRANCH  14  15
ENDBRANCH  13  14
ENDBRANCH   3  13
TORSDOF 4
ENDMDL
MODEL 3
REMARK VINA RESULT:      -9.0      1.332      1.987
REMARK  4 active torsions:
REMARK  status: ('A' for Active; 'I' for Inactive)
REMARK    1  A    between atoms: C_4  and  C_3 
REMARK    2  A    between atoms: C_5  and  C_4 
REMARK    3  A    between atoms: C_9  and  C_5 
REMARK    4  A    between atoms: C_13  and  C_9 
ROOT
ATOM      1  N   UNL d   1      53.121  32.220  53.603  0.00  0.00    -0.234 NA
ATOM      2  C   UNL d   1      52.444  32.486  53.215  0.00  0.00     0.138 A 
ATOM      3  C   UNL d   1      52.204  33.272  53.295  0.00  0.00     0.029 A 
ATOM      4  C   UNL d   1      53.560  32.739  54.072  0.00  0.00     0.082 A 
ATOM      5  C   UNL d   1      53.321  33.525  54.152  0.00  0.00     0.018 A 
ATOM      6  C   UNL d   1      52.659  33.740  53.758  0.00  0.00     0.004 A 
ATOM      7  C   UNL d   1      53.774  33.992  54.615  0.00  0.00     0.002 A 
ATOM      8  C   UNL d   1      54.237  32.473  54.460  0.00  0.00     0.019 A 
ATOM      9 CL   UNL d   1      52.006  31.968  52.747  0.00  0.00    -0.061 Cl
ATOM     10  C   UNL d   1      54.435  33.777  55.008  0.00  0.00     0.000 A 
ATOM     11  C   UNL d   1      54.675  32.991  54.928  0.00  0.00     0.002 A 
ATOM     12  C   UNL d   1      54.869  34.240  55.455  0.00  0.00     0.000 C 
ENDROOT
BRANCH   3  13
ATOM     13  C   UNL d   1      51.543  33.487  52.902  0.00  0.00     0.006 C 
BRANCH  13  14
ATOM     14  C   UNL d   1      50.871  33.952  52.788  0.00  0.00     0.042 C 
BRANCH  14  15
ATOM     15  C   UNL d   1      50.516  34.309  52.143  0.00  0.00     0.196 C 
ATOM     16  O   UNL d   1      50.911  34.341  51.418  0.00  0.00    -0.287 OA
BRANCH  15  17
ATOM     17  C   UNL d   1      49.772  34.637  52.204  0.00  0.00     0.039 A 
ATOM     18  C   UNL d   1      49.536  35.030  52.888  0.00  0.00     0.003 A 
ATOM     19  C   UNL d   1      48.779  35.355  52.929  0.00  0.00     0.000 A 
ATOM     20  C   UNL d   1      48.252  35.292  52.293  0.00  0.00     0.000 A 
ATOM     21  C   UNL d   1      48.484  34.903  51.613  0.00  0.00     0.000 A 
ATOM     22  C   UNL d   1      49.247  34.575  51.570  0.00  0.00     0.003 A 
ENDBRANCH  15  17
ENDBRANCH  14  15
ENDBRANCH  13  14
ENDBRANCH   3  13
TORSDOF 4
ENDMDL
MODEL 4
REMARK VINA RESULT:      -7.9      3.266      4.030
REMARK  4 active torsions:
REMARK  status: ('A' for Active; 'I' for Inactive)
REMARK    1  A    between atoms: C_4  and  C_3 
REMARK    2  A    between atoms: C_5  and  C_4 
REMARK    3  A    between atoms: C_9  and  C_5 
REMARK    4  A    between atoms: C_13  and  C_9 
ROOT
ATOM      1  N   UNL d   1      52.602  30.393  52.854  0.00  0.00    -0.234 NA
ATOM      2  C   UNL d   1      52.818  31.189  52.880  0.00  0.00     0.138 A 
ATOM      3  C   UNL d   1      53.296  31.467  53.494  0.00  0.00     0.029 A 
ATOM      4  C   UNL d   1      52.861  29.875  53.442  0.00  0.00     0.082 A 
ATOM      5  C   UNL d   1      53.339  30.153  54.056  0.00  0.00     0.018 A 
ATOM      6  C   UNL d   1      53.524  30.930  54.041  0.00  0.00     0.004 A 
ATOM      7  C   UNL d   1      53.567  29.617  54.602  0.00  0.00     0.002 A 
ATOM      8  C   UNL d   1      52.645  29.080  53.416  0.00  0.00     0.019 A 
ATOM      9 CL   UNL d   1      52.559  31.706  52.293  0.00  0.00    -0.061 Cl
ATOM     10  C   UNL d   1      53.382  28.840  54.617  0.00  0.00     0.000 A 
ATOM     11  C   UNL d   1      52.904  28.562  54.003  0.00  0.00     0.002 A 
ATOM     12  C   UNL d   1      53.609  28.329  55.153  0.00  0.00     0.000 C 
ENDROOT
BRANCH   3  13
ATOM     13  C   UNL d   1      53.481  32.244  53.479  0.00  0.00     0.006 C 
BRANCH  13  14
ATOM     14  C   UNL d   1      53.367  33.033  53.689  0.00  0.00     0.042 C 
BRANCH  14  15
ATOM     15  C   UNL d   1      53.845  33.633  53.973  0.00  0.00     0.196 C 
ATOM     16  O   UNL d   1      54.665  33.534  53.993  0.00  0.00    -0.287 OA
BRANCH  15  17
ATOM     17  C   UNL d   1      53.523  34.333  54.239  0.00  0.00     0.039 A 
ATOM     18  C   UNL d   1      53.510  34.516  55.042  0.00  0.00     0.003 A 
ATOM     19  C   UNL d   1      53.180  35.230  55.290  0.00  0.00     0.000 A 
ATOM     20  C   UNL d   1      52.862  35.766  54.745  0.00  0.00     0.000 A 
ATOM     21  C   UNL d   1      52.874  35.588  53.949  0.00  0.00     0.000 A 
ATOM     22  C   UNL d   1      53.206  34.868  53.696  0.00  0.00     0.003 A 
ENDBRANCH  15  17
ENDBRANCH  14  15
ENDBRANCH  13  14
ENDBRANCH   3  13
TORSDOF 4
ENDMDL
MODEL 5
REMARK VINA RESULT:      -7.8      3.146      5.193
REMARK  4 active torsions:
REMARK  status: ('A' for Active; 'I' for Inactive)
REMARK    1  A    between atoms: C_4  and  C_3 
REMARK    2  A    between atoms: C_5  and  C_4 
REMARK    3  A    between atoms: C_9  and  C_5 
REMARK    4  A    between atoms: C_13  and  C_9 
ROOT
ATOM      1  N   UNL d   1      52.883  33.456  53.471  0.00  0.00    -0.234 NA
ATOM      2  C   UNL d   1      52.731  32.678  53.241  0.00  0.00     0.138 A 
ATOM      3  C   UNL d   1      53.198  32.063  53.533  0.00  0.00     0.029 A 
ATOM      4  C   UNL d   1      53.501  33.619  53.993  0.00  0.00     0.082 A 
ATOM      5  C   UNL d   1      53.968  33.004  54.286  0.00  0.00     0.018 A 
ATOM      6  C   UNL d   1      53.785  32.266  54.036  0.00  0.00     0.004 A 
ATOM      7  C   UNL d   1      54.554  33.207  54.788  0.00  0.00     0.002 A 
ATOM      8  C   UNL d   1      53.653  34.396  54.223  0.00  0.00     0.019 A 
ATOM      9 CL   UNL d   1      52.114  32.515  52.719  0.00  0.00    -0.061 Cl
ATOM     10  C   UNL d   1      54.737  33.943  55.037  0.00  0.00     0.000 A 
ATOM     11  C   UNL d   1      54.270  34.559  54.745  0.00  0.00     0.002 A 
ATOM     12  C   UNL d   1      55.309  34.129  55.526  0.00  0.00     0.000 C 
ENDROOT
BRANCH   3  13
ATOM     13  C   UNL d   1      53.015  31.326  53.284  0.00  0.00     0.006 C 
BRANCH  13  14
ATOM     14  C   UNL d   1      53.140  30.512  53.236  0.00  0.00     0.042 C 
BRANCH  14  15
ATOM     15  C   UNL d   1      52.732  29.847  53.481  0.00  0.00     0.196 C 
ATOM     16  O   UNL d   1      51.981  29.686  53.175  0.00  0.00    -0.287 OA
BRANCH  15  17
ATOM     17  C   UNL d   1      53.055  29.336  54.028  0.00  0.00     0.039 A 
ATOM     18  C   UNL d   1      53.681  28.841  53.827  0.00  0.00     0.003 A 
ATOM     19  C   UNL d   1      53.994  28.331  54.396  0.00  0.00     0.000 A 
ATOM     20  C   UNL d   1      53.687  28.309  55.164  0.00  0.00     0.000 A 
ATOM     21  C   UNL d   1      53.066  28.799  55.366  0.00  0.00     0.000 A 
ATOM     22  C   UNL d   1      52.750  29.314  54.794  0.00  0.00     0.003 A 
ENDBRANCH  15  17
ENDBRANCH  14  15
ENDBRANCH  13  14
ENDBRANCH   3  13
TORSDOF 4
ENDMDL
MODEL 6
REMARK VINA RESULT:      -6.9      2.000      3.209
REMARK  4 active torsions:
REMARK  status: ('A' for Active; 'I' for Inactive)
REMARK    1  A    between atoms: C_4  and  C_3 
REMARK    2  A    between atoms: C_5  and  C_4 
REMARK    3  A    between atoms: C_9  and  C_5 
REMARK    4  A    between atoms: C_13  and  C_9 
ROOT
ATOM      1  N   UNL d   1      53.299  29.639  53.005  0.00  0.00    -0.234 NA
ATOM      2  C   UNL d   1      53.126  30.417  52.793  0.00  0.00     0.138 A 
ATOM      3  C   UNL d   1      52.966  30.978  53.378  0.00  0.00     0.029 A 
ATOM      4  C   UNL d   1      53.311  29.419  53.800  0.00  0.00     0.082 A 
ATOM      5  C   UNL d   1      53.150  29.980  54.385  0.00  0.00     0.018 A 
ATOM      6  C   UNL d   1      52.988  30.722  54.135  0.00  0.00     0.004 A 
ATOM      7  C   UNL d   1      53.173  29.724  55.141  0.00  0.00     0.002 A 
ATOM      8  C   UNL d   1      53.484  28.641  54.011  0.00  0.00     0.019 A 
ATOM      9 CL   UNL d   1      53.114  30.636  51.998  0.00  0.00    -0.061 Cl
ATOM     10  C   UNL d   1      53.335  28.983  55.391  0.00  0.00     0.000 A 
ATOM     11  C   UNL d   1      53.496  28.422  54.806  0.00  0.00     0.002 A 
ATOM     12  C   UNL d   1      53.354  28.746  56.129  0.00  0.00     0.000 C 
ENDROOT
BRANCH   3  13
ATOM     13  C   UNL d   1      52.803  31.719  53.128  0.00  0.00     0.006 C 
BRANCH  13  14
ATOM     14  C   UNL d   1      52.292  32.340  52.945  0.00  0.00     0.042 C 
BRANCH  14  15
ATOM     15  C   UNL d   1      52.297  33.150  53.064  0.00  0.00     0.196 C 
ATOM     16  O   UNL d   1      52.964  33.516  53.387  0.00  0.00    -0.287 OA
BRANCH  15  17
ATOM     17  C   UNL d   1      51.650  33.605  52.868  0.00  0.00     0.039 A 
ATOM     18  C   UNL d   1      51.023  33.699  53.393  0.00  0.00     0.003 A 
ATOM     19  C   UNL d   1      50.377  34.164  53.175  0.00  0.00     0.000 A 
ATOM     20  C   UNL d   1      50.351  34.538  52.437  0.00  0.00     0.000 A 
ATOM     21  C   UNL d   1      50.971  34.447  51.915  0.00  0.00     0.000 A 
ATOM     22  C   UNL d   1      51.623  33.978  52.133  0.00  0.00     0.003 A 
ENDBRANCH  15  17
ENDBRANCH  14  15
ENDBRANCH  13  14
ENDBRANCH   3  13
TORSDOF 4
ENDMDL
