MODEL 1
REMARK VINA RESULT:      43.4      0.000      0.000
REMARK  6 active torsions:
REMARK  status: ('A' for Active; 'I' for Inactive)
REMARK    1  A    between atoms: C_3  and  N_1 
REMARK    2  A    between atoms: N_9  and  C_3 
REMARK    3  A    between atoms: C_7  and  C_4 
REMARK    4  A    between atoms: C_8  and  C_5 
REMARK    5  A    between atoms: C_16  and  N_9 
REMARK    6  A    between atoms: O_17  and  C_13 
ROOT
ATOM      1  N   UNL d   1      13.964  13.330  -3.246  0.00  0.00    -0.201 N 
ATOM      2  N   UNL d   1      14.206  14.054  -2.929  0.00  0.00    -0.163 NA
ATOM      3  C   UNL d   1      14.217  14.605  -3.548  0.00  0.00     0.105 A 
ATOM      4  C   UNL d   1      13.823  13.415  -4.050  0.00  0.00     0.110 A 
ATOM      5  C   UNL d   1      13.988  14.213  -4.208  0.00  0.00     0.042 A 
ENDROOT
BRANCH   1   6
ATOM      6  C   UNL d   1      13.876  12.628  -2.821  0.00  0.00     0.222 C 
ATOM      7  S   UNL d   1      13.060  12.685  -2.911  0.00  0.00    -0.037 SA
BRANCH   6   8
ATOM      8  N   UNL d   1      13.797  11.919  -2.392  0.00  0.00    -0.217 NA
BRANCH   8   9
ATOM      9  C   UNL d   1      14.051  11.891  -1.631  0.00  0.00     0.084 A 
ATOM     10  C   UNL d   1      14.864  11.940  -1.440  0.00  0.00     0.019 A 
ATOM     11  C   UNL d   1      15.091  11.909  -0.654  0.00  0.00     0.002 A 
ATOM     12  C   UNL d   1      14.556  11.831  -0.057  0.00  0.00     0.000 A 
ATOM     13  C   UNL d   1      13.742  11.779  -0.223  0.00  0.00     0.002 A 
ATOM     14  C   UNL d   1      13.490  11.809  -1.010  0.00  0.00     0.019 A 
ENDBRANCH   8   9
ENDBRANCH   6   8
ENDBRANCH   1   6
BRANCH   4  15
ATOM     15  C   UNL d   1      13.520  12.703  -4.684  0.00  0.00     0.118 A 
ATOM     16  O   UNL d   1      13.991  12.343  -5.299  0.00  0.00    -0.304 OA
ATOM     17  C   UNL d   1      13.531  11.786  -5.690  0.00  0.00     0.123 A 
ATOM     18  C   UNL d   1      12.782  11.781  -5.342  0.00  0.00     0.029 A 
ATOM     19  C   UNL d   1      12.769  12.320  -4.748  0.00  0.00     0.028 A 
ENDBRANCH   4  15
BRANCH   3  20
ATOM     20  C   UNL d   1      14.441  15.455  -3.474  0.00  0.00     0.042 A 
ATOM     21  C   UNL d   1      14.636  16.172  -3.178  0.00  0.00     0.096 A 
ATOM     22  C   UNL d   1      14.771  16.738  -3.693  0.00  0.00     0.024 A 
ATOM     23  C   UNL d   1      14.719  16.613  -4.507  0.00  0.00     0.002 A 
ATOM     24  C   UNL d   1      14.531  15.921  -4.806  0.00  0.00     0.000 A 
ATOM     25  C   UNL d   1      14.388  15.329  -4.288  0.00  0.00     0.004 A 
BRANCH  21  26
ATOM     26  O   UNL d   1      14.689  16.297  -2.365  0.00  0.00    -0.328 OA
ATOM     27  C   UNL d   1      15.092  16.878  -2.114  0.00  0.00     0.181 C 
ENDBRANCH  21  26
ENDBRANCH   3  20
TORSDOF 6
ENDMDL
