MODEL 1
REMARK VINA RESULT:      -9.8      0.000      0.000
REMARK  2 active torsions:
REMARK  status: ('A' for Active; 'I' for Inactive)
REMARK    1  A    between atoms: C_7  and  C_1 
REMARK    2  A    between atoms: O_19  and  C_15 
ROOT
ATOM      1  C   UNL d   1      52.158  34.200  53.391  0.00  0.00     0.064 A 
ATOM      2  C   UNL d   1      52.506  33.467  53.586  0.00  0.00     0.199 A 
ATOM      3  C   UNL d   1      53.169  33.437  54.080  0.00  0.00     0.062 A 
ATOM      4  C   UNL d   1      52.483  34.907  53.698  0.00  0.00     0.126 A 
ATOM      5  C   UNL d   1      53.491  34.146  54.385  0.00  0.00     0.106 A 
ATOM      6  O   UNL d   1      53.153  34.876  54.197  0.00  0.00    -0.305 OA
ATOM      7  C   UNL d   1      53.509  32.715  54.270  0.00  0.00     0.009 A 
ATOM      8  C   UNL d   1      54.153  34.115  54.878  0.00  0.00     0.067 A 
ATOM      9  O   UNL d   1      52.185  32.769  53.283  0.00  0.00    -0.286 OA
ATOM     10  C   UNL d   1      54.489  33.384  55.064  0.00  0.00     0.198 A 
ATOM     11  C   UNL d   1      54.168  32.686  54.762  0.00  0.00     0.042 A 
ATOM     12  O   UNL d   1      55.149  33.354  55.556  0.00  0.00    -0.286 OA
ENDROOT
BRANCH   1  13
ATOM     13  C   UNL d   1      51.501  34.225  52.901  0.00  0.00     0.005 A 
ATOM     14  C   UNL d   1      50.745  34.235  53.232  0.00  0.00     0.002 A 
ATOM     15  C   UNL d   1      50.087  34.261  52.737  0.00  0.00     0.024 A 
ATOM     16  C   UNL d   1      50.178  34.277  51.917  0.00  0.00     0.094 A 
ATOM     17  C   UNL d   1      50.944  34.267  51.591  0.00  0.00     0.024 A 
ATOM     18  C   UNL d   1      51.603  34.241  52.084  0.00  0.00     0.002 A 
BRANCH  16  19
ATOM     19  O   UNL d   1      49.520  34.303  51.423  0.00  0.00    -0.328 OA
ATOM     20  C   UNL d   1      48.857  34.746  51.640  0.00  0.00     0.181 C 
ENDBRANCH  16  19
ENDBRANCH   1  13
TORSDOF 2
ENDMDL
MODEL 2
REMARK VINA RESULT:      -9.2      1.974      3.549
REMARK  2 active torsions:
REMARK  status: ('A' for Active; 'I' for Inactive)
REMARK    1  A    between atoms: C_7  and  C_1 
REMARK    2  A    between atoms: O_19  and  C_15 
ROOT
ATOM      1  C   UNL d   1      53.003  32.766  53.526  0.00  0.00     0.064 A 
ATOM      2  C   UNL d   1      53.235  33.128  54.241  0.00  0.00     0.199 A 
ATOM      3  C   UNL d   1      53.187  33.950  54.329  0.00  0.00     0.062 A 
ATOM      4  C   UNL d   1      52.721  33.238  52.895  0.00  0.00     0.126 A 
ATOM      5  C   UNL d   1      52.904  34.418  53.696  0.00  0.00     0.106 A 
ATOM      6  O   UNL d   1      52.673  34.068  52.984  0.00  0.00    -0.305 OA
ATOM      7  C   UNL d   1      53.415  34.304  55.033  0.00  0.00     0.009 A 
ATOM      8  C   UNL d   1      52.857  35.238  53.784  0.00  0.00     0.067 A 
ATOM      9  O   UNL d   1      53.513  32.663  54.863  0.00  0.00    -0.286 OA
ATOM     10  C   UNL d   1      53.089  35.586  54.497  0.00  0.00     0.198 A 
ATOM     11  C   UNL d   1      53.367  35.121  55.119  0.00  0.00     0.042 A 
ATOM     12  O   UNL d   1      53.041  36.403  54.583  0.00  0.00    -0.286 OA
ENDROOT
BRANCH   1  13
ATOM     13  C   UNL d   1      53.052  31.952  53.443  0.00  0.00     0.005 A 
ATOM     14  C   UNL d   1      53.787  31.581  53.493  0.00  0.00     0.002 A 
ATOM     15  C   UNL d   1      53.833  30.763  53.409  0.00  0.00     0.024 A 
ATOM     16  C   UNL d   1      53.152  30.314  53.277  0.00  0.00     0.094 A 
ATOM     17  C   UNL d   1      52.414  30.697  53.228  0.00  0.00     0.024 A 
ATOM     18  C   UNL d   1      52.367  31.515  53.312  0.00  0.00     0.002 A 
BRANCH  16  19
ATOM     19  O   UNL d   1      53.199  29.497  53.193  0.00  0.00    -0.328 OA
ATOM     20  C   UNL d   1      53.207  29.012  53.863  0.00  0.00     0.181 C 
ENDBRANCH  16  19
ENDBRANCH   1  13
TORSDOF 2
ENDMDL
MODEL 3
REMARK VINA RESULT:      -8.6      2.106      3.575
REMARK  2 active torsions:
REMARK  status: ('A' for Active; 'I' for Inactive)
REMARK    1  A    between atoms: C_7  and  C_1 
REMARK    2  A    between atoms: O_19  and  C_15 
ROOT
ATOM      1  C   UNL d   1      53.067  32.505  53.507  0.00  0.00     0.064 A 
ATOM      2  C   UNL d   1      53.315  31.880  54.001  0.00  0.00     0.199 A 
ATOM      3  C   UNL d   1      53.193  31.094  53.775  0.00  0.00     0.062 A 
ATOM      4  C   UNL d   1      52.694  32.333  52.778  0.00  0.00     0.126 A 
ATOM      5  C   UNL d   1      52.819  30.926  53.045  0.00  0.00     0.106 A 
ATOM      6  O   UNL d   1      52.571  31.538  52.549  0.00  0.00    -0.305 OA
ATOM      7  C   UNL d   1      53.438  30.481  54.262  0.00  0.00     0.009 A 
ATOM      8  C   UNL d   1      52.698  30.141  52.819  0.00  0.00     0.067 A 
ATOM      9  O   UNL d   1      53.683  32.050  54.720  0.00  0.00    -0.286 OA
ATOM     10  C   UNL d   1      52.948  29.530  53.317  0.00  0.00     0.198 A 
ATOM     11  C   UNL d   1      53.316  29.699  54.036  0.00  0.00     0.042 A 
ATOM     12  O   UNL d   1      52.827  28.748  53.091  0.00  0.00    -0.286 OA
ENDROOT
BRANCH   1  13
ATOM     13  C   UNL d   1      53.189  33.283  53.735  0.00  0.00     0.005 A 
ATOM     14  C   UNL d   1      52.542  33.764  53.906  0.00  0.00     0.002 A 
ATOM     15  C   UNL d   1      52.668  34.545  54.135  0.00  0.00     0.024 A 
ATOM     16  C   UNL d   1      53.433  34.848  54.194  0.00  0.00     0.094 A 
ATOM     17  C   UNL d   1      54.082  34.355  54.020  0.00  0.00     0.024 A 
ATOM     18  C   UNL d   1      53.957  33.574  53.791  0.00  0.00     0.002 A 
BRANCH  16  19
ATOM     19  O   UNL d   1      53.559  35.628  54.423  0.00  0.00    -0.328 OA
ATOM     20  C   UNL d   1      52.965  36.044  54.822  0.00  0.00     0.181 C 
ENDBRANCH  16  19
ENDBRANCH   1  13
TORSDOF 2
ENDMDL
MODEL 4
REMARK VINA RESULT:      -7.8      0.806      4.312
REMARK  2 active torsions:
REMARK  status: ('A' for Active; 'I' for Inactive)
REMARK    1  A    between atoms: C_7  and  C_1 
REMARK    2  A    between atoms: O_19  and  C_15 
ROOT
ATOM      1  C   UNL d   1      52.252  33.862  53.094  0.00  0.00     0.064 A 
ATOM      2  C   UNL d   1      51.469  33.990  53.351  0.00  0.00     0.199 A 
ATOM      3  C   UNL d   1      50.870  34.149  52.802  0.00  0.00     0.062 A 
ATOM      4  C   UNL d   1      52.432  33.893  52.277  0.00  0.00     0.126 A 
ATOM      5  C   UNL d   1      51.053  34.180  51.986  0.00  0.00     0.106 A 
ATOM      6  O   UNL d   1      51.826  34.054  51.724  0.00  0.00    -0.305 OA
ATOM      7  C   UNL d   1      50.100  34.276  53.056  0.00  0.00     0.009 A 
ATOM      8  C   UNL d   1      50.455  34.338  51.439  0.00  0.00     0.067 A 
ATOM      9  O   UNL d   1      51.292  33.959  54.156  0.00  0.00    -0.286 OA
ATOM     10  C   UNL d   1      49.682  34.465  51.705  0.00  0.00     0.198 A 
ATOM     11  C   UNL d   1      49.505  34.433  52.510  0.00  0.00     0.042 A 
ATOM     12  O   UNL d   1      49.087  34.622  51.158  0.00  0.00    -0.286 OA
ENDROOT
BRANCH   1  13
ATOM     13  C   UNL d   1      52.843  33.705  53.641  0.00  0.00     0.005 A 
ATOM     14  C   UNL d   1      53.201  34.329  54.045  0.00  0.00     0.002 A 
ATOM     15  C   UNL d   1      53.794  34.168  54.593  0.00  0.00     0.024 A 
ATOM     16  C   UNL d   1      54.031  33.391  54.741  0.00  0.00     0.094 A 
ATOM     17  C   UNL d   1      53.664  32.767  54.329  0.00  0.00     0.024 A 
ATOM     18  C   UNL d   1      53.071  32.926  53.781  0.00  0.00     0.002 A 
BRANCH  16  19
ATOM     19  O   UNL d   1      54.623  33.231  55.289  0.00  0.00    -0.328 OA
ATOM     20  C   UNL d   1      55.301  33.704  55.317  0.00  0.00     0.181 C 
ENDBRANCH  16  19
ENDBRANCH   1  13
TORSDOF 2
ENDMDL
MODEL 5
REMARK VINA RESULT:      -7.7      1.691      2.140
REMARK  2 active torsions:
REMARK  status: ('A' for Active; 'I' for Inactive)
REMARK    1  A    between atoms: C_7  and  C_1 
REMARK    2  A    between atoms: O_19  and  C_15 
ROOT
ATOM      1  C   UNL d   1      52.262  32.796  53.138  0.00  0.00     0.064 A 
ATOM      2  C   UNL d   1      52.114  31.983  53.024  0.00  0.00     0.199 A 
ATOM      3  C   UNL d   1      52.706  31.425  53.176  0.00  0.00     0.062 A 
ATOM      4  C   UNL d   1      53.013  33.047  53.408  0.00  0.00     0.126 A 
ATOM      5  C   UNL d   1      53.456  31.680  53.446  0.00  0.00     0.106 A 
ATOM      6  O   UNL d   1      53.611  32.483  53.562  0.00  0.00    -0.305 OA
ATOM      7  C   UNL d   1      52.559  30.626  53.063  0.00  0.00     0.009 A 
ATOM      8  C   UNL d   1      54.047  31.122  53.598  0.00  0.00     0.067 A 
ATOM      9  O   UNL d   1      51.374  31.736  52.758  0.00  0.00    -0.286 OA
ATOM     10  C   UNL d   1      53.889  30.319  53.482  0.00  0.00     0.198 A 
ATOM     11  C   UNL d   1      53.148  30.072  53.215  0.00  0.00     0.042 A 
ATOM     12  O   UNL d   1      54.478  29.765  53.633  0.00  0.00    -0.286 OA
ENDROOT
BRANCH   1  13
ATOM     13  C   UNL d   1      51.673  33.346  52.986  0.00  0.00     0.005 A 
ATOM     14  C   UNL d   1      51.061  33.449  53.530  0.00  0.00     0.002 A 
ATOM     15  C   UNL d   1      50.471  34.002  53.374  0.00  0.00     0.024 A 
ATOM     16  C   UNL d   1      50.487  34.451  52.682  0.00  0.00     0.094 A 
ATOM     17  C   UNL d   1      51.108  34.341  52.139  0.00  0.00     0.024 A 
ATOM     18  C   UNL d   1      51.699  33.789  52.293  0.00  0.00     0.002 A 
BRANCH  16  19
ATOM     19  O   UNL d   1      49.897  35.003  52.527  0.00  0.00    -0.328 OA
ATOM     20  C   UNL d   1      49.197  34.768  52.156  0.00  0.00     0.181 C 
ENDBRANCH  16  19
ENDBRANCH   1  13
TORSDOF 2
ENDMDL
MODEL 6
REMARK VINA RESULT:      -7.4      1.010      4.577
REMARK  2 active torsions:
REMARK  status: ('A' for Active; 'I' for Inactive)
REMARK    1  A    between atoms: C_7  and  C_1 
REMARK    2  A    between atoms: O_19  and  C_15 
ROOT
ATOM      1  C   UNL d   1      50.841  34.312  52.825  0.00  0.00     0.064 A 
ATOM      2  C   UNL d   1      50.654  34.226  52.016  0.00  0.00     0.199 A 
ATOM      3  C   UNL d   1      49.895  34.408  51.740  0.00  0.00     0.062 A 
ATOM      4  C   UNL d   1      50.257  34.585  53.358  0.00  0.00     0.126 A 
ATOM      5  C   UNL d   1      49.314  34.681  52.277  0.00  0.00     0.106 A 
ATOM      6  O   UNL d   1      49.490  34.770  53.079  0.00  0.00    -0.305 OA
ATOM      7  C   UNL d   1      49.713  34.322  50.945  0.00  0.00     0.009 A 
ATOM      8  C   UNL d   1      48.557  34.863  52.001  0.00  0.00     0.067 A 
ATOM      9  O   UNL d   1      51.229  33.956  51.490  0.00  0.00    -0.286 OA
ATOM     10  C   UNL d   1      48.383  34.773  51.198  0.00  0.00     0.198 A 
ATOM     11  C   UNL d   1      48.959  34.504  50.672  0.00  0.00     0.042 A 
ATOM     12  O   UNL d   1      47.628  34.955  50.924  0.00  0.00    -0.286 OA
ENDROOT
BRANCH   1  13
ATOM     13  C   UNL d   1      51.593  34.130  53.094  0.00  0.00     0.005 A 
ATOM     14  C   UNL d   1      52.159  34.727  53.158  0.00  0.00     0.002 A 
ATOM     15  C   UNL d   1      52.914  34.541  53.429  0.00  0.00     0.024 A 
ATOM     16  C   UNL d   1      53.108  33.766  53.636  0.00  0.00     0.094 A 
ATOM     17  C   UNL d   1      52.531  33.169  53.568  0.00  0.00     0.024 A 
ATOM     18  C   UNL d   1      51.776  33.354  53.298  0.00  0.00     0.002 A 
BRANCH  16  19
ATOM     19  O   UNL d   1      53.863  33.581  53.906  0.00  0.00    -0.328 OA
ATOM     20  C   UNL d   1      54.024  33.581  54.717  0.00  0.00     0.181 C 
ENDBRANCH  16  19
ENDBRANCH   1  13
TORSDOF 2
ENDMDL
