MODEL 1
REMARK VINA RESULT:      14.5      0.000      0.000
REMARK  6 active torsions:
REMARK  status: ('A' for Active; 'I' for Inactive)
REMARK    1  A    between atoms: C_16  and  C_2 
REMARK    2  A    between atoms: C_11  and  C_7 
REMARK    3  A    between atoms: S_17  and  C_9 
REMARK    4  A    between atoms: O_20  and  C_11 
REMARK    5  A    between atoms: C_13  and  C_19 
REMARK    6  A    between atoms: C_19  and  S_17 
ROOT
ATOM      1  N   UNL d   1      46.494 -19.054  43.433  0.00  0.00    -0.191 N 
ATOM      2  C   UNL d   1      46.539 -19.513  42.755  0.00  0.00     0.187 A 
ATOM      3  N   UNL d   1      46.542 -20.300  42.986  0.00  0.00    -0.127 NA
ATOM      4  C   UNL d   1      46.469 -19.544  44.088  0.00  0.00     0.187 A 
ATOM      5  N   UNL d   1      46.473 -18.222  43.540  0.00  0.00    -0.156 NA
ATOM      6  N   UNL d   1      46.499 -20.328  43.810  0.00  0.00    -0.127 NA
ATOM      7  C   UNL d   1      46.427 -17.904  44.300  0.00  0.00     0.131 A 
ATOM      8  C   UNL d   1      46.423 -19.225  44.848  0.00  0.00     0.043 A 
ATOM      9  C   UNL d   1      46.402 -18.406  44.954  0.00  0.00     0.031 A 
ENDROOT
BRANCH   7  10
ATOM     10  S   UNL d   1      46.405 -17.085  44.406  0.00  0.00    -0.064 SA
BRANCH  10  11
ATOM     11  C   UNL d   1      45.689 -16.683  44.353  0.00  0.00     0.062 C 
BRANCH  11  12
ATOM     12  C   UNL d   1      45.672 -15.870  44.441  0.00  0.00     0.107 A 
ATOM     13  O   UNL d   1      45.079 -15.369  44.173  0.00  0.00    -0.301 OA
ATOM     14  C   UNL d   1      45.276 -14.601  44.374  0.00  0.00     0.163 A 
ATOM     15  C   UNL d   1      46.004 -14.616  44.773  0.00  0.00     0.032 A 
ATOM     16  C   UNL d   1      46.245 -15.404  44.812  0.00  0.00     0.027 A 
BRANCH  14  17
ATOM     17  C   UNL d   1      44.840 -13.923  44.214  0.00  0.00     0.319 C 
ATOM     18  O   UNL d   1      44.100 -13.794  44.566  0.00  0.00    -0.257 OA
BRANCH  17  19
ATOM     19  O   UNL d   1      45.139 -13.356  43.694  0.00  0.00    -0.294 OA
ATOM     20  C   UNL d   1      44.741 -12.641  43.570  0.00  0.00     0.185 C 
ENDBRANCH  17  19
ENDBRANCH  14  17
ENDBRANCH  11  12
ENDBRANCH  10  11
ENDBRANCH   7  10
BRANCH   2  21
ATOM     21  C   UNL d   1      46.574 -19.243  41.982  0.00  0.00     0.038 A 
ATOM     22  C   UNL d   1      46.608 -19.789  41.362  0.00  0.00     0.003 A 
ATOM     23  C   UNL d   1      46.644 -19.521  40.578  0.00  0.00     0.000 A 
ATOM     24  C   UNL d   1      46.646 -18.711  40.423  0.00  0.00     0.000 A 
ATOM     25  C   UNL d   1      46.613 -18.164  41.044  0.00  0.00     0.000 A 
ATOM     26  C   UNL d   1      46.577 -18.439  41.823  0.00  0.00     0.003 A 
ENDBRANCH   2  21
TORSDOF 6
ENDMDL
