MODEL 1
REMARK VINA RESULT:      -6.5      0.000      0.000
REMARK  4 active torsions:
REMARK  status: ('A' for Active; 'I' for Inactive)
REMARK    1  A    between atoms: C_6  and  C_1 
REMARK    2  A    between atoms: C_8  and  N_3 
REMARK       I    between atoms: N_7  and  C_6 
REMARK    3  A    between atoms: C_9  and  N_7 
REMARK    4  A    between atoms: O_19  and  C_16 
ROOT
ATOM      1  C   UNL d   1     -41.456-122.449 -51.882  0.00  0.00     0.199 A 
ATOM      2  C   UNL d   1     -41.712-122.934 -51.268  0.00  0.00     0.211 A 
ATOM      3  N   UNL d   1     -41.565-122.550 -50.556  0.00  0.00    -0.191 N 
ATOM      4  N   UNL d   1     -41.216-121.820 -50.729  0.00  0.00    -0.058 NA
ATOM      5  N   UNL d   1     -41.146-121.753 -51.545  0.00  0.00    -0.122 NA
ATOM      6  N   UNL d   1     -42.056-123.677 -51.356  0.00  0.00    -0.125 N 
ENDROOT
BRANCH   1   7
ATOM      7  C   UNL d   1     -41.498-122.621 -52.690  0.00  0.00     0.302 C 
ATOM      8  N   UNL d   1     -41.670-122.013 -53.229  0.00  0.00    -0.204 NA
ATOM      9  O   UNL d   1     -41.371-123.390 -52.958  0.00  0.00    -0.263 OA
BRANCH   8  10
ATOM     10  C   UNL d   1     -41.710-122.191 -54.034  0.00  0.00     0.112 A 
ATOM     11  C   UNL d   1     -42.300-121.844 -54.494  0.00  0.00     0.158 A 
ATOM     12  F   UNL d   1     -42.840-121.327 -54.155  0.00  0.00    -0.203 F 
ATOM     13  C   UNL d   1     -42.346-122.020 -55.307  0.00  0.00     0.031 A 
ATOM     14  C   UNL d   1     -41.804-122.537 -55.641  0.00  0.00     0.002 A 
ATOM     15  C   UNL d   1     -41.213-122.885 -55.177  0.00  0.00     0.002 A 
ATOM     16  C   UNL d   1     -41.171-122.707 -54.373  0.00  0.00     0.021 A 
ENDBRANCH   8  10
ENDBRANCH   1   7
BRANCH   3  17
ATOM     17  C   UNL d   1     -41.736-122.838 -49.803  0.00  0.00     0.086 A 
ATOM     18  C   UNL d   1     -42.487-122.728 -49.480  0.00  0.00     0.021 A 
ATOM     19  C   UNL d   1     -42.658-123.017 -48.727  0.00  0.00     0.026 A 
ATOM     20  C   UNL d   1     -42.077-123.416 -48.297  0.00  0.00     0.094 A 
ATOM     21  C   UNL d   1     -41.327-123.525 -48.620  0.00  0.00     0.026 A 
ATOM     22  C   UNL d   1     -41.156-123.236 -49.373  0.00  0.00     0.021 A 
BRANCH  20  23
ATOM     23  O   UNL d   1     -42.248-123.705 -47.543  0.00  0.00    -0.328 OA
ATOM     24  C   UNL d   1     -42.094-123.241 -46.879  0.00  0.00     0.181 C 
ENDBRANCH  20  23
ENDBRANCH   3  17
TORSDOF 4
ENDMDL
MODEL 2
REMARK VINA RESULT:      -5.8      1.506      5.210
REMARK  4 active torsions:
REMARK  status: ('A' for Active; 'I' for Inactive)
REMARK    1  A    between atoms: C_6  and  C_1 
REMARK    2  A    between atoms: C_8  and  N_3 
REMARK       I    between atoms: N_7  and  C_6 
REMARK    3  A    between atoms: C_9  and  N_7 
REMARK    4  A    between atoms: O_19  and  C_16 
ROOT
ATOM      1  C   UNL d   1     -41.384-122.530 -51.030  0.00  0.00     0.199 A 
ATOM      2  C   UNL d   1     -41.575-122.825 -51.774  0.00  0.00     0.211 A 
ATOM      3  N   UNL d   1     -41.435-122.235 -52.330  0.00  0.00    -0.191 N 
ATOM      4  N   UNL d   1     -41.156-121.569 -51.927  0.00  0.00    -0.058 NA
ATOM      5  N   UNL d   1     -41.123-121.746 -51.126  0.00  0.00    -0.122 NA
ATOM      6  N   UNL d   1     -41.857-123.583 -51.932  0.00  0.00    -0.125 N 
ENDROOT
BRANCH   1   7
ATOM      7  C   UNL d   1     -41.442-122.939 -50.313  0.00  0.00     0.302 C 
ATOM      8  N   UNL d   1     -41.825-122.583 -49.668  0.00  0.00    -0.204 NA
ATOM      9  O   UNL d   1     -41.123-123.695 -50.239  0.00  0.00    -0.263 OA
BRANCH   8  10
ATOM     10  C   UNL d   1     -41.879-122.996 -48.955  0.00  0.00     0.112 A 
ATOM     11  C   UNL d   1     -42.603-123.029 -48.563  0.00  0.00     0.158 A 
ATOM     12  F   UNL d   1     -43.262-122.655 -48.877  0.00  0.00    -0.203 F 
ATOM     13  C   UNL d   1     -42.664-123.445 -47.844  0.00  0.00     0.031 A 
ATOM     14  C   UNL d   1     -42.002-123.817 -47.534  0.00  0.00     0.002 A 
ATOM     15  C   UNL d   1     -41.275-123.783 -47.929  0.00  0.00     0.002 A 
ATOM     16  C   UNL d   1     -41.220-123.370 -48.642  0.00  0.00     0.021 A 
ENDBRANCH   8  10
ENDBRANCH   1   7
BRANCH   3  17
ATOM     17  C   UNL d   1     -41.553-122.296 -53.143  0.00  0.00     0.086 A 
ATOM     18  C   UNL d   1     -41.123-122.847 -53.582  0.00  0.00     0.021 A 
ATOM     19  C   UNL d   1     -41.240-122.908 -54.396  0.00  0.00     0.026 A 
ATOM     20  C   UNL d   1     -41.787-122.417 -54.771  0.00  0.00     0.094 A 
ATOM     21  C   UNL d   1     -42.216-121.866 -54.333  0.00  0.00     0.026 A 
ATOM     22  C   UNL d   1     -42.099-121.805 -53.518  0.00  0.00     0.021 A 
BRANCH  20  23
ATOM     23  O   UNL d   1     -41.904-122.477 -55.585  0.00  0.00    -0.328 OA
ATOM     24  C   UNL d   1     -42.463-121.999 -55.958  0.00  0.00     0.181 C 
ENDBRANCH  20  23
ENDBRANCH   3  17
TORSDOF 4
ENDMDL
