MODEL 1
REMARK VINA RESULT:      -1.2      0.000      0.000
REMARK  7 active torsions:
REMARK  status: ('A' for Active; 'I' for Inactive)
REMARK    1  A    between atoms: N_6  and  C_1 
REMARK    2  A    between atoms: N_8  and  C_2 
REMARK    3  A    between atoms: N_10  and  C_7 
REMARK    4  A    between atoms: C_13  and  N_8 
REMARK    5  A    between atoms: C_14  and  N_10 
REMARK    6  A    between atoms: C_15  and  C_13 
REMARK    7  A    between atoms: C_16  and  C_14 
ROOT
ATOM      1  C   UNL d   1      32.234  16.853 -23.431  0.00  0.00     0.201 A 
ATOM      2  C   UNL d   1      31.880  17.532 -23.750  0.00  0.00     0.206 A 
ATOM      3  N   UNL d   1      32.195  18.274 -23.570  0.00  0.00    -0.038 NA
ATOM      4  N   UNL d   1      33.202  17.664 -22.764  0.00  0.00    -0.036 NA
ATOM      5  C   UNL d   1      32.893  16.919 -22.939  0.00  0.00     0.227 A 
ATOM      6  C   UNL d   1      32.854  18.340 -23.078  0.00  0.00     0.753 A 
ATOM      7  N   UNL d   1      33.241  16.224 -22.623  0.00  0.00    -0.125 N 
ENDROOT
BRANCH   2   8
ATOM      8  N   UNL d   1      31.205  17.465 -24.254  0.00  0.00    -0.223 NA
BRANCH   8   9
ATOM      9  C   UNL d   1      30.799  18.139 -24.488  0.00  0.00     0.101 C 
BRANCH   9  10
ATOM     10  C   UNL d   1      30.001  18.090 -24.691  0.00  0.00     0.019 A 
ATOM     11  C   UNL d   1      29.578  18.777 -24.861  0.00  0.00     0.002 A 
ATOM     12  C   UNL d   1      28.776  18.727 -25.065  0.00  0.00     0.000 A 
ATOM     13  C   UNL d   1      28.404  17.992 -25.097  0.00  0.00     0.000 A 
ATOM     14  C   UNL d   1      28.828  17.308 -24.927  0.00  0.00     0.000 A 
ATOM     15  C   UNL d   1      29.630  17.358 -24.723  0.00  0.00     0.002 A 
ENDBRANCH   9  10
ENDBRANCH   8   9
ENDBRANCH   2   8
BRANCH   1  16
ATOM     16  N   UNL d   1      31.907  16.091 -23.619  0.00  0.00    -0.107 N 
ATOM     17  O   UNL d   1      32.206  15.676 -24.264  0.00  0.00    -0.531 OA
ATOM     18  O   UNL d   1      31.296  15.768 -23.161  0.00  0.00    -0.531 OA
ENDBRANCH   1  16
BRANCH   6  19
ATOM     19  N   UNL d   1      33.163  19.084 -22.903  0.00  0.00    -0.058 NA
BRANCH  19  20
ATOM     20  C   UNL d   1      32.965  19.455 -22.189  0.00  0.00     0.118 C 
BRANCH  20  21
ATOM     21  C   UNL d   1      32.977  20.279 -22.138  0.00  0.00     0.020 A 
ATOM     22  C   UNL d   1      32.741  20.651 -21.449  0.00  0.00     0.002 A 
ATOM     23  C   UNL d   1      32.753  21.474 -21.398  0.00  0.00     0.000 A 
ATOM     24  C   UNL d   1      33.004  21.921 -22.045  0.00  0.00     0.000 A 
ATOM     25  C   UNL d   1      33.241  21.543 -22.739  0.00  0.00     0.000 A 
ATOM     26  C   UNL d   1      33.227  20.726 -22.785  0.00  0.00     0.002 A 
ENDBRANCH  20  21
ENDBRANCH  19  20
ENDBRANCH   6  19
TORSDOF 7
ENDMDL
MODEL 2
REMARK VINA RESULT:       0.6      2.259      3.539
REMARK  7 active torsions:
REMARK  status: ('A' for Active; 'I' for Inactive)
REMARK    1  A    between atoms: N_6  and  C_1 
REMARK    2  A    between atoms: N_8  and  C_2 
REMARK    3  A    between atoms: N_10  and  C_7 
REMARK    4  A    between atoms: C_13  and  N_8 
REMARK    5  A    between atoms: C_14  and  N_10 
REMARK    6  A    between atoms: C_15  and  C_13 
REMARK    7  A    between atoms: C_16  and  C_14 
ROOT
ATOM      1  C   UNL d   1      33.179  20.297 -23.677  0.00  0.00     0.201 A 
ATOM      2  C   UNL d   1      33.156  19.722 -23.080  0.00  0.00     0.206 A 
ATOM      3  N   UNL d   1      33.174  19.959 -22.289  0.00  0.00    -0.038 NA
ATOM      4  N   UNL d   1      33.236  21.327 -22.689  0.00  0.00    -0.036 NA
ATOM      5  C   UNL d   1      33.218  21.097 -23.482  0.00  0.00     0.227 A 
ATOM      6  C   UNL d   1      33.214  20.760 -22.094  0.00  0.00     0.753 A 
ATOM      7  N   UNL d   1      33.241  21.669 -24.095  0.00  0.00    -0.125 N 
ENDROOT
BRANCH   2   8
ATOM      8  N   UNL d   1      33.116  18.902 -23.279  0.00  0.00    -0.223 NA
BRANCH   8   9
ATOM      9  C   UNL d   1      32.654  18.392 -22.829  0.00  0.00     0.101 C 
BRANCH   9  10
ATOM     10  C   UNL d   1      32.573  17.603 -23.054  0.00  0.00     0.019 A 
ATOM     11  C   UNL d   1      33.241  17.122 -23.116  0.00  0.00     0.002 A 
ATOM     12  C   UNL d   1      33.159  16.329 -23.342  0.00  0.00     0.000 A 
ATOM     13  C   UNL d   1      32.411  16.023 -23.504  0.00  0.00     0.000 A 
ATOM     14  C   UNL d   1      31.746  16.503 -23.442  0.00  0.00     0.000 A 
ATOM     15  C   UNL d   1      31.828  17.296 -23.216  0.00  0.00     0.002 A 
ENDBRANCH   9  10
ENDBRANCH   8   9
ENDBRANCH   2   8
BRANCH   1  16
ATOM     16  N   UNL d   1      33.160  20.048 -24.489  0.00  0.00    -0.107 N 
ATOM     17  O   UNL d   1      33.140  20.620 -25.081  0.00  0.00    -0.531 OA
ATOM     18  O   UNL d   1      33.163  19.243 -24.686  0.00  0.00    -0.531 OA
ENDBRANCH   1  16
BRANCH   6  19
ATOM     19  N   UNL d   1      33.231  20.989 -21.302  0.00  0.00    -0.058 NA
BRANCH  19  20
ATOM     20  C   UNL d   1      32.601  21.425 -20.985  0.00  0.00     0.118 C 
BRANCH  20  21
ATOM     21  C   UNL d   1      32.747  21.989 -20.400  0.00  0.00     0.020 A 
ATOM     22  C   UNL d   1      32.927  21.752 -19.638  0.00  0.00     0.002 A 
ATOM     23  C   UNL d   1      33.072  22.315 -19.054  0.00  0.00     0.000 A 
ATOM     24  C   UNL d   1      33.035  23.118 -19.239  0.00  0.00     0.000 A 
ATOM     25  C   UNL d   1      32.852  23.354 -20.008  0.00  0.00     0.000 A 
ATOM     26  C   UNL d   1      32.709  22.792 -20.586  0.00  0.00     0.002 A 
ENDBRANCH  20  21
ENDBRANCH  19  20
ENDBRANCH   6  19
TORSDOF 7
ENDMDL
MODEL 3
REMARK VINA RESULT:       1.5      3.138      5.244
REMARK  7 active torsions:
REMARK  status: ('A' for Active; 'I' for Inactive)
REMARK    1  A    between atoms: N_6  and  C_1 
REMARK    2  A    between atoms: N_8  and  C_2 
REMARK    3  A    between atoms: N_10  and  C_7 
REMARK    4  A    between atoms: C_13  and  N_8 
REMARK    5  A    between atoms: C_14  and  N_10 
REMARK    6  A    between atoms: C_15  and  C_13 
REMARK    7  A    between atoms: C_16  and  C_14 
ROOT
ATOM      1  C   UNL d   1      32.501  21.902 -21.104  0.00  0.00     0.201 A 
ATOM      2  C   UNL d   1      32.781  21.980 -21.881  0.00  0.00     0.206 A 
ATOM      3  N   UNL d   1      33.019  21.306 -22.294  0.00  0.00    -0.038 NA
ATOM      4  N   UNL d   1      32.700  20.489 -21.170  0.00  0.00    -0.036 NA
ATOM      5  C   UNL d   1      32.460  21.158 -20.750  0.00  0.00     0.227 A 
ATOM      6  C   UNL d   1      32.978  20.563 -21.940  0.00  0.00     0.753 A 
ATOM      7  N   UNL d   1      32.175  21.092 -19.964  0.00  0.00    -0.125 N 
ENDROOT
BRANCH   2   8
ATOM      8  N   UNL d   1      32.822  22.742 -22.244  0.00  0.00    -0.223 NA
BRANCH   8   9
ATOM      9  C   UNL d   1      32.199  23.010 -22.706  0.00  0.00     0.101 C 
BRANCH   9  10
ATOM     10  C   UNL d   1      32.334  23.241 -23.487  0.00  0.00     0.019 A 
ATOM     11  C   UNL d   1      31.697  23.365 -23.996  0.00  0.00     0.002 A 
ATOM     12  C   UNL d   1      31.834  23.597 -24.780  0.00  0.00     0.000 A 
ATOM     13  C   UNL d   1      32.606  23.702 -25.049  0.00  0.00     0.000 A 
ATOM     14  C   UNL d   1      33.240  23.578 -24.540  0.00  0.00     0.000 A 
ATOM     15  C   UNL d   1      33.104  23.346 -23.756  0.00  0.00     0.002 A 
ENDBRANCH   9  10
ENDBRANCH   8   9
ENDBRANCH   2   8
BRANCH   1  16
ATOM     16  N   UNL d   1      32.257  22.598 -20.681  0.00  0.00    -0.107 N 
ATOM     17  O   UNL d   1      31.462  22.813 -20.690  0.00  0.00    -0.531 OA
ATOM     18  O   UNL d   1      32.809  23.056 -20.266  0.00  0.00    -0.531 OA
ENDBRANCH   1  16
BRANCH   6  19
ATOM     19  N   UNL d   1      33.217  19.894 -22.359  0.00  0.00    -0.058 NA
BRANCH  19  20
ATOM     20  C   UNL d   1      32.817  19.676 -23.052  0.00  0.00     0.118 C 
BRANCH  20  21
ATOM     21  C   UNL d   1      32.809  18.885 -23.288  0.00  0.00     0.020 A 
ATOM     22  C   UNL d   1      32.509  18.679 -24.021  0.00  0.00     0.002 A 
ATOM     23  C   UNL d   1      32.501  17.890 -24.257  0.00  0.00     0.000 A 
ATOM     24  C   UNL d   1      32.796  17.307 -23.753  0.00  0.00     0.000 A 
ATOM     25  C   UNL d   1      33.098  17.518 -23.015  0.00  0.00     0.000 A 
ATOM     26  C   UNL d   1      33.104  18.303 -22.784  0.00  0.00     0.002 A 
ENDBRANCH  20  21
ENDBRANCH  19  20
ENDBRANCH   6  19
TORSDOF 7
ENDMDL
