MODEL 1
REMARK VINA RESULT:       4.5      0.000      0.000
REMARK  5 active torsions:
REMARK  status: ('A' for Active; 'I' for Inactive)
REMARK    1  A    between atoms: O_4  and  C_1 
REMARK    2  A    between atoms: C_9  and  C_2 
REMARK    3  A    between atoms: C_5  and  O_4 
REMARK    4  A    between atoms: C_12  and  C_5 
REMARK    5  A    between atoms: N_10  and  C_9 
ROOT
ATOM      1  C   UNL d   1     -41.478-122.437 -51.316  0.00  0.00     0.122 A 
ATOM      2  C   UNL d   1     -41.472-122.722 -52.090  0.00  0.00     0.043 A 
ATOM      3  C   UNL d   1     -41.366-121.632 -51.173  0.00  0.00     0.105 A 
ATOM      4  C   UNL d   1     -41.248-121.114 -51.803  0.00  0.00     0.030 A 
ATOM      5  C   UNL d   1     -41.244-121.405 -52.569  0.00  0.00     0.059 A 
ATOM      6  C   UNL d   1     -41.355-122.203 -52.720  0.00  0.00     0.015 A 
ATOM      7  N   UNL d   1     -41.372-121.353 -50.404  0.00  0.00    -0.242 NA
ATOM      8 CL   UNL d   1     -41.124-120.861 -53.191  0.00  0.00    -0.082 Cl
ATOM      9  C   UNL d   1     -41.138-120.321 -51.658  0.00  0.00     0.004 A 
ATOM     10  C   UNL d   1     -41.260-120.548 -50.262  0.00  0.00     0.099 A 
ATOM     11  C   UNL d   1     -41.142-120.030 -50.891  0.00  0.00     0.021 A 
ENDROOT
BRANCH   1  12
ATOM     12  O   UNL d   1     -41.583-122.898 -50.738  0.00  0.00    -0.271 OA
BRANCH  12  13
ATOM     13  C   UNL d   1     -42.261-123.163 -50.107  0.00  0.00     0.300 C 
ATOM     14  O   UNL d   1     -43.153-123.364 -50.523  0.00  0.00    -0.259 OA
BRANCH  13  15
ATOM     15  C   UNL d   1     -42.100-123.214 -49.301  0.00  0.00     0.064 A 
ATOM     16  C   UNL d   1     -42.696-123.039 -48.748  0.00  0.00     0.008 A 
ATOM     17  C   UNL d   1     -42.530-123.092 -47.932  0.00  0.00     0.030 A 
ATOM     18  C   UNL d   1     -41.770-123.318 -47.668  0.00  0.00     0.140 A 
ATOM     19  C   UNL d   1     -41.178-123.491 -48.224  0.00  0.00     0.030 A 
ATOM     20  F   UNL d   1     -41.662-123.352 -47.073  0.00  0.00    -0.204 F 
ATOM     21  C   UNL d   1     -41.346-123.439 -49.039  0.00  0.00     0.008 A 
ENDBRANCH  13  15
ENDBRANCH  12  13
ENDBRANCH   1  12
BRANCH   2  22
ATOM     22  C   UNL d   1     -41.576-123.556 -52.438  0.00  0.00     0.082 C 
BRANCH  22  23
ATOM     23  N   UNL d   1     -41.768-123.642 -53.231  0.00  0.00    -0.299 N 
ATOM     24  C   UNL d   1     -41.174-123.702 -53.788  0.00  0.00     0.107 A 
ATOM     25  C   UNL d   1     -41.353-123.789 -54.591  0.00  0.00     0.142 A 
ATOM     26  O   UNL d   1     -42.135-123.813 -54.821  0.00  0.00    -0.300 OA
ATOM     27  C   UNL d   1     -42.741-123.753 -54.259  0.00  0.00     0.142 A 
ATOM     28  C   UNL d   1     -42.546-123.667 -53.467  0.00  0.00     0.107 A 
ENDBRANCH  22  23
ENDBRANCH   2  22
TORSDOF 5
ENDMDL
