MODEL 1
REMARK VINA RESULT:      -7.7      0.000      0.000
REMARK  3 active torsions:
REMARK  status: ('A' for Active; 'I' for Inactive)
REMARK    1  A    between atoms: C_12  and  C_3 
REMARK       I    between atoms: C_6  and  N_9 
REMARK    2  A    between atoms: C_7  and  C_6 
REMARK    3  A    between atoms: N_9  and  C_22 
ROOT
ATOM      1  C   UNL d   1     -46.132  11.626  23.414  0.00  0.00     0.019 A 
ATOM      2  C   UNL d   1     -46.100  12.390  23.102  0.00  0.00     0.003 A 
ATOM      3  C   UNL d   1     -46.847  11.326  23.698  0.00  0.00     0.003 A 
ATOM      4  C   UNL d   1     -47.496  12.553  23.359  0.00  0.00     0.085 A 
ATOM      5  C   UNL d   1     -47.529  11.790  23.671  0.00  0.00     0.019 A 
ATOM      6  C   UNL d   1     -46.782  12.854  23.075  0.00  0.00     0.019 A 
ENDROOT
BRANCH   4   7
ATOM      7  N   UNL d   1     -48.174  13.014  23.332  0.00  0.00    -0.208 NA
ATOM      8  C   UNL d   1     -48.407  13.365  22.631  0.00  0.00     0.279 C 
ATOM      9  O   UNL d   1     -47.955  13.255  21.940  0.00  0.00    -0.265 OA
BRANCH   8  10
ATOM     10  C   UNL d   1     -49.088  13.829  22.604  0.00  0.00     0.060 A 
ATOM     11  C   UNL d   1     -49.168  14.476  23.103  0.00  0.00     0.031 A 
ATOM     12  C   UNL d   1     -49.849  14.940  23.076  0.00  0.00     0.119 A 
ATOM     13  O   UNL d   1     -50.075  15.611  23.504  0.00  0.00    -0.300 OA
ATOM     14  C   UNL d   1     -50.452  14.756  22.550  0.00  0.00     0.119 A 
ATOM     15  C   UNL d   1     -50.822  15.843  23.241  0.00  0.00     0.304 A 
ATOM     16  O   UNL d   1     -51.058  15.313  22.649  0.00  0.00    -0.300 OA
ATOM     17  C   UNL d   1     -50.376  14.105  22.047  0.00  0.00     0.026 A 
ATOM     18  C   UNL d   1     -49.694  13.641  22.074  0.00  0.00     0.007 A 
ENDBRANCH   8  10
ENDBRANCH   4   7
BRANCH   1  19
ATOM     19  C   UNL d   1     -45.450  11.162  23.441  0.00  0.00     0.101 A 
ATOM     20  N   UNL d   1     -44.675  11.391  23.335  0.00  0.00    -0.221 NA
ATOM     21  C   UNL d   1     -44.194  10.716  23.417  0.00  0.00     0.179 A 
ATOM     22  N   UNL d   1     -44.666  10.080  23.572  0.00  0.00    -0.282 N 
ATOM     23  S   UNL d   1     -43.413  10.462  23.398  0.00  0.00    -0.048 SA
ATOM     24  C   UNL d   1     -45.451  10.346  23.589  0.00  0.00     0.101 A 
ATOM     25  C   UNL d   1     -44.179   9.423  23.650  0.00  0.00     0.089 A 
ATOM     26  C   UNL d   1     -43.420   9.652  23.545  0.00  0.00     0.057 A 
ENDBRANCH   1  19
TORSDOF 3
ENDMDL
MODEL 2
REMARK VINA RESULT:      -6.3      2.552      6.105
REMARK  3 active torsions:
REMARK  status: ('A' for Active; 'I' for Inactive)
REMARK    1  A    between atoms: C_12  and  C_3 
REMARK       I    between atoms: C_6  and  N_9 
REMARK    2  A    between atoms: C_7  and  C_6 
REMARK    3  A    between atoms: N_9  and  C_22 
ROOT
ATOM      1  C   UNL d   1     -48.213  13.773  23.160  0.00  0.00     0.019 A 
ATOM      2  C   UNL d   1     -48.209  13.059  23.576  0.00  0.00     0.003 A 
ATOM      3  C   UNL d   1     -47.523  14.043  22.797  0.00  0.00     0.003 A 
ATOM      4  C   UNL d   1     -46.825  12.887  23.266  0.00  0.00     0.085 A 
ATOM      5  C   UNL d   1     -46.828  13.600  22.850  0.00  0.00     0.019 A 
ATOM      6  C   UNL d   1     -47.515  12.617  23.629  0.00  0.00     0.019 A 
ENDROOT
BRANCH   4   7
ATOM      7  N   UNL d   1     -46.134  12.447  23.318  0.00  0.00    -0.208 NA
ATOM      8  C   UNL d   1     -46.162  11.631  23.285  0.00  0.00     0.279 C 
ATOM      9  O   UNL d   1     -46.893  11.241  23.198  0.00  0.00    -0.265 OA
BRANCH   8  10
ATOM     10  C   UNL d   1     -45.468  11.188  23.338  0.00  0.00     0.060 A 
ATOM     11  C   UNL d   1     -44.754  11.508  23.086  0.00  0.00     0.031 A 
ATOM     12  C   UNL d   1     -44.060  11.065  23.139  0.00  0.00     0.119 A 
ATOM     13  O   UNL d   1     -43.278  11.242  22.931  0.00  0.00    -0.300 OA
ATOM     14  C   UNL d   1     -44.080  10.303  23.444  0.00  0.00     0.119 A 
ATOM     15  C   UNL d   1     -42.812  10.585  23.109  0.00  0.00     0.304 A 
ATOM     16  O   UNL d   1     -43.307  10.001  23.427  0.00  0.00    -0.300 OA
ATOM     17  C   UNL d   1     -44.795   9.979  23.698  0.00  0.00     0.026 A 
ATOM     18  C   UNL d   1     -45.490  10.421  23.645  0.00  0.00     0.007 A 
ENDBRANCH   8  10
ENDBRANCH   4   7
BRANCH   1  19
ATOM     19  C   UNL d   1     -48.908  14.215  23.107  0.00  0.00     0.101 A 
ATOM     20  N   UNL d   1     -49.186  14.788  23.616  0.00  0.00    -0.221 NA
ATOM     21  C   UNL d   1     -49.911  15.067  23.316  0.00  0.00     0.179 A 
ATOM     22  N   UNL d   1     -50.077  14.673  22.633  0.00  0.00    -0.282 N 
ATOM     23  S   UNL d   1     -50.519  15.600  23.465  0.00  0.00    -0.048 SA
ATOM     24  C   UNL d   1     -49.459  14.140  22.493  0.00  0.00     0.101 A 
ATOM     25  C   UNL d   1     -50.794  14.960  22.349  0.00  0.00     0.089 A 
ATOM     26  C   UNL d   1     -51.063  15.521  22.852  0.00  0.00     0.057 A 
ENDBRANCH   1  19
TORSDOF 3
ENDMDL
MODEL 3
REMARK VINA RESULT:      -5.7      2.964      6.088
REMARK  3 active torsions:
REMARK  status: ('A' for Active; 'I' for Inactive)
REMARK    1  A    between atoms: C_12  and  C_3 
REMARK       I    between atoms: C_6  and  N_9 
REMARK    2  A    between atoms: C_7  and  C_6 
REMARK    3  A    between atoms: N_9  and  C_22 
ROOT
ATOM      1  C   UNL d   1     -47.830  14.048  22.956  0.00  0.00     0.019 A 
ATOM      2  C   UNL d   1     -47.338  14.602  22.590  0.00  0.00     0.003 A 
ATOM      3  C   UNL d   1     -47.522  13.324  23.204  0.00  0.00     0.003 A 
ATOM      4  C   UNL d   1     -46.233  13.706  22.722  0.00  0.00     0.085 A 
ATOM      5  C   UNL d   1     -46.724  13.152  23.087  0.00  0.00     0.019 A 
ATOM      6  C   UNL d   1     -46.540  14.431  22.473  0.00  0.00     0.019 A 
ENDROOT
BRANCH   4   7
ATOM      7  N   UNL d   1     -45.438  13.536  22.605  0.00  0.00    -0.208 NA
ATOM      8  C   UNL d   1     -45.199  13.120  21.943  0.00  0.00     0.279 C 
ATOM      9  O   UNL d   1     -45.761  12.868  21.383  0.00  0.00    -0.265 OA
BRANCH   8  10
ATOM     10  C   UNL d   1     -44.400  12.949  21.826  0.00  0.00     0.060 A 
ATOM     11  C   UNL d   1     -43.915  13.486  21.437  0.00  0.00     0.031 A 
ATOM     12  C   UNL d   1     -43.117  13.315  21.320  0.00  0.00     0.119 A 
ATOM     13  O   UNL d   1     -42.510  13.744  20.955  0.00  0.00    -0.300 OA
ATOM     14  C   UNL d   1     -42.803  12.607  21.592  0.00  0.00     0.119 A 
ATOM     15  C   UNL d   1     -41.818  13.297  21.001  0.00  0.00     0.304 A 
ATOM     16  O   UNL d   1     -41.998  12.591  21.396  0.00  0.00    -0.300 OA
ATOM     17  C   UNL d   1     -43.288  12.064  21.983  0.00  0.00     0.026 A 
ATOM     18  C   UNL d   1     -44.087  12.235  22.100  0.00  0.00     0.007 A 
ENDBRANCH   8  10
ENDBRANCH   4   7
BRANCH   1  19
ATOM     19  C   UNL d   1     -48.628  14.220  23.073  0.00  0.00     0.101 A 
ATOM     20  N   UNL d   1     -49.249  13.702  23.182  0.00  0.00    -0.221 NA
ATOM     21  C   UNL d   1     -49.944  14.151  23.275  0.00  0.00     0.179 A 
ATOM     22  N   UNL d   1     -49.755  14.934  23.226  0.00  0.00    -0.282 N 
ATOM     23  S   UNL d   1     -50.754  14.086  23.401  0.00  0.00    -0.048 SA
ATOM     24  C   UNL d   1     -48.938  14.988  23.100  0.00  0.00     0.101 A 
ATOM     25  C   UNL d   1     -50.450  15.364  23.320  0.00  0.00     0.089 A 
ATOM     26  C   UNL d   1     -51.055  14.852  23.426  0.00  0.00     0.057 A 
ENDBRANCH   1  19
TORSDOF 3
ENDMDL
