MODEL 1
REMARK VINA RESULT:      22.9      0.000      0.000
REMARK  0 active torsions:
REMARK  status: ('A' for Active; 'I' for Inactive)
ROOT
ATOM      1  C   UNL d   1      59.544  49.699  50.726  0.00  0.00     0.191 A 
ATOM      2  S   UNL d   1      60.757  49.701  51.510  0.00  0.00     0.289 S 
ATOM      3  N   UNL d   1      60.370  49.698  50.770  0.00  0.00    -0.134 NA
ATOM      4  N   UNL d   1      59.106  49.704  51.427  0.00  0.00    -0.284 N 
ATOM      5  S   UNL d   1      59.022  49.697  50.105  0.00  0.00    -0.048 SA
ATOM      6  C   UNL d   1      58.262  49.700  50.410  0.00  0.00     0.048 A 
ATOM      7  C   UNL d   1      58.316  49.704  51.234  0.00  0.00     0.072 A 
ATOM      8  C   UNL d   1      60.308  49.705  52.206  0.00  0.00     0.137 A 
ATOM      9  C   UNL d   1      57.517  49.700  50.061  0.00  0.00     0.007 A 
ATOM     10  C   UNL d   1      59.488  49.707  52.172  0.00  0.00     0.096 A 
ATOM     11  O   UNL d   1      61.344  49.697  50.938  0.00  0.00    -0.198 OA
ATOM     12  O   UNL d   1      61.356  49.703  52.047  0.00  0.00    -0.198 OA
ATOM     13  C   UNL d   1      57.590  49.708  51.704  0.00  0.00     0.018 A 
ATOM     14  C   UNL d   1      56.819  49.703  50.513  0.00  0.00     0.001 A 
ATOM     15  C   UNL d   1      56.861  49.707  51.317  0.00  0.00     0.002 A 
ATOM     16  C   UNL d   1      57.488  49.695  49.215  0.00  0.00     0.001 A 
ATOM     17  C   UNL d   1      56.087  49.703  50.122  0.00  0.00     0.000 A 
ATOM     18  C   UNL d   1      56.759  49.695  48.829  0.00  0.00     0.000 A 
ATOM     19  C   UNL d   1      56.033  49.698  49.299  0.00  0.00     0.000 A 
ENDROOT
TORSDOF 0
ENDMDL
