MODEL 1
REMARK VINA RESULT:      39.0      0.000      0.000
REMARK  5 active torsions:
REMARK  status: ('A' for Active; 'I' for Inactive)
REMARK    1  A    between atoms: C_3  and  C_1 
REMARK    2  A    between atoms: C_7  and  C_2 
REMARK       I    between atoms: N_5  and  C_3 
REMARK    3  A    between atoms: C_6  and  N_5 
REMARK    4  A    between atoms: N_10  and  C_6 
REMARK    5  A    between atoms: C_11  and  N_10 
ROOT
ATOM      1  C   UNL d   1      14.712  14.536  -1.323  0.00  0.00     0.103 A 
ATOM      2  C   UNL d   1      14.830  14.170  -0.592  0.00  0.00     0.116 A 
ATOM      3  N   UNL d   1      15.136  14.735  -0.078  0.00  0.00    -0.126 NA
ATOM      4  O   UNL d   1      15.207  15.448  -0.488  0.00  0.00    -0.211 OA
ATOM      5  C   UNL d   1      14.946  15.316  -1.246  0.00  0.00     0.131 A 
ATOM      6  C   UNL d   1      14.921  15.878  -1.841  0.00  0.00     0.029 C 
ENDROOT
BRANCH   1   7
ATOM      7  C   UNL d   1      14.414  14.167  -1.988  0.00  0.00     0.285 C 
ATOM      8  N   UNL d   1      13.915  14.552  -2.508  0.00  0.00    -0.179 NA
ATOM      9  O   UNL d   1      14.624  13.382  -2.139  0.00  0.00    -0.265 OA
BRANCH   8  10
ATOM     10  C   UNL d   1      13.618  14.182  -3.173  0.00  0.00     0.224 C 
ATOM     11  S   UNL d   1      13.554  14.612  -3.877  0.00  0.00    -0.037 SA
BRANCH  10  12
ATOM     12  N   UNL d   1      13.382  13.397  -3.155  0.00  0.00    -0.215 NA
BRANCH  12  13
ATOM     13  C   UNL d   1      13.246  13.006  -3.848  0.00  0.00     0.111 A 
ATOM     14  C   UNL d   1      13.003  12.218  -3.837  0.00  0.00     0.158 A 
ATOM     15  F   UNL d   1      12.898  11.830  -3.117  0.00  0.00    -0.203 F 
ATOM     16  C   UNL d   1      12.864  11.818  -4.547  0.00  0.00     0.031 A 
ATOM     17  C   UNL d   1      12.968  12.203  -5.265  0.00  0.00     0.002 A 
ATOM     18  C   UNL d   1      13.212  12.995  -5.278  0.00  0.00     0.002 A 
ATOM     19  C   UNL d   1      13.351  13.395  -4.568  0.00  0.00     0.021 A 
ENDBRANCH  12  13
ENDBRANCH  10  12
ENDBRANCH   8  10
ENDBRANCH   1   7
BRANCH   2  20
ATOM     20  C   UNL d   1      14.672  13.384  -0.410  0.00  0.00     0.031 A 
ATOM     21  C   UNL d   1      15.281  12.836  -0.394  0.00  0.00     0.059 A 
ATOM     22 CL   UNL d   1      16.048  13.073  -0.559  0.00  0.00    -0.082 Cl
ATOM     23  C   UNL d   1      15.118  12.057  -0.213  0.00  0.00     0.011 A 
ATOM     24  C   UNL d   1      14.344  11.815  -0.046  0.00  0.00     0.001 A 
ATOM     25  C   UNL d   1      13.739  12.372  -0.064  0.00  0.00     0.000 A 
ATOM     26  C   UNL d   1      13.892  13.164  -0.246  0.00  0.00     0.002 A 
ENDBRANCH   2  20
TORSDOF 5
ENDMDL
