MODEL 1
REMARK VINA RESULT:      -5.6      0.000      0.000
REMARK  9 active torsions:
REMARK  status: ('A' for Active; 'I' for Inactive)
REMARK    1  A    between atoms: C_11  and  C_3 
REMARK    2  A    between atoms: C_12  and  N_6 
REMARK    3  A    between atoms: C_15  and  C_7 
REMARK    4  A    between atoms: O_24  and  C_11 
REMARK    5  A    between atoms: C_23  and  C_12 
REMARK    6  A    between atoms: O_26  and  C_14 
REMARK    7  A    between atoms: O_28  and  C_17 
REMARK    8  A    between atoms: C_22  and  C_23 
REMARK    9  A    between atoms: C_32  and  O_24 
ROOT
ATOM      1  C   UNL d   1      52.057  33.690  53.319  0.00  0.00     0.080 A 
ATOM      2  C   UNL d   1      51.484  34.277  53.196  0.00  0.00     0.267 A 
ATOM      3  C   UNL d   1      53.336  33.320  53.823  0.00  0.00     0.107 A 
ATOM      4  C   UNL d   1      51.929  32.919  53.071  0.00  0.00     0.108 A 
ATOM      5  C   UNL d   1      53.208  32.549  53.575  0.00  0.00     0.208 A 
ATOM      6  N   UNL d   1      50.777  34.078  52.819  0.00  0.00    -0.273 N 
ATOM      7  C   UNL d   1      52.757  33.898  53.695  0.00  0.00     0.017 A 
ATOM      8  O   UNL d   1      52.501  32.344  53.196  0.00  0.00    -0.288 OA
ATOM      9  C   UNL d   1      51.213  32.723  52.691  0.00  0.00     0.043 A 
ATOM     10  C   UNL d   1      50.641  33.309  52.568  0.00  0.00     0.069 A 
ATOM     11  O   UNL d   1      51.616  35.052  53.446  0.00  0.00    -0.267 OA
ATOM     12  N   UNL d   1      53.783  31.971  53.701  0.00  0.00    -0.121 N 
ATOM     13  C   UNL d   1      49.932  33.110  52.191  0.00  0.00     0.019 C 
ENDROOT
BRANCH   6  14
ATOM     14  C   UNL d   1      50.204  34.665  52.696  0.00  0.00     0.083 C 
BRANCH  14  15
ATOM     15  C   UNL d   1      49.583  34.741  53.236  0.00  0.00     0.019 C 
BRANCH  15  16
ATOM     16  C   UNL d   1      48.951  35.239  53.036  0.00  0.00     0.004 A 
ATOM     17  C   UNL d   1      48.625  35.720  53.600  0.00  0.00     0.026 A 
ATOM     18  C   UNL d   1      47.999  36.213  53.402  0.00  0.00     0.116 A 
ATOM     19  C   UNL d   1      47.701  36.217  52.624  0.00  0.00     0.116 A 
ATOM     20  C   UNL d   1      48.040  35.725  52.060  0.00  0.00     0.026 A 
ATOM     21  C   UNL d   1      48.665  35.234  52.262  0.00  0.00     0.002 A 
BRANCH  18  22
ATOM     22  O   UNL d   1      47.657  36.709  53.970  0.00  0.00    -0.326 OA
ATOM     23  C   UNL d   1      47.742  36.528  54.764  0.00  0.00     0.181 C 
ENDBRANCH  18  22
BRANCH  19  24
ATOM     24  O   UNL d   1      47.073  36.709  52.418  0.00  0.00    -0.326 OA
ATOM     25  C   UNL d   1      46.561  36.494  51.815  0.00  0.00     0.181 C 
ENDBRANCH  19  24
ENDBRANCH  15  16
ENDBRANCH  14  15
ENDBRANCH   6  14
BRANCH   7  26
ATOM     26  C   UNL d   1      52.887  34.673  53.945  0.00  0.00     0.020 A 
ATOM     27  C   UNL d   1      52.625  34.916  54.679  0.00  0.00     0.099 A 
ATOM     28  N   UNL d   1      52.752  35.682  54.931  0.00  0.00    -0.242 NA
ATOM     29  C   UNL d   1      53.151  36.219  54.436  0.00  0.00     0.099 A 
ATOM     30  C   UNL d   1      53.416  35.969  53.692  0.00  0.00     0.021 A 
ATOM     31  C   UNL d   1      53.285  35.197  53.445  0.00  0.00     0.003 A 
ENDBRANCH   7  26
BRANCH   3  32
ATOM     32  C   UNL d   1      54.044  33.525  54.201  0.00  0.00     0.304 C 
ATOM     33  O   UNL d   1      54.663  33.852  53.773  0.00  0.00    -0.259 OA
BRANCH  32  34
ATOM     34  O   UNL d   1      54.121  33.400  55.009  0.00  0.00    -0.271 OA
BRANCH  34  35
ATOM     35  C   UNL d   1      54.861  33.298  55.366  0.00  0.00     0.126 C 
ATOM     36  C   UNL d   1      54.932  33.381  56.179  0.00  0.00     0.029 C 
ENDBRANCH  34  35
ENDBRANCH  32  34
ENDBRANCH   3  32
TORSDOF 9
ENDMDL
MODEL 2
REMARK VINA RESULT:      -3.3      1.396      2.631
REMARK  9 active torsions:
REMARK  status: ('A' for Active; 'I' for Inactive)
REMARK    1  A    between atoms: C_11  and  C_3 
REMARK    2  A    between atoms: C_12  and  N_6 
REMARK    3  A    between atoms: C_15  and  C_7 
REMARK    4  A    between atoms: O_24  and  C_11 
REMARK    5  A    between atoms: C_23  and  C_12 
REMARK    6  A    between atoms: O_26  and  C_14 
REMARK    7  A    between atoms: O_28  and  C_17 
REMARK    8  A    between atoms: C_22  and  C_23 
REMARK    9  A    between atoms: C_32  and  O_24 
ROOT
ATOM      1  C   UNL d   1      52.779  33.335  53.877  0.00  0.00     0.080 A 
ATOM      2  C   UNL d   1      52.124  33.559  53.420  0.00  0.00     0.267 A 
ATOM      3  C   UNL d   1      53.676  32.318  54.309  0.00  0.00     0.107 A 
ATOM      4  C   UNL d   1      53.176  33.885  54.341  0.00  0.00     0.108 A 
ATOM      5  C   UNL d   1      54.073  32.867  54.772  0.00  0.00     0.208 A 
ATOM      6  N   UNL d   1      51.871  34.345  53.435  0.00  0.00    -0.273 N 
ATOM      7  C   UNL d   1      53.023  32.552  53.856  0.00  0.00     0.017 A 
ATOM      8  O   UNL d   1      53.823  33.656  54.790  0.00  0.00    -0.288 OA
ATOM      9  C   UNL d   1      52.915  34.677  54.351  0.00  0.00     0.043 A 
ATOM     10  C   UNL d   1      52.261  34.900  53.895  0.00  0.00     0.069 A 
ATOM     11  O   UNL d   1      51.727  33.005  52.955  0.00  0.00    -0.267 OA
ATOM     12  N   UNL d   1      54.723  32.638  55.224  0.00  0.00    -0.121 N 
ATOM     13  C   UNL d   1      52.007  35.687  53.909  0.00  0.00     0.019 C 
ENDROOT
BRANCH   6  14
ATOM     14  C   UNL d   1      51.216  34.567  52.977  0.00  0.00     0.083 C 
BRANCH  14  15
ATOM     15  C   UNL d   1      50.464  34.558  53.320  0.00  0.00     0.019 C 
BRANCH  15  16
ATOM     16  C   UNL d   1      49.815  34.755  52.842  0.00  0.00     0.004 A 
ATOM     17  C   UNL d   1      49.227  35.228  53.138  0.00  0.00     0.026 A 
ATOM     18  C   UNL d   1      48.586  35.423  52.666  0.00  0.00     0.116 A 
ATOM     19  C   UNL d   1      48.539  35.136  51.885  0.00  0.00     0.116 A 
ATOM     20  C   UNL d   1      49.142  34.657  51.595  0.00  0.00     0.026 A 
ATOM     21  C   UNL d   1      49.781  34.464  52.070  0.00  0.00     0.002 A 
BRANCH  18  22
ATOM     22  O   UNL d   1      47.978  35.905  52.957  0.00  0.00    -0.326 OA
ATOM     23  C   UNL d   1      48.042  36.219  53.710  0.00  0.00     0.181 C 
ENDBRANCH  18  22
BRANCH  19  24
ATOM     24  O   UNL d   1      47.898  35.327  51.404  0.00  0.00    -0.326 OA
ATOM     25  C   UNL d   1      47.800  34.957  50.679  0.00  0.00     0.181 C 
ENDBRANCH  19  24
ENDBRANCH  15  16
ENDBRANCH  14  15
ENDBRANCH   6  14
BRANCH   7  26
ATOM     26  C   UNL d   1      52.626  31.999  53.391  0.00  0.00     0.020 A 
ATOM     27  C   UNL d   1      52.916  31.802  52.653  0.00  0.00     0.099 A 
ATOM     28  N   UNL d   1      52.526  31.254  52.189  0.00  0.00    -0.242 NA
ATOM     29  C   UNL d   1      51.830  30.895  52.470  0.00  0.00     0.099 A 
ATOM     30  C   UNL d   1      51.540  31.098  53.219  0.00  0.00     0.021 A 
ATOM     31  C   UNL d   1      51.936  31.649  53.680  0.00  0.00     0.003 A 
ENDBRANCH   7  26
BRANCH   3  32
ATOM     32  C   UNL d   1      53.926  31.529  54.291  0.00  0.00     0.304 C 
ATOM     33  O   UNL d   1      54.424  31.266  53.694  0.00  0.00    -0.259 OA
BRANCH  32  34
ATOM     34  O   UNL d   1      53.672  31.011  54.875  0.00  0.00    -0.271 OA
BRANCH  34  35
ATOM     35  C   UNL d   1      53.973  30.242  54.938  0.00  0.00     0.126 C 
ATOM     36  C   UNL d   1      53.574  29.689  55.393  0.00  0.00     0.029 C 
ENDBRANCH  34  35
ENDBRANCH  32  34
ENDBRANCH   3  32
TORSDOF 9
ENDMDL
