MODEL 1
REMARK VINA RESULT:       2.6      0.000      0.000
REMARK  4 active torsions:
REMARK  status: ('A' for Active; 'I' for Inactive)
REMARK       I    between atoms: C_2  and  N_1 
REMARK       I    between atoms: N_8  and  C_2 
REMARK    1  A    between atoms: C_12  and  N_8 
REMARK    2  A    between atoms: C_9  and  C_12 
REMARK    3  A    between atoms: O_13  and  C_9 
REMARK    4  A    between atoms: C_18  and  O_13 
ROOT
ATOM      1  N   UNL d   1     -42.292-123.026 -50.000  0.00  0.00    -0.258 N 
ATOM      2  C   UNL d   1     -41.747-123.329 -50.539  0.00  0.00     0.354 C 
ATOM      3  S   UNL d   1     -43.391-122.415 -48.913  0.00  0.00    -0.084 SA
ATOM      4  C   UNL d   1     -42.212-123.186 -49.195  0.00  0.00     0.074 A 
ATOM      5  C   UNL d   1     -42.919-122.561 -50.268  0.00  0.00     0.074 A 
ATOM      6  C   UNL d   1     -42.759-122.882 -48.649  0.00  0.00     0.046 A 
ATOM      7  C   UNL d   1     -43.471-122.254 -49.722  0.00  0.00     0.046 A 
ATOM      8  N   UNL d   1     -41.832-123.165 -51.351  0.00  0.00    -0.185 NA
ATOM      9  O   UNL d   1     -41.123-123.792 -50.272  0.00  0.00    -0.244 OA
ATOM     10  C   UNL d   1     -41.586-123.648 -48.937  0.00  0.00     0.018 A 
ATOM     11  C   UNL d   1     -42.993-122.406 -51.068  0.00  0.00     0.018 A 
ATOM     12  C   UNL d   1     -44.092-121.795 -49.981  0.00  0.00     0.008 A 
ATOM     13  C   UNL d   1     -42.674-123.045 -47.845  0.00  0.00     0.008 A 
ATOM     14  C   UNL d   1     -41.493-123.817 -48.132  0.00  0.00     0.002 A 
ATOM     15  C   UNL d   1     -43.634-121.932 -51.337  0.00  0.00     0.002 A 
ATOM     16  C   UNL d   1     -44.180-121.629 -50.791  0.00  0.00     0.001 A 
ATOM     17  C   UNL d   1     -42.036-123.516 -47.588  0.00  0.00     0.001 A 
ENDROOT
BRANCH   8  18
ATOM     18  C   UNL d   1     -41.271-123.478 -51.906  0.00  0.00     0.172 C 
BRANCH  18  19
ATOM     19  C   UNL d   1     -41.313-123.246 -52.686  0.00  0.00     0.320 C 
ATOM     20  O   UNL d   1     -41.138-122.468 -52.889  0.00  0.00    -0.257 OA
BRANCH  19  21
ATOM     21  O   UNL d   1     -41.525-123.779 -53.262  0.00  0.00    -0.270 OA
BRANCH  21  22
ATOM     22  C   UNL d   1     -41.221-123.701 -54.037  0.00  0.00     0.126 C 
ATOM     23  C   UNL d   1     -41.727-123.543 -54.661  0.00  0.00     0.029 C 
ENDBRANCH  21  22
ENDBRANCH  19  21
ENDBRANCH  18  19
ENDBRANCH   8  18
TORSDOF 4
ENDMDL
