MODEL 1
REMARK VINA RESULT:      -8.7      0.000      0.000
REMARK  4 active torsions:
REMARK  status: ('A' for Active; 'I' for Inactive)
REMARK    1  A    between atoms: S_5  and  C_2 
REMARK    2  A    between atoms: C_15  and  S_5 
REMARK    3  A    between atoms: N_11  and  C_8 
REMARK    4  A    between atoms: C_12  and  N_11 
ROOT
ATOM      1  C   UNL d   1      53.015  34.165  53.925  0.00  0.00     0.197 A 
ATOM      2  C   UNL d   1      52.338  34.624  53.792  0.00  0.00     0.227 A 
ATOM      3  N   UNL d   1      53.464  34.539  54.510  0.00  0.00    -0.192 N 
ATOM      4  N   UNL d   1      53.281  33.458  53.592  0.00  0.00    -0.206 NA
ATOM      5  N   UNL d   1      52.369  35.280  54.294  0.00  0.00    -0.115 NA
ATOM      6  N   UNL d   1      53.066  35.230  54.740  0.00  0.00    -0.058 NA
ATOM      7  C   UNL d   1      53.997  33.123  53.842  0.00  0.00     0.166 A 
ATOM      8  C   UNL d   1      54.440  33.501  54.426  0.00  0.00     0.054 A 
ATOM      9  C   UNL d   1      54.181  34.208  54.764  0.00  0.00     0.089 A 
ATOM     10  C   UNL d   1      55.158  33.170  54.680  0.00  0.00     0.005 A 
ATOM     11  C   UNL d   1      54.627  34.583  55.346  0.00  0.00     0.019 A 
ATOM     12  C   UNL d   1      55.603  33.545  55.263  0.00  0.00     0.000 A 
ATOM     13  C   UNL d   1      55.337  34.251  55.596  0.00  0.00     0.002 A 
ENDROOT
BRANCH   2  14
ATOM     14  S   UNL d   1      51.737  34.453  53.251  0.00  0.00     0.231 S 
ATOM     15  O   UNL d   1      52.149  34.897  52.693  0.00  0.00    -0.215 OA
ATOM     16  O   UNL d   1      51.329  34.010  53.811  0.00  0.00    -0.215 OA
BRANCH  14  17
ATOM     17  C   UNL d   1      51.163  34.306  52.685  0.00  0.00     0.090 A 
ATOM     18  C   UNL d   1      51.360  34.271  51.888  0.00  0.00     0.011 A 
ATOM     19  C   UNL d   1      50.787  34.125  51.326  0.00  0.00     0.001 A 
ATOM     20  C   UNL d   1      50.000  34.012  51.557  0.00  0.00     0.000 A 
ATOM     21  C   UNL d   1      49.801  34.048  52.359  0.00  0.00     0.001 A 
ATOM     22  C   UNL d   1      50.378  34.194  52.920  0.00  0.00     0.011 A 
ENDBRANCH  14  17
ENDBRANCH   2  14
BRANCH   7  23
ATOM     23  N   UNL d   1      54.263  32.416  53.510  0.00  0.00    -0.227 NA
BRANCH  23  24
ATOM     24  C   UNL d   1      53.787  31.745  53.532  0.00  0.00     0.083 A 
ATOM     25  C   UNL d   1      53.743  31.293  54.222  0.00  0.00     0.019 A 
ATOM     26  C   UNL d   1      53.267  30.621  54.244  0.00  0.00     0.002 A 
ATOM     27  C   UNL d   1      53.223  30.169  54.932  0.00  0.00     0.000 C 
ATOM     28  C   UNL d   1      52.830  30.397  53.575  0.00  0.00     0.000 A 
ATOM     29  C   UNL d   1      52.880  30.857  52.886  0.00  0.00     0.002 A 
ATOM     30  C   UNL d   1      53.355  31.526  52.867  0.00  0.00     0.019 A 
ATOM     31  C   UNL d   1      52.448  30.638  52.221  0.00  0.00     0.000 C 
ENDBRANCH  23  24
ENDBRANCH   7  23
TORSDOF 4
ENDMDL
MODEL 2
REMARK VINA RESULT:      -7.2      1.411      3.720
REMARK  4 active torsions:
REMARK  status: ('A' for Active; 'I' for Inactive)
REMARK    1  A    between atoms: S_5  and  C_2 
REMARK    2  A    between atoms: C_15  and  S_5 
REMARK    3  A    between atoms: N_11  and  C_8 
REMARK    4  A    between atoms: C_12  and  N_11 
ROOT
ATOM      1  C   UNL d   1      53.381  32.748  54.014  0.00  0.00     0.197 A 
ATOM      2  C   UNL d   1      53.857  33.299  54.410  0.00  0.00     0.227 A 
ATOM      3  N   UNL d   1      53.785  32.027  54.003  0.00  0.00    -0.192 N 
ATOM      4  N   UNL d   1      52.636  32.807  53.665  0.00  0.00    -0.206 NA
ATOM      5  N   UNL d   1      54.553  32.919  54.642  0.00  0.00    -0.115 NA
ATOM      6  N   UNL d   1      54.512  32.129  54.391  0.00  0.00    -0.058 NA
ATOM      7  C   UNL d   1      52.292  32.145  53.302  0.00  0.00     0.166 A 
ATOM      8  C   UNL d   1      52.700  31.428  53.294  0.00  0.00     0.054 A 
ATOM      9  C   UNL d   1      53.446  31.362  53.642  0.00  0.00     0.089 A 
ATOM     10  C   UNL d   1      52.360  30.763  52.932  0.00  0.00     0.005 A 
ATOM     11  C   UNL d   1      53.850  30.644  53.631  0.00  0.00     0.019 A 
ATOM     12  C   UNL d   1      52.765  30.046  52.922  0.00  0.00     0.000 A 
ATOM     13  C   UNL d   1      53.510  29.987  53.272  0.00  0.00     0.002 A 
ENDROOT
BRANCH   2  14
ATOM     14  S   UNL d   1      53.666  34.091  54.547  0.00  0.00     0.231 S 
ATOM     15  O   UNL d   1      54.045  34.277  53.840  0.00  0.00    -0.215 OA
ATOM     16  O   UNL d   1      53.288  33.901  55.253  0.00  0.00    -0.215 OA
BRANCH  14  17
ATOM     17  C   UNL d   1      53.497  34.887  54.646  0.00  0.00     0.090 A 
ATOM     18  C   UNL d   1      53.729  35.437  54.082  0.00  0.00     0.011 A 
ATOM     19  C   UNL d   1      53.559  36.229  54.182  0.00  0.00     0.001 A 
ATOM     20  C   UNL d   1      53.151  36.483  54.856  0.00  0.00     0.000 A 
ATOM     21  C   UNL d   1      52.917  35.929  55.424  0.00  0.00     0.001 A 
ATOM     22  C   UNL d   1      53.088  35.136  55.320  0.00  0.00     0.011 A 
ENDBRANCH  14  17
ENDBRANCH   2  14
BRANCH   7  23
ATOM     23  N   UNL d   1      51.547  32.205  52.952  0.00  0.00    -0.227 NA
BRANCH  23  24
ATOM     24  C   UNL d   1      51.241  32.943  52.758  0.00  0.00     0.083 A 
ATOM     25  C   UNL d   1      51.492  33.327  52.071  0.00  0.00     0.019 A 
ATOM     26  C   UNL d   1      51.185  34.066  51.877  0.00  0.00     0.002 A 
ATOM     27  C   UNL d   1      51.436  34.451  51.192  0.00  0.00     0.000 C 
ATOM     28  C   UNL d   1      50.623  34.427  52.369  0.00  0.00     0.000 A 
ATOM     29  C   UNL d   1      50.375  34.035  53.057  0.00  0.00     0.002 A 
ATOM     30  C   UNL d   1      50.683  33.298  53.248  0.00  0.00     0.019 A 
ATOM     31  C   UNL d   1      49.818  34.389  53.548  0.00  0.00     0.000 C 
ENDBRANCH  23  24
ENDBRANCH   7  23
TORSDOF 4
ENDMDL
MODEL 3
REMARK VINA RESULT:      -7.0      1.108      3.590
REMARK  4 active torsions:
REMARK  status: ('A' for Active; 'I' for Inactive)
REMARK    1  A    between atoms: S_5  and  C_2 
REMARK    2  A    between atoms: C_15  and  S_5 
REMARK    3  A    between atoms: N_11  and  C_8 
REMARK    4  A    between atoms: C_12  and  N_11 
ROOT
ATOM      1  C   UNL d   1      52.318  34.242  53.654  0.00  0.00     0.197 A 
ATOM      2  C   UNL d   1      52.757  34.641  54.233  0.00  0.00     0.227 A 
ATOM      3  N   UNL d   1      51.629  34.678  53.514  0.00  0.00    -0.192 N 
ATOM      4  N   UNL d   1      52.453  33.542  53.239  0.00  0.00    -0.206 NA
ATOM      5  N   UNL d   1      52.341  35.321  54.449  0.00  0.00    -0.115 NA
ATOM      6  N   UNL d   1      51.641  35.347  54.005  0.00  0.00    -0.058 NA
ATOM      7  C   UNL d   1      51.900  33.275  52.681  0.00  0.00     0.166 A 
ATOM      8  C   UNL d   1      51.215  33.715  52.546  0.00  0.00     0.054 A 
ATOM      9  C   UNL d   1      51.073  34.416  52.958  0.00  0.00     0.089 A 
ATOM     10  C   UNL d   1      50.658  33.452  51.988  0.00  0.00     0.005 A 
ATOM     11  C   UNL d   1      50.388  34.851  52.820  0.00  0.00     0.019 A 
ATOM     12  C   UNL d   1      49.974  33.888  51.851  0.00  0.00     0.000 A 
ATOM     13  C   UNL d   1      49.839  34.588  52.267  0.00  0.00     0.002 A 
ENDROOT
BRANCH   2  14
ATOM     14  S   UNL d   1      53.485  34.398  54.538  0.00  0.00     0.231 S 
ATOM     15  O   UNL d   1      53.075  34.010  55.138  0.00  0.00    -0.215 OA
ATOM     16  O   UNL d   1      53.892  34.787  53.939  0.00  0.00    -0.215 OA
BRANCH  14  17
ATOM     17  C   UNL d   1      54.186  34.136  54.874  0.00  0.00     0.090 A 
ATOM     18  C   UNL d   1      54.909  34.313  54.524  0.00  0.00     0.011 A 
ATOM     19  C   UNL d   1      55.606  34.051  54.859  0.00  0.00     0.001 A 
ATOM     20  C   UNL d   1      55.588  33.606  55.556  0.00  0.00     0.000 A 
ATOM     21  C   UNL d   1      54.860  33.428  55.908  0.00  0.00     0.001 A 
ATOM     22  C   UNL d   1      54.165  33.692  55.570  0.00  0.00     0.011 A 
ENDBRANCH  14  17
ENDBRANCH   2  14
BRANCH   7  23
ATOM     23  N   UNL d   1      52.035  32.576  52.265  0.00  0.00    -0.227 NA
BRANCH  23  24
ATOM     24  C   UNL d   1      52.332  31.915  52.655  0.00  0.00     0.083 A 
ATOM     25  C   UNL d   1      51.820  31.408  53.059  0.00  0.00     0.019 A 
ATOM     26  C   UNL d   1      52.118  30.747  53.450  0.00  0.00     0.002 A 
ATOM     27  C   UNL d   1      51.606  30.241  53.853  0.00  0.00     0.000 C 
ATOM     28  C   UNL d   1      52.932  30.588  53.439  0.00  0.00     0.000 A 
ATOM     29  C   UNL d   1      53.440  31.101  53.031  0.00  0.00     0.002 A 
ATOM     30  C   UNL d   1      53.141  31.759  52.643  0.00  0.00     0.019 A 
ATOM     31  C   UNL d   1      54.248  30.946  53.018  0.00  0.00     0.000 C 
ENDBRANCH  23  24
ENDBRANCH   7  23
TORSDOF 4
ENDMDL
MODEL 4
REMARK VINA RESULT:      -6.4      1.397      3.578
REMARK  4 active torsions:
REMARK  status: ('A' for Active; 'I' for Inactive)
REMARK    1  A    between atoms: S_5  and  C_2 
REMARK    2  A    between atoms: C_15  and  S_5 
REMARK    3  A    between atoms: N_11  and  C_8 
REMARK    4  A    between atoms: C_12  and  N_11 
ROOT
ATOM      1  C   UNL d   1      53.638  33.186  54.196  0.00  0.00     0.197 A 
ATOM      2  C   UNL d   1      54.067  32.482  54.109  0.00  0.00     0.227 A 
ATOM      3  N   UNL d   1      54.159  33.769  54.466  0.00  0.00    -0.192 N 
ATOM      4  N   UNL d   1      52.845  33.373  54.066  0.00  0.00    -0.206 NA
ATOM      5  N   UNL d   1      54.851  32.630  54.325  0.00  0.00    -0.115 NA
ATOM      6  N   UNL d   1      54.912  33.427  54.546  0.00  0.00    -0.058 NA
ATOM      7  C   UNL d   1      52.570  34.143  54.205  0.00  0.00     0.166 A 
ATOM      8  C   UNL d   1      53.095  34.719  54.474  0.00  0.00     0.054 A 
ATOM      9  C   UNL d   1      53.889  34.540  54.606  0.00  0.00     0.089 A 
ATOM     10  C   UNL d   1      52.824  35.492  54.614  0.00  0.00     0.005 A 
ATOM     11  C   UNL d   1      54.410  35.119  54.875  0.00  0.00     0.019 A 
ATOM     12  C   UNL d   1      53.345  36.070  54.882  0.00  0.00     0.000 A 
ATOM     13  C   UNL d   1      54.138  35.883  55.013  0.00  0.00     0.002 A 
ENDROOT
BRANCH   2  14
ATOM     14  S   UNL d   1      53.762  31.759  53.852  0.00  0.00     0.231 S 
ATOM     15  O   UNL d   1      53.587  31.583  54.637  0.00  0.00    -0.215 OA
ATOM     16  O   UNL d   1      53.938  31.939  53.068  0.00  0.00    -0.215 OA
BRANCH  14  17
ATOM     17  C   UNL d   1      53.449  31.032  53.637  0.00  0.00     0.090 A 
ATOM     18  C   UNL d   1      53.394  30.423  54.185  0.00  0.00     0.011 A 
ATOM     19  C   UNL d   1      53.082  29.700  53.970  0.00  0.00     0.001 A 
ATOM     20  C   UNL d   1      52.819  29.577  53.195  0.00  0.00     0.000 A 
ATOM     21  C   UNL d   1      52.874  30.191  52.643  0.00  0.00     0.001 A 
ATOM     22  C   UNL d   1      53.187  30.914  52.863  0.00  0.00     0.011 A 
ENDBRANCH  14  17
ENDBRANCH   2  14
BRANCH   7  23
ATOM     23  N   UNL d   1      51.777  34.329  54.074  0.00  0.00    -0.227 NA
BRANCH  23  24
ATOM     24  C   UNL d   1      51.401  34.074  53.388  0.00  0.00     0.083 A 
ATOM     25  C   UNL d   1      51.594  34.413  52.660  0.00  0.00     0.019 A 
ATOM     26  C   UNL d   1      51.218  34.158  51.974  0.00  0.00     0.002 A 
ATOM     27  C   UNL d   1      51.412  34.496  51.247  0.00  0.00     0.000 C 
ATOM     28  C   UNL d   1      50.643  33.561  52.011  0.00  0.00     0.000 A 
ATOM     29  C   UNL d   1      50.454  33.225  52.746  0.00  0.00     0.002 A 
ATOM     30  C   UNL d   1      50.831  33.481  53.428  0.00  0.00     0.019 A 
ATOM     31  C   UNL d   1      49.885  32.633  52.786  0.00  0.00     0.000 C 
ENDBRANCH  23  24
ENDBRANCH   7  23
TORSDOF 4
ENDMDL
MODEL 5
REMARK VINA RESULT:      -6.2      1.655      4.057
REMARK  4 active torsions:
REMARK  status: ('A' for Active; 'I' for Inactive)
REMARK    1  A    between atoms: S_5  and  C_2 
REMARK    2  A    between atoms: C_15  and  S_5 
REMARK    3  A    between atoms: N_11  and  C_8 
REMARK    4  A    between atoms: C_12  and  N_11 
ROOT
ATOM      1  C   UNL d   1      51.903  32.337  53.235  0.00  0.00     0.197 A 
ATOM      2  C   UNL d   1      51.806  31.514  53.215  0.00  0.00     0.227 A 
ATOM      3  N   UNL d   1      51.160  32.681  53.118  0.00  0.00    -0.192 N 
ATOM      4  N   UNL d   1      52.565  32.816  53.344  0.00  0.00    -0.206 NA
ATOM      5  N   UNL d   1      51.006  31.351  53.086  0.00  0.00    -0.115 NA
ATOM      6  N   UNL d   1      50.603  32.073  53.025  0.00  0.00    -0.058 NA
ATOM      7  C   UNL d   1      52.489  33.641  53.336  0.00  0.00     0.166 A 
ATOM      8  C   UNL d   1      51.745  33.979  53.218  0.00  0.00     0.054 A 
ATOM      9  C   UNL d   1      51.078  33.507  53.109  0.00  0.00     0.089 A 
ATOM     10  C   UNL d   1      51.664  34.806  53.209  0.00  0.00     0.005 A 
ATOM     11  C   UNL d   1      50.338  33.848  52.992  0.00  0.00     0.019 A 
ATOM     12  C   UNL d   1      50.923  35.146  53.092  0.00  0.00     0.000 A 
ATOM     13  C   UNL d   1      50.260  34.667  52.984  0.00  0.00     0.002 A 
ENDROOT
BRANCH   2  14
ATOM     14  S   UNL d   1      52.407  30.955  53.309  0.00  0.00     0.231 S 
ATOM     15  O   UNL d   1      52.195  30.899  54.103  0.00  0.00    -0.215 OA
ATOM     16  O   UNL d   1      52.616  31.014  52.515  0.00  0.00    -0.215 OA
BRANCH  14  17
ATOM     17  C   UNL d   1      52.993  30.397  53.444  0.00  0.00     0.090 A 
ATOM     18  C   UNL d   1      53.566  30.246  52.874  0.00  0.00     0.011 A 
ATOM     19  C   UNL d   1      54.148  29.691  53.010  0.00  0.00     0.001 A 
ATOM     20  C   UNL d   1      54.164  29.275  53.726  0.00  0.00     0.000 A 
ATOM     21  C   UNL d   1      53.587  29.427  54.299  0.00  0.00     0.001 A 
ATOM     22  C   UNL d   1      53.005  29.984  54.159  0.00  0.00     0.011 A 
ENDBRANCH  14  17
ENDBRANCH   2  14
BRANCH   7  23
ATOM     23  N   UNL d   1      53.152  34.120  53.444  0.00  0.00    -0.227 NA
BRANCH  23  24
ATOM     24  C   UNL d   1      53.808  33.830  53.847  0.00  0.00     0.083 A 
ATOM     25  C   UNL d   1      53.797  33.773  54.671  0.00  0.00     0.019 A 
ATOM     26  C   UNL d   1      54.454  33.483  55.073  0.00  0.00     0.002 A 
ATOM     27  C   UNL d   1      54.442  33.426  55.896  0.00  0.00     0.000 C 
ATOM     28  C   UNL d   1      55.129  33.247  54.653  0.00  0.00     0.000 A 
ATOM     29  C   UNL d   1      55.134  33.307  53.825  0.00  0.00     0.002 A 
ATOM     30  C   UNL d   1      54.477  33.597  53.427  0.00  0.00     0.019 A 
ATOM     31  C   UNL d   1      55.801  33.073  53.405  0.00  0.00     0.000 C 
ENDBRANCH  23  24
ENDBRANCH   7  23
TORSDOF 4
ENDMDL
