MODEL 1
REMARK VINA RESULT:      48.1      0.000      0.000
REMARK  6 active torsions:
REMARK  status: ('A' for Active; 'I' for Inactive)
REMARK    1  A    between atoms: N_2  and  S_1 
REMARK    2  A    between atoms: C_4  and  S_1 
REMARK    3  A    between atoms: C_3  and  N_2 
REMARK    4  A    between atoms: N_7  and  C_3 
REMARK    5  A    between atoms: C_14  and  N_7 
REMARK    6  A    between atoms: C_15  and  C_13 
ROOT
ATOM      1  S   UNL d   1     -50.794  26.311  33.541  0.00  0.00     0.287 S 
ATOM      2  O   UNL d   1     -51.468  26.741  33.779  0.00  0.00    -0.198 OA
ATOM      3  O   UNL d   1     -50.128  25.884  33.306  0.00  0.00    -0.198 OA
ENDROOT
BRANCH   1   4
ATOM      4  N   UNL d   1     -50.358  27.014  33.506  0.00  0.00    -0.128 NA
BRANCH   4   5
ATOM      5  C   UNL d   1     -49.687  27.440  33.723  0.00  0.00     0.232 C 
ATOM      6  S   UNL d   1     -48.946  27.220  33.435  0.00  0.00    -0.036 SA
BRANCH   5   7
ATOM      7  N   UNL d   1     -49.759  28.087  34.229  0.00  0.00    -0.217 NA
BRANCH   7   8
ATOM      8  C   UNL d   1     -49.094  28.363  34.632  0.00  0.00     0.084 A 
ATOM      9  C   UNL d   1     -48.595  28.908  34.268  0.00  0.00     0.019 A 
ATOM     10  C   UNL d   1     -47.931  29.186  34.668  0.00  0.00     0.002 A 
ATOM     11  C   UNL d   1     -47.767  28.921  35.428  0.00  0.00     0.000 A 
ATOM     12  C   UNL d   1     -48.266  28.377  35.791  0.00  0.00     0.002 A 
ATOM     13  C   UNL d   1     -48.929  28.097  35.395  0.00  0.00     0.019 A 
ENDBRANCH   7   8
ENDBRANCH   5   7
ENDBRANCH   4   5
ENDBRANCH   1   4
BRANCH   1  14
ATOM     14  C   UNL d   1     -51.235  25.603  33.577  0.00  0.00     0.105 A 
ATOM     15  C   UNL d   1     -50.891  24.898  33.322  0.00  0.00     0.013 A 
ATOM     16  C   UNL d   1     -51.325  24.187  33.354  0.00  0.00     0.001 A 
ATOM     17  C   UNL d   1     -52.107  24.190  33.645  0.00  0.00     0.000 A 
ATOM     18  C   UNL d   1     -52.446  24.902  33.900  0.00  0.00     0.001 A 
ATOM     19  C   UNL d   1     -52.016  25.606  33.868  0.00  0.00     0.013 A 
BRANCH  17  20
ATOM     20  C   UNL d   1     -52.539  23.488  33.679  0.00  0.00     0.000 C 
ATOM     21  C   UNL d   1     -53.228  23.197  33.314  0.00  0.00     0.000 C 
ENDBRANCH  17  20
ENDBRANCH   1  14
TORSDOF 6
ENDMDL
MODEL 2
REMARK VINA RESULT:      50.1      1.023      5.130
REMARK  6 active torsions:
REMARK  status: ('A' for Active; 'I' for Inactive)
REMARK    1  A    between atoms: N_2  and  S_1 
REMARK    2  A    between atoms: C_4  and  S_1 
REMARK    3  A    between atoms: C_3  and  N_2 
REMARK    4  A    between atoms: N_7  and  C_3 
REMARK    5  A    between atoms: C_14  and  N_7 
REMARK    6  A    between atoms: C_15  and  C_13 
ROOT
ATOM      1  S   UNL d   1     -49.241  27.538  34.419  0.00  0.00     0.287 S 
ATOM      2  O   UNL d   1     -48.553  27.066  34.430  0.00  0.00    -0.198 OA
ATOM      3  O   UNL d   1     -49.921  28.005  34.408  0.00  0.00    -0.198 OA
ENDROOT
BRANCH   1   4
ATOM      4  N   UNL d   1     -49.648  26.934  34.022  0.00  0.00    -0.128 NA
BRANCH   4   5
ATOM      5  C   UNL d   1     -50.302  26.695  33.584  0.00  0.00     0.232 C 
ATOM      6  S   UNL d   1     -50.910  27.229  33.421  0.00  0.00    -0.036 SA
BRANCH   5   7
ATOM      7  N   UNL d   1     -50.349  25.920  33.308  0.00  0.00    -0.217 NA
BRANCH   7   8
ATOM      8  C   UNL d   1     -51.069  25.518  33.343  0.00  0.00     0.084 A 
ATOM      9  C   UNL d   1     -51.075  24.694  33.339  0.00  0.00     0.019 A 
ATOM     10  C   UNL d   1     -51.791  24.290  33.374  0.00  0.00     0.002 A 
ATOM     11  C   UNL d   1     -52.498  24.706  33.412  0.00  0.00     0.000 A 
ATOM     12  C   UNL d   1     -52.491  25.529  33.416  0.00  0.00     0.002 A 
ATOM     13  C   UNL d   1     -51.779  25.936  33.381  0.00  0.00     0.019 A 
ENDBRANCH   7   8
ENDBRANCH   5   7
ENDBRANCH   4   5
ENDBRANCH   1   4
BRANCH   1  14
ATOM     14  C   UNL d   1     -48.830  28.144  34.818  0.00  0.00     0.105 A 
ATOM     15  C   UNL d   1     -48.887  28.201  35.638  0.00  0.00     0.013 A 
ATOM     16  C   UNL d   1     -48.479  28.805  36.044  0.00  0.00     0.001 A 
ATOM     17  C   UNL d   1     -48.014  29.350  35.618  0.00  0.00     0.000 A 
ATOM     18  C   UNL d   1     -47.961  29.287  34.793  0.00  0.00     0.001 A 
ATOM     19  C   UNL d   1     -48.365  28.690  34.392  0.00  0.00     0.013 A 
BRANCH  17  20
ATOM     20  C   UNL d   1     -47.609  29.949  36.016  0.00  0.00     0.000 C 
ATOM     21  C   UNL d   1     -47.406  30.739  35.852  0.00  0.00     0.000 C 
ENDBRANCH  17  20
ENDBRANCH   1  14
TORSDOF 6
ENDMDL
