MODEL 1
REMARK VINA RESULT:      -5.1      0.000      0.000
REMARK  5 active torsions:
REMARK  status: ('A' for Active; 'I' for Inactive)
REMARK    1  A    between atoms: C_2  and  S_1 
REMARK    2  A    between atoms: N_4  and  S_1 
REMARK    3  A    between atoms: C_15  and  N_4 
REMARK    4  A    between atoms: N_7  and  C_6 
REMARK    5  A    between atoms: C_12  and  C_13 
ROOT
ATOM      1  C   UNL d   1      58.715  -0.801  29.224  0.00  0.00     0.021 A 
ATOM      2  C   UNL d   1      58.224   0.287  30.009  0.00  0.00     0.094 A 
ATOM      3  C   UNL d   1      58.579  -0.456  29.961  0.00  0.00     0.021 A 
ATOM      4  C   UNL d   1      58.494  -0.404  28.535  0.00  0.00     0.002 A 
ATOM      5  C   UNL d   1      58.140   0.337  28.585  0.00  0.00     0.002 A 
ATOM      6  C   UNL d   1      58.005   0.682  29.322  0.00  0.00     0.020 A 
ENDROOT
BRANCH   1   7
ATOM      7  C   UNL d   1      59.070  -1.545  29.175  0.00  0.00     0.103 A 
ATOM      8  N   UNL d   1      59.888  -1.606  29.081  0.00  0.00    -0.147 NA
ATOM      9  N   UNL d   1      60.244  -2.349  29.032  0.00  0.00    -0.130 NA
ATOM     10  C   UNL d   1      59.782  -3.031  29.078  0.00  0.00     0.170 A 
ATOM     11  C   UNL d   1      58.965  -2.970  29.173  0.00  0.00     0.041 A 
ATOM     12  C   UNL d   1      58.609  -2.227  29.221  0.00  0.00     0.024 A 
BRANCH  10  13
ATOM     13  N   UNL d   1      60.131  -3.769  29.030  0.00  0.00    -0.284 N 
ATOM     14  C   UNL d   1      59.841  -4.333  28.503  0.00  0.00     0.108 A 
ATOM     15  C   UNL d   1      60.189  -5.071  28.455  0.00  0.00     0.142 A 
ATOM     16  O   UNL d   1      60.835  -5.251  28.937  0.00  0.00    -0.300 OA
ATOM     17  C   UNL d   1      61.126  -4.686  29.464  0.00  0.00     0.142 A 
ATOM     18  C   UNL d   1      60.771  -3.943  29.509  0.00  0.00     0.108 A 
ENDBRANCH  10  13
ENDBRANCH   1   7
BRANCH   2  19
ATOM     19  N   UNL d   1      58.088   0.632  30.745  0.00  0.00    -0.158 NA
BRANCH  19  20
ATOM     20  S   UNL d   1      57.540   0.302  31.262  0.00  0.00     0.285 S 
ATOM     21  O   UNL d   1      56.950   0.378  30.686  0.00  0.00    -0.198 OA
ATOM     22  O   UNL d   1      58.135   0.228  31.840  0.00  0.00    -0.198 OA
BRANCH  20  23
ATOM     23  C   UNL d   1      56.983  -0.028  31.775  0.00  0.00     0.106 A 
ATOM     24  C   UNL d   1      56.506   0.447  32.237  0.00  0.00     0.025 A 
ATOM     25  C   UNL d   1      55.951   0.120  32.748  0.00  0.00     0.069 A 
ATOM     26 CL   UNL d   1      55.468   0.600  33.216  0.00  0.00    -0.082 Cl
ATOM     27  C   UNL d   1      55.876  -0.700  32.794  0.00  0.00     0.068 A 
ATOM     28  C   UNL d   1      56.356  -1.185  32.328  0.00  0.00     0.013 A 
ATOM     29 CL   UNL d   1      55.317  -1.049  33.308  0.00  0.00    -0.082 Cl
ATOM     30  C   UNL d   1      56.908  -0.849  31.820  0.00  0.00     0.014 A 
ENDBRANCH  20  23
ENDBRANCH  19  20
ENDBRANCH   2  19
TORSDOF 5
ENDMDL
