MODEL 1
REMARK VINA RESULT:      15.1      0.000      0.000
REMARK  6 active torsions:
REMARK  status: ('A' for Active; 'I' for Inactive)
REMARK    1  A    between atoms: S_5  and  C_3 
REMARK    2  A    between atoms: C_16  and  S_5 
REMARK    3  A    between atoms: C_20  and  N_6 
REMARK    4  A    between atoms: N_19  and  C_25 
REMARK    5  A    between atoms: C_24  and  C_20 
REMARK    6  A    between atoms: C_25  and  C_24 
ROOT
ATOM      1  C   UNL d   1     -41.477-121.610 -51.584  0.00  0.00     0.155 A 
ATOM      2  C   UNL d   1     -41.619-121.144 -50.918  0.00  0.00     0.092 A 
ATOM      3  C   UNL d   1     -41.791-122.327 -50.133  0.00  0.00     0.124 A 
ATOM      4  N   UNL d   1     -41.319-121.248 -52.313  0.00  0.00    -0.210 NA
ATOM      5  N   UNL d   1     -41.491-122.424 -51.528  0.00  0.00    -0.273 N 
ATOM      6  C   UNL d   1     -41.649-122.793 -50.799  0.00  0.00     0.181 A 
ATOM      7  C   UNL d   1     -41.605-120.312 -50.974  0.00  0.00     0.269 A 
ATOM      8  N   UNL d   1     -41.448-119.956 -51.700  0.00  0.00    -0.258 N 
ATOM      9  C   UNL d   1     -41.778-121.499 -50.183  0.00  0.00     0.022 A 
ATOM     10  C   UNL d   1     -41.303-120.423 -52.376  0.00  0.00     0.152 A 
ATOM     11  N   UNL d   1     -41.663-123.618 -50.746  0.00  0.00    -0.128 N 
ATOM     12  C   UNL d   1     -41.433-119.130 -51.758  0.00  0.00     0.084 A 
ATOM     13  O   UNL d   1     -41.749-119.851 -50.301  0.00  0.00    -0.266 OA
ATOM     14  C   UNL d   1     -41.147-120.063 -53.094  0.00  0.00     0.038 A 
ATOM     15  C   UNL d   1     -41.275-118.779 -52.485  0.00  0.00     0.019 A 
ATOM     16  C   UNL d   1     -41.131-119.250 -53.159  0.00  0.00     0.005 A 
ENDROOT
BRANCH   3  17
ATOM     17  S   UNL d   1     -41.948-122.694 -49.409  0.00  0.00     0.213 S 
ATOM     18  O   UNL d   1     -42.759-122.626 -49.502  0.00  0.00    -0.217 OA
ATOM     19  O   UNL d   1     -41.135-122.780 -49.280  0.00  0.00    -0.217 OA
BRANCH  17  20
ATOM     20  C   UNL d   1     -42.101-123.059 -48.686  0.00  0.00     0.088 A 
ATOM     21  C   UNL d   1     -42.883-123.180 -48.450  0.00  0.00     0.011 A 
ATOM     22  C   UNL d   1     -43.042-123.543 -47.731  0.00  0.00     0.001 A 
ATOM     23  C   UNL d   1     -42.421-123.788 -47.246  0.00  0.00     0.000 A 
ATOM     24  C   UNL d   1     -41.636-123.666 -47.485  0.00  0.00     0.001 A 
ATOM     25  C   UNL d   1     -41.484-123.300 -48.208  0.00  0.00     0.011 A 
ENDBRANCH  17  20
ENDBRANCH   3  17
BRANCH   5  26
ATOM     26  C   UNL d   1     -41.348-122.892 -52.198  0.00  0.00     0.085 C 
BRANCH  26  27
ATOM     27  C   UNL d   1     -41.886-122.885 -52.824  0.00  0.00     0.038 C 
BRANCH  27  28
ATOM     28  C   UNL d   1     -41.777-123.379 -53.464  0.00  0.00     0.082 C 
BRANCH  28  29
ATOM     29  N   UNL d   1     -41.826-123.086 -54.233  0.00  0.00    -0.299 N 
ATOM     30  C   UNL d   1     -42.530-122.753 -54.500  0.00  0.00     0.107 A 
ATOM     31  C   UNL d   1     -42.590-122.460 -55.261  0.00  0.00     0.142 A 
ATOM     32  O   UNL d   1     -41.942-122.496 -55.770  0.00  0.00    -0.300 OA
ATOM     33  C   UNL d   1     -41.229-122.830 -55.511  0.00  0.00     0.142 A 
ATOM     34  C   UNL d   1     -41.172-123.127 -54.734  0.00  0.00     0.107 A 
ENDBRANCH  28  29
ENDBRANCH  27  28
ENDBRANCH  26  27
ENDBRANCH   5  26
TORSDOF 6
ENDMDL
