MODEL 1
REMARK VINA RESULT:      -7.5      0.000      0.000
REMARK  4 active torsions:
REMARK  status: ('A' for Active; 'I' for Inactive)
REMARK    1  A    between atoms: N_4  and  S_1 
REMARK    2  A    between atoms: C_5  and  S_1 
REMARK    3  A    between atoms: S_2  and  N_3 
REMARK    4  A    between atoms: C_6  and  S_2 
ROOT
ATOM      1  N   UNL d   1      53.100  32.508  53.236  0.00  0.00    -0.226 N 
ATOM      2  N   UNL d   1      51.737  33.407  52.999  0.00  0.00    -0.226 N 
ATOM      3  C   UNL d   1      53.156  33.286  52.912  0.00  0.00     0.111 A 
ATOM      4  C   UNL d   1      52.478  33.727  52.797  0.00  0.00     0.111 A 
ATOM      5  C   UNL d   1      51.683  32.643  53.317  0.00  0.00     0.111 A 
ATOM      6  C   UNL d   1      52.368  32.188  53.438  0.00  0.00     0.111 A 
ENDROOT
BRANCH   1   7
ATOM      7  S   UNL d   1      53.799  32.018  53.370  0.00  0.00     0.277 S 
ATOM      8  O   UNL d   1      53.606  31.536  52.716  0.00  0.00    -0.199 OA
ATOM      9  O   UNL d   1      54.484  31.552  53.516  0.00  0.00    -0.199 OA
BRANCH   7  10
ATOM     10  C   UNL d   1      54.004  32.503  54.039  0.00  0.00     0.133 A 
ATOM     11  S   UNL d   1      53.694  32.577  54.769  0.00  0.00    -0.074 SA
ATOM     12  C   UNL d   1      54.126  33.133  55.171  0.00  0.00     0.036 A 
ATOM     13  C   UNL d   1      54.722  33.422  54.693  0.00  0.00     0.008 A 
ATOM     14  C   UNL d   1      54.653  33.032  53.979  0.00  0.00     0.020 A 
ENDBRANCH   7  10
ENDBRANCH   1   7
BRANCH   2  15
ATOM     15  S   UNL d   1      51.045  33.863  52.879  0.00  0.00     0.277 S 
ATOM     16  O   UNL d   1      51.491  34.419  52.458  0.00  0.00    -0.199 OA
ATOM     17  O   UNL d   1      50.610  33.292  53.307  0.00  0.00    -0.199 OA
BRANCH  15  18
ATOM     18  C   UNL d   1      50.359  34.308  52.764  0.00  0.00     0.133 A 
ATOM     19  S   UNL d   1      49.939  34.821  53.255  0.00  0.00    -0.074 SA
ATOM     20  C   UNL d   1      49.291  35.105  52.827  0.00  0.00     0.036 A 
ATOM     21  C   UNL d   1      49.314  34.773  52.087  0.00  0.00     0.008 A 
ATOM     22  C   UNL d   1      49.968  34.279  52.033  0.00  0.00     0.020 A 
ENDBRANCH  15  18
ENDBRANCH   2  15
TORSDOF 4
ENDMDL
MODEL 2
REMARK VINA RESULT:      -7.4      2.456      3.752
REMARK  4 active torsions:
REMARK  status: ('A' for Active; 'I' for Inactive)
REMARK    1  A    between atoms: N_4  and  S_1 
REMARK    2  A    between atoms: C_5  and  S_1 
REMARK    3  A    between atoms: S_2  and  N_3 
REMARK    4  A    between atoms: C_6  and  S_2 
ROOT
ATOM      1  N   UNL d   1      54.344  33.300  54.563  0.00  0.00    -0.226 N 
ATOM      2  N   UNL d   1      53.745  31.864  54.017  0.00  0.00    -0.226 N 
ATOM      3  C   UNL d   1      54.416  33.092  53.747  0.00  0.00     0.111 A 
ATOM      4  C   UNL d   1      54.117  32.380  53.483  0.00  0.00     0.111 A 
ATOM      5  C   UNL d   1      53.674  32.068  54.818  0.00  0.00     0.111 A 
ATOM      6  C   UNL d   1      53.976  32.791  55.095  0.00  0.00     0.111 A 
ENDROOT
BRANCH   1   7
ATOM      7  S   UNL d   1      54.650  34.046  54.873  0.00  0.00     0.277 S 
ATOM      8  O   UNL d   1      55.376  33.685  55.071  0.00  0.00    -0.199 OA
ATOM      9  O   UNL d   1      54.930  34.782  55.171  0.00  0.00    -0.199 OA
BRANCH   7  10
ATOM     10  C   UNL d   1      53.913  34.423  54.675  0.00  0.00     0.133 A 
ATOM     11  S   UNL d   1      53.190  34.408  55.009  0.00  0.00    -0.074 SA
ATOM     12  C   UNL d   1      52.700  34.882  54.570  0.00  0.00     0.036 A 
ATOM     13  C   UNL d   1      53.112  35.208  53.945  0.00  0.00     0.008 A 
ATOM     14  C   UNL d   1      53.875  34.925  54.003  0.00  0.00     0.020 A 
ENDBRANCH   7  10
ENDBRANCH   1   7
BRANCH   2  15
ATOM     15  S   UNL d   1      53.440  31.133  53.741  0.00  0.00     0.277 S 
ATOM     16  O   UNL d   1      53.211  31.503  53.036  0.00  0.00    -0.199 OA
ATOM     17  O   UNL d   1      53.678  30.777  54.458  0.00  0.00    -0.199 OA
BRANCH  15  18
ATOM     18  C   UNL d   1      53.141  30.412  53.473  0.00  0.00     0.133 A 
ATOM     19  S   UNL d   1      52.664  30.210  52.832  0.00  0.00    -0.074 SA
ATOM     20  C   UNL d   1      52.549  29.391  52.851  0.00  0.00     0.036 A 
ATOM     21  C   UNL d   1      52.949  29.096  53.492  0.00  0.00     0.008 A 
ATOM     22  C   UNL d   1      53.319  29.715  53.886  0.00  0.00     0.020 A 
ENDBRANCH  15  18
ENDBRANCH   2  15
TORSDOF 4
ENDMDL
MODEL 3
REMARK VINA RESULT:      -7.0      1.599      4.015
REMARK  4 active torsions:
REMARK  status: ('A' for Active; 'I' for Inactive)
REMARK    1  A    between atoms: N_4  and  S_1 
REMARK    2  A    between atoms: C_5  and  S_1 
REMARK    3  A    between atoms: S_2  and  N_3 
REMARK    4  A    between atoms: C_6  and  S_2 
ROOT
ATOM      1  N   UNL d   1      52.695  33.682  53.305  0.00  0.00    -0.226 N 
ATOM      2  N   UNL d   1      52.932  32.058  53.465  0.00  0.00    -0.226 N 
ATOM      3  C   UNL d   1      52.796  33.199  52.620  0.00  0.00     0.111 A 
ATOM      4  C   UNL d   1      52.913  32.395  52.705  0.00  0.00     0.111 A 
ATOM      5  C   UNL d   1      52.833  32.532  54.137  0.00  0.00     0.111 A 
ATOM      6  C   UNL d   1      52.714  33.351  54.060  0.00  0.00     0.111 A 
ENDROOT
BRANCH   1   7
ATOM      7  S   UNL d   1      52.570  34.535  53.248  0.00  0.00     0.277 S 
ATOM      8  O   UNL d   1      53.368  34.682  53.444  0.00  0.00    -0.199 OA
ATOM      9  O   UNL d   1      52.428  35.363  53.188  0.00  0.00    -0.199 OA
BRANCH   7  10
ATOM     10  C   UNL d   1      51.754  34.395  53.048  0.00  0.00     0.133 A 
ATOM     11  S   UNL d   1      51.117  34.196  53.483  0.00  0.00    -0.074 SA
ATOM     12  C   UNL d   1      50.480  34.139  52.984  0.00  0.00     0.036 A 
ATOM     13  C   UNL d   1      50.710  34.304  52.218  0.00  0.00     0.008 A 
ATOM     14  C   UNL d   1      51.508  34.466  52.249  0.00  0.00     0.020 A 
ENDBRANCH   7  10
ENDBRANCH   1   7
BRANCH   2  15
ATOM     15  S   UNL d   1      53.053  31.232  53.546  0.00  0.00     0.277 S 
ATOM     16  O   UNL d   1      52.476  31.097  52.968  0.00  0.00    -0.199 OA
ATOM     17  O   UNL d   1      53.632  31.388  54.128  0.00  0.00    -0.199 OA
BRANCH  15  18
ATOM     18  C   UNL d   1      53.176  30.420  53.631  0.00  0.00     0.133 A 
ATOM     19  S   UNL d   1      53.760  29.983  54.015  0.00  0.00    -0.074 SA
ATOM     20  C   UNL d   1      53.587  29.182  53.906  0.00  0.00     0.036 A 
ATOM     21  C   UNL d   1      52.909  29.129  53.463  0.00  0.00     0.008 A 
ATOM     22  C   UNL d   1      52.644  29.886  53.286  0.00  0.00     0.020 A 
ENDBRANCH  15  18
ENDBRANCH   2  15
TORSDOF 4
ENDMDL
MODEL 4
REMARK VINA RESULT:      -6.9      2.125      2.873
REMARK  4 active torsions:
REMARK  status: ('A' for Active; 'I' for Inactive)
REMARK    1  A    between atoms: N_4  and  S_1 
REMARK    2  A    between atoms: C_5  and  S_1 
REMARK    3  A    between atoms: S_2  and  N_3 
REMARK    4  A    between atoms: C_6  and  S_2 
ROOT
ATOM      1  N   UNL d   1      53.050  31.062  53.016  0.00  0.00    -0.226 N 
ATOM      2  N   UNL d   1      53.086  32.608  53.590  0.00  0.00    -0.226 N 
ATOM      3  C   UNL d   1      53.768  31.385  53.322  0.00  0.00     0.111 A 
ATOM      4  C   UNL d   1      53.780  32.151  53.604  0.00  0.00     0.111 A 
ATOM      5  C   UNL d   1      52.381  32.292  53.290  0.00  0.00     0.111 A 
ATOM      6  C   UNL d   1      52.360  31.513  53.000  0.00  0.00     0.111 A 
ENDROOT
BRANCH   1   7
ATOM      7  S   UNL d   1      53.005  30.256  52.710  0.00  0.00     0.277 S 
ATOM      8  O   UNL d   1      53.002  30.537  51.924  0.00  0.00    -0.199 OA
ATOM      9  O   UNL d   1      52.961  29.463  52.431  0.00  0.00    -0.199 OA
BRANCH   7  10
ATOM     10  C   UNL d   1      53.007  29.960  53.508  0.00  0.00     0.133 A 
ATOM     11  S   UNL d   1      52.470  29.985  54.096  0.00  0.00    -0.074 SA
ATOM     12  C   UNL d   1      52.784  29.605  54.740  0.00  0.00     0.036 A 
ATOM     13  C   UNL d   1      53.532  29.331  54.565  0.00  0.00     0.008 A 
ATOM     14  C   UNL d   1      53.681  29.549  53.793  0.00  0.00     0.020 A 
ENDBRANCH   7  10
ENDBRANCH   1   7
BRANCH   2  15
ATOM     15  S   UNL d   1      53.104  33.394  53.881  0.00  0.00     0.277 S 
ATOM     16  O   UNL d   1      53.926  33.407  53.780  0.00  0.00    -0.199 OA
ATOM     17  O   UNL d   1      52.274  33.364  53.977  0.00  0.00    -0.199 OA
BRANCH  15  18
ATOM     18  C   UNL d   1      53.115  34.168  54.169  0.00  0.00     0.133 A 
ATOM     19  S   UNL d   1      53.312  34.485  54.905  0.00  0.00    -0.074 SA
ATOM     20  C   UNL d   1      53.215  35.305  54.859  0.00  0.00     0.036 A 
ATOM     21  C   UNL d   1      52.963  35.487  54.110  0.00  0.00     0.008 A 
ATOM     22  C   UNL d   1      52.897  34.794  53.672  0.00  0.00     0.020 A 
ENDBRANCH  15  18
ENDBRANCH   2  15
TORSDOF 4
ENDMDL
