MODEL 1
REMARK VINA RESULT:      -3.3      0.000      0.000
REMARK  2 active torsions:
REMARK  status: ('A' for Active; 'I' for Inactive)
REMARK    1  A    between atoms: C_9  and  C_1 
REMARK    2  A    between atoms: C_18  and  N_6 
ROOT
ATOM      1  C   UNL d   1      56.466  -0.771  32.670  0.00  0.00     0.121 A 
ATOM      2  C   UNL d   1      57.254  -0.467  31.511  0.00  0.00     0.057 A 
ATOM      3  C   UNL d   1      56.625  -0.885  31.858  0.00  0.00     0.204 A 
ATOM      4  C   UNL d   1      57.721   0.058  31.956  0.00  0.00     0.069 A 
ATOM      5  C   UNL d   1      56.928  -0.248  33.121  0.00  0.00     0.089 A 
ATOM      6  N   UNL d   1      57.554   0.164  32.761  0.00  0.00    -0.303 N 
ATOM      7  C   UNL d   1      58.336   0.462  31.601  0.00  0.00     0.044 A 
ATOM      8  C   UNL d   1      57.421  -0.573  30.707  0.00  0.00     0.031 A 
ATOM      9  C   UNL d   1      58.498   0.355  30.804  0.00  0.00     0.121 A 
ATOM     10  C   UNL d   1      58.041  -0.163  30.356  0.00  0.00     0.119 A 
ATOM     11  O   UNL d   1      59.069   0.682  30.315  0.00  0.00    -0.299 OA
ATOM     12  O   UNL d   1      58.330  -0.155  29.592  0.00  0.00    -0.300 OA
ATOM     13  O   UNL d   1      56.168  -1.403  31.411  0.00  0.00    -0.286 OA
ATOM     14  C   UNL d   1      58.962   0.363  29.562  0.00  0.00     0.304 A 
ENDROOT
BRANCH   1  15
ATOM     15  C   UNL d   1      55.843  -1.182  33.023  0.00  0.00     0.215 C 
ATOM     16  O   UNL d   1      55.919  -1.986  33.181  0.00  0.00    -0.644 OA
ATOM     17  O   UNL d   1      55.149  -0.787  33.217  0.00  0.00    -0.644 OA
ENDBRANCH   1  15
BRANCH   6  18
ATOM     18  C   UNL d   1      58.012   0.682  33.209  0.00  0.00     0.080 C 
ATOM     19  C   UNL d   1      57.950   0.675  34.036  0.00  0.00     0.021 C 
ENDBRANCH   6  18
TORSDOF 2
ENDMDL
MODEL 2
REMARK VINA RESULT:      -3.2      2.796      4.117
REMARK  2 active torsions:
REMARK  status: ('A' for Active; 'I' for Inactive)
REMARK    1  A    between atoms: C_9  and  C_1 
REMARK    2  A    between atoms: C_18  and  N_6 
ROOT
ATOM      1  C   UNL d   1      58.689  -0.247  29.638  0.00  0.00     0.121 A 
ATOM      2  C   UNL d   1      59.073  -1.587  29.300  0.00  0.00     0.057 A 
ATOM      3  C   UNL d   1      58.502  -1.059  29.595  0.00  0.00     0.204 A 
ATOM      4  C   UNL d   1      59.818  -1.319  29.048  0.00  0.00     0.069 A 
ATOM      5  C   UNL d   1      59.432   0.029  29.388  0.00  0.00     0.089 A 
ATOM      6  N   UNL d   1      59.994  -0.510  29.095  0.00  0.00    -0.303 N 
ATOM      7  C   UNL d   1      60.369  -1.849  28.760  0.00  0.00     0.044 A 
ATOM      8  C   UNL d   1      58.897  -2.395  29.254  0.00  0.00     0.031 A 
ATOM      9  C   UNL d   1      60.191  -2.650  28.716  0.00  0.00     0.121 A 
ATOM     10  C   UNL d   1      59.455  -2.923  28.963  0.00  0.00     0.119 A 
ATOM     11  O   UNL d   1      60.630  -3.291  28.456  0.00  0.00    -0.299 OA
ATOM     12  O   UNL d   1      59.440  -3.733  28.855  0.00  0.00    -0.300 OA
ATOM     13  O   UNL d   1      57.766  -1.332  29.842  0.00  0.00    -0.286 OA
ATOM     14  C   UNL d   1      60.160  -3.964  28.543  0.00  0.00     0.304 A 
ENDROOT
BRANCH   1  15
ATOM     15  C   UNL d   1      58.129   0.285  29.929  0.00  0.00     0.215 C 
ATOM     16  O   UNL d   1      57.630   0.682  29.410  0.00  0.00    -0.644 OA
ATOM     17  O   UNL d   1      58.071   0.416  30.739  0.00  0.00    -0.644 OA
ENDBRANCH   1  15
BRANCH   6  18
ATOM     18  C   UNL d   1      60.730  -0.237  28.848  0.00  0.00     0.080 C 
ATOM     19  C   UNL d   1      60.933   0.559  28.961  0.00  0.00     0.021 C 
ENDBRANCH   6  18
TORSDOF 2
ENDMDL
MODEL 3
REMARK VINA RESULT:      -2.4      1.182      3.273
REMARK  2 active torsions:
REMARK  status: ('A' for Active; 'I' for Inactive)
REMARK    1  A    between atoms: C_9  and  C_1 
REMARK    2  A    between atoms: C_18  and  N_6 
ROOT
ATOM      1  C   UNL d   1      57.372  -0.230  31.478  0.00  0.00     0.121 A 
ATOM      2  C   UNL d   1      56.413  -0.045  32.527  0.00  0.00     0.057 A 
ATOM      3  C   UNL d   1      56.590  -0.305  31.758  0.00  0.00     0.204 A 
ATOM      4  C   UNL d   1      56.998   0.285  33.016  0.00  0.00     0.069 A 
ATOM      5  C   UNL d   1      57.964   0.099  31.960  0.00  0.00     0.089 A 
ATOM      6  N   UNL d   1      57.773   0.356  32.728  0.00  0.00    -0.303 N 
ATOM      7  C   UNL d   1      56.810   0.537  33.770  0.00  0.00     0.044 A 
ATOM      8  C   UNL d   1      55.639  -0.116  32.814  0.00  0.00     0.031 A 
ATOM      9  C   UNL d   1      56.042   0.466  34.052  0.00  0.00     0.121 A 
ATOM     10  C   UNL d   1      55.456   0.139  33.574  0.00  0.00     0.119 A 
ATOM     11  O   UNL d   1      55.705   0.668  34.771  0.00  0.00    -0.299 OA
ATOM     12  O   UNL d   1      54.758   0.141  33.998  0.00  0.00    -0.300 OA
ATOM     13  O   UNL d   1      56.004  -0.631  31.280  0.00  0.00    -0.286 OA
ATOM     14  C   UNL d   1      54.906   0.465  34.735  0.00  0.00     0.304 A 
ENDROOT
BRANCH   1  15
ATOM     15  C   UNL d   1      57.558  -0.485  30.715  0.00  0.00     0.215 C 
ATOM     16  O   UNL d   1      57.597  -1.291  30.550  0.00  0.00    -0.644 OA
ATOM     17  O   UNL d   1      57.702   0.065  30.122  0.00  0.00    -0.644 OA
ENDBRANCH   1  15
BRANCH   6  18
ATOM     18  C   UNL d   1      58.358   0.682  33.206  0.00  0.00     0.080 C 
ATOM     19  C   UNL d   1      59.146   0.682  32.949  0.00  0.00     0.021 C 
ENDBRANCH   6  18
TORSDOF 2
ENDMDL
MODEL 4
REMARK VINA RESULT:      -1.5      9.410      9.936
REMARK  2 active torsions:
REMARK  status: ('A' for Active; 'I' for Inactive)
REMARK    1  A    between atoms: C_9  and  C_1 
REMARK    2  A    between atoms: C_18  and  N_6 
ROOT
ATOM      1  C   UNL d   1      58.659  -9.616  32.139  0.00  0.00     0.121 A 
ATOM      2  C   UNL d   1      59.210  -9.390  33.443  0.00  0.00     0.057 A 
ATOM      3  C   UNL d   1      58.545  -9.438  32.947  0.00  0.00     0.204 A 
ATOM      4  C   UNL d   1      59.978  -9.513  33.150  0.00  0.00     0.069 A 
ATOM      5  C   UNL d   1      59.423  -9.741  31.838  0.00  0.00     0.089 A 
ATOM      6  N   UNL d   1      60.080  -9.689  32.346  0.00  0.00    -0.303 N 
ATOM      7  C   UNL d   1      60.621  -9.462  33.650  0.00  0.00     0.044 A 
ATOM      8  C   UNL d   1      59.107  -9.214  34.247  0.00  0.00     0.031 A 
ATOM      9  C   UNL d   1      60.517  -9.288  34.446  0.00  0.00     0.121 A 
ATOM     10  C   UNL d   1      59.760  -9.164  34.744  0.00  0.00     0.119 A 
ATOM     11  O   UNL d   1      61.053  -9.204  35.060  0.00  0.00    -0.299 OA
ATOM     12  O   UNL d   1      59.829  -9.003  35.542  0.00  0.00    -0.300 OA
ATOM     13  O   UNL d   1      57.788  -9.314  33.245  0.00  0.00    -0.286 OA
ATOM     14  C   UNL d   1      60.622  -9.027  35.741  0.00  0.00     0.304 A 
ENDROOT
BRANCH   1  15
ATOM     15  C   UNL d   1      58.005  -9.667  31.638  0.00  0.00     0.215 C 
ATOM     16  O   UNL d   1      57.258  -9.817  31.951  0.00  0.00    -0.644 OA
ATOM     17  O   UNL d   1      58.100  -9.568  30.828  0.00  0.00    -0.644 OA
ENDBRANCH   1  15
BRANCH   6  18
ATOM     18  C   UNL d   1      60.837  -9.813  32.048  0.00  0.00     0.080 C 
ATOM     19  C   UNL d   1      60.991  -9.667  31.246  0.00  0.00     0.021 C 
ENDBRANCH   6  18
TORSDOF 2
ENDMDL
MODEL 5
REMARK VINA RESULT:      -0.9      9.674     10.086
REMARK  2 active torsions:
REMARK  status: ('A' for Active; 'I' for Inactive)
REMARK    1  A    between atoms: C_9  and  C_1 
REMARK    2  A    between atoms: C_18  and  N_6 
ROOT
ATOM      1  C   UNL d   1      58.212  -9.788  30.193  0.00  0.00     0.121 A 
ATOM      2  C   UNL d   1      58.550  -9.791  31.587  0.00  0.00     0.057 A 
ATOM      3  C   UNL d   1      57.969  -9.784  30.992  0.00  0.00     0.204 A 
ATOM      4  C   UNL d   1      59.360  -9.801  31.399  0.00  0.00     0.069 A 
ATOM      5  C   UNL d   1      59.019  -9.797  29.997  0.00  0.00     0.089 A 
ATOM      6  N   UNL d   1      59.590  -9.804  30.602  0.00  0.00    -0.303 N 
ATOM      7  C   UNL d   1      59.919  -9.807  31.994  0.00  0.00     0.044 A 
ATOM      8  C   UNL d   1      58.320  -9.788  32.383  0.00  0.00     0.031 A 
ATOM      9  C   UNL d   1      59.688  -9.804  32.782  0.00  0.00     0.121 A 
ATOM     10  C   UNL d   1      58.888  -9.794  32.976  0.00  0.00     0.119 A 
ATOM     11  O   UNL d   1      60.122  -9.809  33.477  0.00  0.00    -0.299 OA
ATOM     12  O   UNL d   1      58.829  -9.793  33.791  0.00  0.00    -0.300 OA
ATOM     13  O   UNL d   1      57.170  -9.775  31.187  0.00  0.00    -0.286 OA
ATOM     14  C   UNL d   1      59.585  -9.802  34.104  0.00  0.00     0.304 A 
ENDROOT
BRANCH   1  15
ATOM     15  C   UNL d   1      57.642  -9.781  29.596  0.00  0.00     0.215 C 
ATOM     16  O   UNL d   1      57.875  -9.776  28.807  0.00  0.00    -0.644 OA
ATOM     17  O   UNL d   1      56.844  -9.780  29.790  0.00  0.00    -0.644 OA
ENDBRANCH   1  15
BRANCH   6  18
ATOM     18  C   UNL d   1      60.390  -9.814  30.408  0.00  0.00     0.080 C 
ATOM     19  C   UNL d   1      60.624  -9.675  29.625  0.00  0.00     0.021 C 
ENDBRANCH   6  18
TORSDOF 2
ENDMDL
MODEL 6
REMARK VINA RESULT:      -0.5      1.715      2.473
REMARK  2 active torsions:
REMARK  status: ('A' for Active; 'I' for Inactive)
REMARK    1  A    between atoms: C_9  and  C_1 
REMARK    2  A    between atoms: C_18  and  N_6 
ROOT
ATOM      1  C   UNL d   1      57.448   0.006  31.363  0.00  0.00     0.121 A 
ATOM      2  C   UNL d   1      57.861  -1.072  30.512  0.00  0.00     0.057 A 
ATOM      3  C   UNL d   1      57.360  -0.784  31.110  0.00  0.00     0.204 A 
ATOM      4  C   UNL d   1      58.442  -0.588  30.166  0.00  0.00     0.069 A 
ATOM      5  C   UNL d   1      58.027   0.496  31.023  0.00  0.00     0.089 A 
ATOM      6  N   UNL d   1      58.521   0.196  30.425  0.00  0.00    -0.303 N 
ATOM      7  C   UNL d   1      58.926  -0.884  29.579  0.00  0.00     0.044 A 
ATOM      8  C   UNL d   1      57.781  -1.855  30.254  0.00  0.00     0.031 A 
ATOM      9  C   UNL d   1      58.845  -1.660  29.326  0.00  0.00     0.121 A 
ATOM     10  C   UNL d   1      58.272  -2.146  29.663  0.00  0.00     0.119 A 
ATOM     11  O   UNL d   1      59.248  -2.093  28.758  0.00  0.00    -0.299 OA
ATOM     12  O   UNL d   1      58.322  -2.878  29.303  0.00  0.00    -0.300 OA
ATOM     13  O   UNL d   1      56.788  -1.270  31.447  0.00  0.00    -0.286 OA
ATOM     14  C   UNL d   1      58.921  -2.850  28.746  0.00  0.00     0.304 A 
ENDROOT
BRANCH   1  15
ATOM     15  C   UNL d   1      56.956   0.300  31.957  0.00  0.00     0.215 C 
ATOM     16  O   UNL d   1      57.181   0.237  32.746  0.00  0.00    -0.644 OA
ATOM     17  O   UNL d   1      56.242   0.656  31.759  0.00  0.00    -0.644 OA
ENDBRANCH   1  15
BRANCH   6  18
ATOM     18  C   UNL d   1      59.094   0.682  30.088  0.00  0.00     0.080 C 
ATOM     19  C   UNL d   1      59.888   0.594  30.307  0.00  0.00     0.021 C 
ENDBRANCH   6  18
TORSDOF 2
ENDMDL
MODEL 7
REMARK VINA RESULT:      -0.4      2.910      3.879
REMARK  2 active torsions:
REMARK  status: ('A' for Active; 'I' for Inactive)
REMARK    1  A    between atoms: C_9  and  C_1 
REMARK    2  A    between atoms: C_18  and  N_6 
ROOT
ATOM      1  C   UNL d   1      58.681  -2.748  29.184  0.00  0.00     0.121 A 
ATOM      2  C   UNL d   1      59.585  -1.647  29.022  0.00  0.00     0.057 A 
ATOM      3  C   UNL d   1      59.398  -2.445  28.883  0.00  0.00     0.204 A 
ATOM      4  C   UNL d   1      59.075  -1.153  29.453  0.00  0.00     0.069 A 
ATOM      5  C   UNL d   1      58.165  -2.261  29.616  0.00  0.00     0.089 A 
ATOM      6  N   UNL d   1      58.365  -1.464  29.748  0.00  0.00    -0.303 N 
ATOM      7  C   UNL d   1      59.273  -0.371  29.582  0.00  0.00     0.044 A 
ATOM      8  C   UNL d   1      60.295  -1.337  28.727  0.00  0.00     0.031 A 
ATOM      9  C   UNL d   1      59.976  -0.067  29.288  0.00  0.00     0.121 A 
ATOM     10  C   UNL d   1      60.487  -0.550  28.861  0.00  0.00     0.119 A 
ATOM     11  O   UNL d   1      60.307   0.682  29.334  0.00  0.00    -0.299 OA
ATOM     12  O   UNL d   1      61.133  -0.099  28.643  0.00  0.00    -0.300 OA
ATOM     13  O   UNL d   1      59.909  -2.928  28.455  0.00  0.00    -0.286 OA
ATOM     14  C   UNL d   1      61.027   0.659  28.932  0.00  0.00     0.304 A 
ENDROOT
BRANCH   1  15
ATOM     15  C   UNL d   1      58.486  -3.539  29.051  0.00  0.00     0.215 C 
ATOM     16  O   UNL d   1      58.852  -4.132  29.489  0.00  0.00    -0.644 OA
ATOM     17  O   UNL d   1      57.926  -3.733  28.481  0.00  0.00    -0.644 OA
ENDBRANCH   1  15
BRANCH   6  18
ATOM     18  C   UNL d   1      57.854  -0.981  30.176  0.00  0.00     0.080 C 
ATOM     19  C   UNL d   1      57.421  -1.298  30.808  0.00  0.00     0.021 C 
ENDBRANCH   6  18
TORSDOF 2
ENDMDL
