MODEL 1
REMARK VINA RESULT:      54.5      0.000      0.000
REMARK  10 active torsions:
REMARK  status: ('A' for Active; 'I' for Inactive)
REMARK    1  A    between atoms: C_4  and  N_1 
REMARK    2  A    between atoms: C_10  and  C_2 
REMARK    3  A    between atoms: N_16  and  C_4 
REMARK    4  A    between atoms: O_22  and  C_8 
REMARK    5  A    between atoms: O_15  and  C_10 
REMARK    6  A    between atoms: O_23  and  C_11 
REMARK    7  A    between atoms: C_14  and  O_15 
REMARK    8  A    between atoms: C_25  and  N_16 
REMARK    9  A    between atoms: O_24  and  C_28 
REMARK   10  A    between atoms: C_28  and  C_25 
ROOT
ATOM      1  N   UNL d   1      13.944  15.171  -3.503  0.00  0.00    -0.280 N 
ATOM      2  C   UNL d   1      14.098  14.977  -2.716  0.00  0.00     0.091 A 
ATOM      3  C   UNL d   1      14.537  15.485  -2.252  0.00  0.00     0.020 A 
ATOM      4  C   UNL d   1      14.826  16.190  -2.565  0.00  0.00     0.005 A 
ATOM      5  C   UNL d   1      14.689  15.289  -1.469  0.00  0.00     0.028 A 
ATOM      6  C   UNL d   1      14.233  15.876  -3.817  0.00  0.00     0.082 A 
ATOM      7  C   UNL d   1      15.132  15.800  -0.996  0.00  0.00     0.116 A 
ATOM      8  C   UNL d   1      15.268  16.700  -2.097  0.00  0.00     0.026 A 
ATOM      9  C   UNL d   1      15.422  16.505  -1.310  0.00  0.00     0.116 A 
ATOM     10  C   UNL d   1      14.676  16.387  -3.344  0.00  0.00     0.019 A 
ENDROOT
BRANCH   2  11
ATOM     11  C   UNL d   1      13.809  14.271  -2.402  0.00  0.00     0.140 C 
BRANCH  11  12
ATOM     12  O   UNL d   1      14.189  13.558  -2.570  0.00  0.00    -0.304 OA
BRANCH  12  13
ATOM     13  C   UNL d   1      14.233  12.969  -1.995  0.00  0.00     0.100 A 
ATOM     14  C   UNL d   1      14.967  12.674  -1.762  0.00  0.00     0.025 A 
ATOM     15  C   UNL d   1      15.011  12.085  -1.186  0.00  0.00     0.002 A 
ATOM     16  C   UNL d   1      15.746  11.784  -0.947  0.00  0.00     0.000 C 
ATOM     17  C   UNL d   1      14.321  11.790  -0.845  0.00  0.00     0.000 A 
ATOM     18  C   UNL d   1      13.586  12.085  -1.078  0.00  0.00     0.002 A 
ATOM     19  C   UNL d   1      13.542  12.674  -1.653  0.00  0.00     0.025 A 
ATOM     20  C   UNL d   1      12.896  11.780  -0.726  0.00  0.00     0.000 C 
ENDBRANCH  12  13
ENDBRANCH  11  12
ENDBRANCH   2  11
BRANCH   1  21
ATOM     21  C   UNL d   1      13.497  14.659  -3.983  0.00  0.00     0.206 C 
ATOM     22  S   UNL d   1      12.769  14.917  -4.298  0.00  0.00    -0.038 SA
BRANCH  21  23
ATOM     23  N   UNL d   1      13.772  13.906  -4.145  0.00  0.00    -0.215 NA
BRANCH  23  24
ATOM     24  C   UNL d   1      13.845  13.649  -4.925  0.00  0.00     0.128 C 
BRANCH  24  25
ATOM     25  C   UNL d   1      13.771  12.848  -5.104  0.00  0.00     0.137 C 
BRANCH  25  26
ATOM     26  O   UNL d   1      13.045  12.541  -5.311  0.00  0.00    -0.325 OA
ATOM     27  C   UNL d   1      12.991  11.779  -5.613  0.00  0.00     0.182 C 
ENDBRANCH  25  26
ENDBRANCH  24  25
ENDBRANCH  23  24
ENDBRANCH  21  23
ENDBRANCH   1  21
BRANCH   7  28
ATOM     28  O   UNL d   1      15.288  15.606  -0.205  0.00  0.00    -0.326 OA
ATOM     29  C   UNL d   1      15.867  15.038  -0.015  0.00  0.00     0.181 C 
ENDBRANCH   7  28
BRANCH   9  30
ATOM     30  O   UNL d   1      15.867  17.017  -0.833  0.00  0.00    -0.326 OA
ATOM     31  C   UNL d   1      15.490  17.508  -0.275  0.00  0.00     0.181 C 
ENDBRANCH   9  30
TORSDOF 10
ENDMDL
MODEL 2
REMARK VINA RESULT:      54.8      1.415      3.986
REMARK  10 active torsions:
REMARK  status: ('A' for Active; 'I' for Inactive)
REMARK    1  A    between atoms: C_4  and  N_1 
REMARK    2  A    between atoms: C_10  and  C_2 
REMARK    3  A    between atoms: N_16  and  C_4 
REMARK    4  A    between atoms: O_22  and  C_8 
REMARK    5  A    between atoms: O_15  and  C_10 
REMARK    6  A    between atoms: O_23  and  C_11 
REMARK    7  A    between atoms: C_14  and  O_15 
REMARK    8  A    between atoms: C_25  and  N_16 
REMARK    9  A    between atoms: O_24  and  C_28 
REMARK   10  A    between atoms: C_28  and  C_25 
ROOT
ATOM      1  N   UNL d   1      14.082  15.265  -4.069  0.00  0.00    -0.280 N 
ATOM      2  C   UNL d   1      13.967  14.583  -3.620  0.00  0.00     0.091 A 
ATOM      3  C   UNL d   1      13.683  13.906  -3.978  0.00  0.00     0.020 A 
ATOM      4  C   UNL d   1      13.511  13.902  -4.783  0.00  0.00     0.005 A 
ATOM      5  C   UNL d   1      13.569  13.228  -3.529  0.00  0.00     0.028 A 
ATOM      6  C   UNL d   1      13.910  15.262  -4.875  0.00  0.00     0.082 A 
ATOM      7  C   UNL d   1      13.282  12.541  -3.886  0.00  0.00     0.116 A 
ATOM      8  C   UNL d   1      13.225  13.220  -5.141  0.00  0.00     0.026 A 
ATOM      9  C   UNL d   1      13.110  12.538  -4.691  0.00  0.00     0.116 A 
ATOM     10  C   UNL d   1      13.622  14.575  -5.233  0.00  0.00     0.019 A 
ENDROOT
BRANCH   2  11
ATOM     11  C   UNL d   1      14.140  14.587  -2.814  0.00  0.00     0.140 C 
BRANCH  11  12
ATOM     12  O   UNL d   1      14.695  14.058  -2.509  0.00  0.00    -0.304 OA
BRANCH  12  13
ATOM     13  C   UNL d   1      14.838  14.034  -1.696  0.00  0.00     0.100 A 
ATOM     14  C   UNL d   1      14.860  13.309  -1.304  0.00  0.00     0.025 A 
ATOM     15  C   UNL d   1      15.002  13.284  -0.492  0.00  0.00     0.002 A 
ATOM     16  C   UNL d   1      15.026  12.558  -0.090  0.00  0.00     0.000 C 
ATOM     17  C   UNL d   1      15.122  13.984  -0.073  0.00  0.00     0.000 A 
ATOM     18  C   UNL d   1      15.100  14.710  -0.465  0.00  0.00     0.002 A 
ATOM     19  C   UNL d   1      14.958  14.734  -1.278  0.00  0.00     0.025 A 
ATOM     20  C   UNL d   1      15.223  15.410  -0.033  0.00  0.00     0.000 C 
ENDBRANCH  12  13
ENDBRANCH  11  12
ENDBRANCH   2  11
BRANCH   1  21
ATOM     21  C   UNL d   1      14.372  15.960  -3.713  0.00  0.00     0.206 C 
ATOM     22  S   UNL d   1      13.900  16.366  -3.158  0.00  0.00    -0.038 SA
BRANCH  21  23
ATOM     23  N   UNL d   1      15.114  16.240  -3.908  0.00  0.00    -0.215 NA
BRANCH  23  24
ATOM     24  C   UNL d   1      15.197  16.859  -4.446  0.00  0.00     0.128 C 
BRANCH  24  25
ATOM     25  C   UNL d   1      15.210  17.639  -4.180  0.00  0.00     0.137 C 
BRANCH  25  26
ATOM     26  O   UNL d   1      15.495  18.231  -4.663  0.00  0.00    -0.325 OA
ATOM     27  C   UNL d   1      15.016  18.867  -4.862  0.00  0.00     0.182 C 
ENDBRANCH  25  26
ENDBRANCH  24  25
ENDBRANCH  23  24
ENDBRANCH  21  23
ENDBRANCH   1  21
BRANCH   7  28
ATOM     28  O   UNL d   1      13.166  11.855  -3.436  0.00  0.00    -0.326 OA
ATOM     29  C   UNL d   1      13.029  11.904  -2.616  0.00  0.00     0.181 C 
ENDBRANCH   7  28
BRANCH   9  30
ATOM     30  O   UNL d   1      12.821  11.847  -5.049  0.00  0.00    -0.326 OA
ATOM     31  C   UNL d   1      12.782  11.787  -5.879  0.00  0.00     0.181 C 
ENDBRANCH   9  30
TORSDOF 10
ENDMDL
MODEL 3
REMARK VINA RESULT:      56.0      1.603      4.948
REMARK  10 active torsions:
REMARK  status: ('A' for Active; 'I' for Inactive)
REMARK    1  A    between atoms: C_4  and  N_1 
REMARK    2  A    between atoms: C_10  and  C_2 
REMARK    3  A    between atoms: N_16  and  C_4 
REMARK    4  A    between atoms: O_22  and  C_8 
REMARK    5  A    between atoms: O_15  and  C_10 
REMARK    6  A    between atoms: O_23  and  C_11 
REMARK    7  A    between atoms: C_14  and  O_15 
REMARK    8  A    between atoms: C_25  and  N_16 
REMARK    9  A    between atoms: O_24  and  C_28 
REMARK   10  A    between atoms: C_28  and  C_25 
ROOT
ATOM      1  N   UNL d   1      14.472  13.046  -1.269  0.00  0.00    -0.280 N 
ATOM      2  C   UNL d   1      14.278  13.435  -1.970  0.00  0.00     0.091 A 
ATOM      3  C   UNL d   1      13.909  13.025  -2.572  0.00  0.00     0.020 A 
ATOM      4  C   UNL d   1      13.730  12.226  -2.482  0.00  0.00     0.005 A 
ATOM      5  C   UNL d   1      13.717  13.414  -3.269  0.00  0.00     0.028 A 
ATOM      6  C   UNL d   1      14.293  12.247  -1.178  0.00  0.00     0.082 A 
ATOM      7  C   UNL d   1      13.344  13.003  -3.880  0.00  0.00     0.116 A 
ATOM      8  C   UNL d   1      13.359  11.814  -3.088  0.00  0.00     0.026 A 
ATOM      9  C   UNL d   1      13.165  12.204  -3.790  0.00  0.00     0.116 A 
ATOM     10  C   UNL d   1      13.920  11.836  -1.789  0.00  0.00     0.019 A 
ENDROOT
BRANCH   2  11
ATOM     11  C   UNL d   1      14.457  14.235  -2.061  0.00  0.00     0.140 C 
BRANCH  11  12
ATOM     12  O   UNL d   1      14.110  14.669  -2.671  0.00  0.00    -0.304 OA
BRANCH  12  13
ATOM     13  C   UNL d   1      14.439  15.389  -2.903  0.00  0.00     0.100 A 
ATOM     14  C   UNL d   1      14.563  15.984  -2.346  0.00  0.00     0.025 A 
ATOM     15  C   UNL d   1      14.892  16.704  -2.578  0.00  0.00     0.002 A 
ATOM     16  C   UNL d   1      15.020  17.307  -2.022  0.00  0.00     0.000 C 
ATOM     17  C   UNL d   1      15.096  16.829  -3.367  0.00  0.00     0.000 A 
ATOM     18  C   UNL d   1      14.971  16.234  -3.925  0.00  0.00     0.002 A 
ATOM     19  C   UNL d   1      14.643  15.513  -3.693  0.00  0.00     0.025 A 
ATOM     20  C   UNL d   1      15.181  16.370  -4.719  0.00  0.00     0.000 C 
ENDBRANCH  12  13
ENDBRANCH  11  12
ENDBRANCH   2  11
BRANCH   1  21
ATOM     21  C   UNL d   1      14.848  13.457  -0.650  0.00  0.00     0.206 C 
ATOM     22  S   UNL d   1      14.389  13.819  -0.056  0.00  0.00    -0.038 SA
BRANCH  21  23
ATOM     23  N   UNL d   1      15.664  13.504  -0.626  0.00  0.00    -0.215 NA
BRANCH  23  24
ATOM     24  C   UNL d   1      16.035  14.015  -0.097  0.00  0.00     0.128 C 
BRANCH  24  25
ATOM     25  C   UNL d   1      16.856  14.089  -0.103  0.00  0.00     0.137 C 
BRANCH  25  26
ATOM     26  O   UNL d   1      17.199  14.827  -0.045  0.00  0.00    -0.325 OA
ATOM     27  C   UNL d   1      17.518  15.186  -0.710  0.00  0.00     0.182 C 
ENDBRANCH  25  26
ENDBRANCH  24  25
ENDBRANCH  23  24
ENDBRANCH  21  23
ENDBRANCH   1  21
BRANCH   7  28
ATOM     28  O   UNL d   1      13.149  13.392  -4.586  0.00  0.00    -0.326 OA
ATOM     29  C   UNL d   1      12.769  12.983  -5.203  0.00  0.00     0.181 C 
ENDBRANCH   7  28
BRANCH   9  30
ATOM     30  O   UNL d   1      12.791  11.793  -4.405  0.00  0.00    -0.326 OA
ATOM     31  C   UNL d   1      12.917  12.014  -5.199  0.00  0.00     0.181 C 
ENDBRANCH   9  30
TORSDOF 10
ENDMDL
