MODEL 1
REMARK VINA RESULT:      47.6      0.000      0.000
REMARK  4 active torsions:
REMARK  status: ('A' for Active; 'I' for Inactive)
REMARK    1  A    between atoms: C_2  and  S_1 
REMARK    2  A    between atoms: N_3  and  S_1 
REMARK    3  A    between atoms: C_4  and  C_6 
REMARK       I    between atoms: N_7  and  C_4 
REMARK    4  A    between atoms: C_14  and  N_7 
ROOT
ATOM      1  C   UNL d   1      46.425 -18.934  41.878  0.00  0.00     0.104 A 
ATOM      2  C   UNL d   1      46.312 -18.298  41.369  0.00  0.00     0.018 A 
ATOM      3  C   UNL d   1      46.308 -18.423  40.552  0.00  0.00     0.059 A 
ATOM      4  C   UNL d   1      46.533 -19.693  41.579  0.00  0.00     0.012 A 
ATOM      5  C   UNL d   1      46.416 -19.182  40.248  0.00  0.00     0.005 A 
ATOM      6  C   UNL d   1      46.528 -19.818  40.763  0.00  0.00     0.001 A 
ATOM      7  C   UNL d   1      46.646 -20.329  42.089  0.00  0.00     0.001 C 
ENDROOT
BRANCH   3   8
ATOM      8  C   UNL d   1      46.196 -17.792  40.034  0.00  0.00     0.279 C 
ATOM      9  N   UNL d   1      45.655 -17.857  39.420  0.00  0.00    -0.208 NA
ATOM     10  O   UNL d   1      46.626 -17.098  40.134  0.00  0.00    -0.265 OA
BRANCH   9  11
ATOM     11  C   UNL d   1      45.539 -17.229  38.898  0.00  0.00     0.087 A 
ATOM     12  C   UNL d   1      44.817 -17.149  38.519  0.00  0.00     0.045 A 
ATOM     13  C   UNL d   1      44.693 -16.520  37.994  0.00  0.00     0.121 A 
ATOM     14  O   UNL d   1      44.038 -16.293  37.534  0.00  0.00    -0.299 OA
ATOM     15  C   UNL d   1      45.302 -15.980  37.858  0.00  0.00     0.119 A 
ATOM     16  C   UNL d   1      44.250 -15.615  37.120  0.00  0.00     0.304 A 
ATOM     17  O   UNL d   1      45.033 -15.412  37.314  0.00  0.00    -0.300 OA
ATOM     18  C   UNL d   1      46.038 -16.062  38.244  0.00  0.00     0.028 A 
ATOM     19  C   UNL d   1      46.154 -16.690  38.766  0.00  0.00     0.021 A 
ENDBRANCH   9  11
ENDBRANCH   3   8
BRANCH   1  20
ATOM     20  S   UNL d   1      46.429 -18.811  42.688  0.00  0.00     0.271 S 
ATOM     21  O   UNL d   1      46.644 -18.022  42.567  0.00  0.00    -0.200 OA
ATOM     22  O   UNL d   1      46.183 -19.720  42.828  0.00  0.00    -0.200 OA
BRANCH  20  23
ATOM     23  N   UNL d   1      46.418 -18.746  43.514  0.00  0.00    -0.229 N 
ATOM     24  C   UNL d   1      46.613 -19.351  44.043  0.00  0.00     0.092 A 
ATOM     25  C   UNL d   1      46.526 -19.047  44.806  0.00  0.00     0.021 A 
ATOM     26  C   UNL d   1      46.278 -18.259  44.740  0.00  0.00     0.021 A 
ATOM     27  C   UNL d   1      46.214 -18.081  43.946  0.00  0.00     0.092 A 
ENDBRANCH  20  23
ENDBRANCH   1  20
TORSDOF 4
ENDMDL
MODEL 2
REMARK VINA RESULT:      48.7      1.785      5.880
REMARK  4 active torsions:
REMARK  status: ('A' for Active; 'I' for Inactive)
REMARK    1  A    between atoms: C_2  and  S_1 
REMARK    2  A    between atoms: N_3  and  S_1 
REMARK    3  A    between atoms: C_4  and  C_6 
REMARK       I    between atoms: N_7  and  C_4 
REMARK    4  A    between atoms: C_14  and  N_7 
ROOT
ATOM      1  C   UNL d   1      45.011 -16.031  37.588  0.00  0.00     0.104 A 
ATOM      2  C   UNL d   1      45.079 -16.635  38.143  0.00  0.00     0.018 A 
ATOM      3  C   UNL d   1      45.801 -16.763  38.523  0.00  0.00     0.059 A 
ATOM      4  C   UNL d   1      45.658 -15.554  37.410  0.00  0.00     0.012 A 
ATOM      5  C   UNL d   1      46.452 -16.288  38.347  0.00  0.00     0.005 A 
ATOM      6  C   UNL d   1      46.379 -15.683  37.790  0.00  0.00     0.001 A 
ATOM      7  C   UNL d   1      45.590 -14.951  36.855  0.00  0.00     0.001 C 
ENDROOT
BRANCH   3   8
ATOM      8  C   UNL d   1      45.878 -17.365  39.080  0.00  0.00     0.279 C 
ATOM      9  N   UNL d   1      46.331 -17.244  39.754  0.00  0.00    -0.208 NA
ATOM     10  O   UNL d   1      45.502 -18.086  38.959  0.00  0.00    -0.265 OA
BRANCH   9  11
ATOM     11  C   UNL d   1      46.412 -17.843  40.316  0.00  0.00     0.087 A 
ATOM     12  C   UNL d   1      46.421 -17.650  41.111  0.00  0.00     0.045 A 
ATOM     13  C   UNL d   1      46.502 -18.248  41.680  0.00  0.00     0.121 A 
ATOM     14  O   UNL d   1      46.531 -18.231  42.512  0.00  0.00    -0.299 OA
ATOM     15  C   UNL d   1      46.574 -19.032  41.437  0.00  0.00     0.119 A 
ATOM     16  C   UNL d   1      46.619 -19.006  42.772  0.00  0.00     0.304 A 
ATOM     17  O   UNL d   1      46.647 -19.512  42.112  0.00  0.00    -0.300 OA
ATOM     18  C   UNL d   1      46.564 -19.229  40.625  0.00  0.00     0.028 A 
ATOM     19  C   UNL d   1      46.483 -18.630  40.064  0.00  0.00     0.021 A 
ENDBRANCH   9  11
ENDBRANCH   3   8
BRANCH   1  20
ATOM     20  S   UNL d   1      44.295 -15.903  37.211  0.00  0.00     0.271 S 
ATOM     21  O   UNL d   1      44.460 -16.523  36.688  0.00  0.00    -0.200 OA
ATOM     22  O   UNL d   1      44.105 -15.191  37.813  0.00  0.00    -0.200 OA
BRANCH  20  23
ATOM     23  N   UNL d   1      43.561 -15.728  36.870  0.00  0.00    -0.229 N 
ATOM     24  C   UNL d   1      43.280 -14.968  36.705  0.00  0.00     0.092 A 
ATOM     25  C   UNL d   1      42.530 -15.051  36.370  0.00  0.00     0.021 A 
ATOM     26  C   UNL d   1      42.356 -15.861  36.330  0.00  0.00     0.021 A 
ATOM     27  C   UNL d   1      42.992 -16.270  36.638  0.00  0.00     0.092 A 
ENDBRANCH  20  23
ENDBRANCH   1  20
TORSDOF 4
ENDMDL
