MODEL 1
REMARK VINA RESULT:      69.2      0.000      0.000
REMARK  6 active torsions:
REMARK  status: ('A' for Active; 'I' for Inactive)
REMARK       I    between atoms: C_6  and  N_1 
REMARK    1  A    between atoms: C_10  and  C_2 
REMARK    2  A    between atoms: O_16  and  C_8 
REMARK    3  A    between atoms: O_14  and  C_10 
REMARK    4  A    between atoms: O_17  and  C_11 
REMARK    5  A    between atoms: C_15  and  O_14 
REMARK    6  A    between atoms: C_24  and  C_18 
ROOT
ATOM      1  N   UNL d   1     -56.013 -99.615 -45.161  0.00  0.00    -0.271 N 
ATOM      2  C   UNL d   1     -56.295 -99.672 -44.388  0.00  0.00     0.092 A 
ATOM      3  C   UNL d   1     -57.066 -99.458 -44.220  0.00  0.00     0.020 A 
ATOM      4  C   UNL d   1     -57.563 -99.188 -44.821  0.00  0.00     0.005 A 
ATOM      5  C   UNL d   1     -57.345 -99.515 -43.450  0.00  0.00     0.028 A 
ATOM      6  C   UNL d   1     -55.226 -99.832 -45.337  0.00  0.00     0.265 C 
ATOM      7  C   UNL d   1     -56.510 -99.345 -45.762  0.00  0.00     0.083 A 
ATOM      8  C   UNL d   1     -58.123 -99.301 -43.276  0.00  0.00     0.116 A 
ATOM      9  C   UNL d   1     -58.338 -98.974 -44.652  0.00  0.00     0.026 A 
ATOM     10  C   UNL d   1     -58.619 -99.030 -43.877  0.00  0.00     0.116 A 
ATOM     11  C   UNL d   1     -57.288 -99.130 -45.589  0.00  0.00     0.019 A 
ATOM     12  O   UNL d   1     -54.729-100.103 -44.736  0.00  0.00    -0.267 OA
ATOM     13  C   UNL d   1     -54.951 -99.775 -46.105  0.00  0.00     0.066 C 
ENDROOT
BRANCH   2  14
ATOM     14  C   UNL d   1     -55.799 -99.942 -43.787  0.00  0.00     0.140 C 
BRANCH  14  15
ATOM     15  O   UNL d   1     -55.461-100.694 -43.837  0.00  0.00    -0.304 OA
BRANCH  15  16
ATOM     16  C   UNL d   1     -55.313-101.127 -43.151  0.00  0.00     0.100 A 
ATOM     17  C   UNL d   1     -54.866-100.794 -42.542  0.00  0.00     0.025 A 
ATOM     18  C   UNL d   1     -54.718-101.227 -41.856  0.00  0.00     0.002 A 
ATOM     19  C   UNL d   1     -55.017-101.993 -41.778  0.00  0.00     0.000 A 
ATOM     20  C   UNL d   1     -55.464-102.325 -42.387  0.00  0.00     0.002 A 
ATOM     21  C   UNL d   1     -55.612-101.892 -43.074  0.00  0.00     0.025 A 
BRANCH  19  22
ATOM     22  C   UNL d   1     -54.869-102.426 -41.091  0.00  0.00     0.000 C 
ATOM     23  C   UNL d   1     -54.838-102.046 -40.363  0.00  0.00     0.000 C 
ENDBRANCH  19  22
ENDBRANCH  15  16
ENDBRANCH  14  15
ENDBRANCH   2  14
BRANCH   8  24
ATOM     24  O   UNL d   1     -58.405 -99.358 -42.496  0.00  0.00    -0.326 OA
ATOM     25  C   UNL d   1     -58.235 -98.761 -41.952  0.00  0.00     0.181 C 
ENDBRANCH   8  24
BRANCH  10  26
ATOM     26  O   UNL d   1     -59.407 -98.812 -43.708  0.00  0.00    -0.326 OA
ATOM     27  C   UNL d   1     -59.955 -98.755 -44.322  0.00  0.00     0.181 C 
ENDBRANCH  10  26
TORSDOF 6
ENDMDL
