MODEL 1
REMARK VINA RESULT:      -7.0      0.000      0.000
REMARK  3 active torsions:
REMARK  status: ('A' for Active; 'I' for Inactive)
REMARK    1  A    between atoms: C_6  and  C_1 
REMARK    2  A    between atoms: C_7  and  C_5 
REMARK    3  A    between atoms: O_11  and  C_6 
ROOT
ATOM      1  C   UNL d   1     -46.475  13.359  22.631  0.00  0.00     0.167 A 
ATOM      2  C   UNL d   1     -46.623  14.017  23.031  0.00  0.00     0.047 A 
ATOM      3  N   UNL d   1     -47.785  13.265  22.300  0.00  0.00    -0.148 NA
ATOM      4  N   UNL d   1     -47.060  12.979  22.262  0.00  0.00    -0.143 NA
ATOM      5  C   UNL d   1     -47.934  13.930  22.704  0.00  0.00     0.105 A 
ENDROOT
BRANCH   5   6
ATOM      6  C   UNL d   1     -48.613  14.375  22.855  0.00  0.00     0.019 A 
ATOM      7  C   UNL d   1     -49.236  14.024  23.281  0.00  0.00     0.002 A 
ATOM      8  C   UNL d   1     -49.920  14.464  23.437  0.00  0.00     0.011 A 
ATOM      9  C   UNL d   1     -49.976  15.250  23.167  0.00  0.00     0.058 A 
ATOM     10  C   UNL d   1     -49.348  15.585  22.746  0.00  0.00     0.011 A 
ATOM     11 CL   UNL d   1     -50.673  15.695  23.328  0.00  0.00    -0.082 Cl
ATOM     12  C   UNL d   1     -48.673  15.148  22.593  0.00  0.00     0.002 A 
ENDBRANCH   5   6
BRANCH   1  13
ATOM     13  C   UNL d   1     -45.738  13.074  22.596  0.00  0.00     0.316 C 
ATOM     14  O   UNL d   1     -45.504  12.517  23.108  0.00  0.00    -0.257 OA
BRANCH  13  15
ATOM     15  O   UNL d   1     -45.222  13.364  22.024  0.00  0.00    -0.294 OA
ATOM     16  C   UNL d   1     -44.487  12.967  21.883  0.00  0.00     0.185 C 
ENDBRANCH  13  15
ENDBRANCH   1  13
TORSDOF 3
ENDMDL
MODEL 2
REMARK VINA RESULT:      -6.9      1.060      1.320
REMARK  3 active torsions:
REMARK  status: ('A' for Active; 'I' for Inactive)
REMARK    1  A    between atoms: C_6  and  C_1 
REMARK    2  A    between atoms: C_7  and  C_5 
REMARK    3  A    between atoms: O_11  and  C_6 
ROOT
ATOM      1  C   UNL d   1     -46.436  12.655  23.195  0.00  0.00     0.167 A 
ATOM      2  C   UNL d   1     -47.199  12.474  23.201  0.00  0.00     0.047 A 
ATOM      3  N   UNL d   1     -46.749  13.960  23.013  0.00  0.00    -0.148 NA
ATOM      4  N   UNL d   1     -46.209  13.404  23.101  0.00  0.00    -0.143 NA
ATOM      5  C   UNL d   1     -47.519  13.776  23.018  0.00  0.00     0.105 A 
ENDROOT
BRANCH   5   6
ATOM      6  C   UNL d   1     -48.218  14.209  22.943  0.00  0.00     0.019 A 
ATOM      7  C   UNL d   1     -48.931  13.867  23.204  0.00  0.00     0.002 A 
ATOM      8  C   UNL d   1     -49.636  14.295  23.132  0.00  0.00     0.011 A 
ATOM      9  C   UNL d   1     -49.625  15.059  22.801  0.00  0.00     0.058 A 
ATOM     10  C   UNL d   1     -48.909  15.385  22.546  0.00  0.00     0.011 A 
ATOM     11 CL   UNL d   1     -50.345  15.491  22.729  0.00  0.00    -0.082 Cl
ATOM     12  C   UNL d   1     -48.212  14.960  22.618  0.00  0.00     0.002 A 
ENDBRANCH   5   6
BRANCH   1  13
ATOM     13  C   UNL d   1     -45.893  12.087  23.285  0.00  0.00     0.316 C 
ATOM     14  O   UNL d   1     -45.168  12.180  22.980  0.00  0.00    -0.257 OA
BRANCH  13  15
ATOM     15  O   UNL d   1     -46.093  11.403  23.698  0.00  0.00    -0.294 OA
ATOM     16  C   UNL d   1     -45.562  10.743  23.695  0.00  0.00     0.185 C 
ENDBRANCH  13  15
ENDBRANCH   1  13
TORSDOF 3
ENDMDL
MODEL 3
REMARK VINA RESULT:      -6.7      2.774      4.174
REMARK  3 active torsions:
REMARK  status: ('A' for Active; 'I' for Inactive)
REMARK    1  A    between atoms: C_6  and  C_1 
REMARK    2  A    between atoms: C_7  and  C_5 
REMARK    3  A    between atoms: O_11  and  C_6 
ROOT
ATOM      1  C   UNL d   1     -49.175  14.653  23.062  0.00  0.00     0.167 A 
ATOM      2  C   UNL d   1     -49.290  13.931  23.346  0.00  0.00     0.047 A 
ATOM      3  N   UNL d   1     -47.868  14.365  22.861  0.00  0.00    -0.148 NA
ATOM      4  N   UNL d   1     -48.458  14.872  22.817  0.00  0.00    -0.143 NA
ATOM      5  C   UNL d   1     -47.984  13.636  23.148  0.00  0.00     0.105 A 
ENDROOT
BRANCH   5   6
ATOM      6  C   UNL d   1     -47.501  12.978  23.270  0.00  0.00     0.019 A 
ATOM      7  C   UNL d   1     -47.853  12.258  23.496  0.00  0.00     0.002 A 
ATOM      8  C   UNL d   1     -47.376  11.593  23.620  0.00  0.00     0.011 A 
ATOM      9  C   UNL d   1     -46.551  11.652  23.519  0.00  0.00     0.058 A 
ATOM     10  C   UNL d   1     -46.216  12.374  23.295  0.00  0.00     0.011 A 
ATOM     11 CL   UNL d   1     -46.068  10.974  23.647  0.00  0.00    -0.082 Cl
ATOM     12  C   UNL d   1     -46.690  13.030  23.172  0.00  0.00     0.002 A 
ENDBRANCH   5   6
BRANCH   1  13
ATOM     13  C   UNL d   1     -49.779  15.163  23.020  0.00  0.00     0.316 C 
ATOM     14  O   UNL d   1     -49.928  15.545  22.343  0.00  0.00    -0.257 OA
BRANCH  13  15
ATOM     15  O   UNL d   1     -50.245  15.288  23.687  0.00  0.00    -0.294 OA
ATOM     16  C   UNL d   1     -50.821  15.909  23.685  0.00  0.00     0.185 C 
ENDBRANCH  13  15
ENDBRANCH   1  13
TORSDOF 3
ENDMDL
MODEL 4
REMARK VINA RESULT:      -6.7      1.701      2.139
REMARK  3 active torsions:
REMARK  status: ('A' for Active; 'I' for Inactive)
REMARK    1  A    between atoms: C_6  and  C_1 
REMARK    2  A    between atoms: C_7  and  C_5 
REMARK    3  A    between atoms: O_11  and  C_6 
ROOT
ATOM      1  C   UNL d   1     -46.349  13.040  22.792  0.00  0.00     0.167 A 
ATOM      2  C   UNL d   1     -46.989  13.271  22.402  0.00  0.00     0.047 A 
ATOM      3  N   UNL d   1     -47.125  12.319  23.637  0.00  0.00    -0.148 NA
ATOM      4  N   UNL d   1     -46.417  12.560  23.415  0.00  0.00    -0.143 NA
ATOM      5  C   UNL d   1     -47.771  12.553  23.243  0.00  0.00     0.105 A 
ENDROOT
BRANCH   5   6
ATOM      6  C   UNL d   1     -48.580  12.410  23.321  0.00  0.00     0.019 A 
ATOM      7  C   UNL d   1     -49.115  13.005  23.093  0.00  0.00     0.002 A 
ATOM      8  C   UNL d   1     -49.929  12.870  23.169  0.00  0.00     0.011 A 
ATOM      9  C   UNL d   1     -50.201  12.143  23.471  0.00  0.00     0.058 A 
ATOM     10  C   UNL d   1     -49.656  11.562  23.694  0.00  0.00     0.011 A 
ATOM     11 CL   UNL d   1     -51.029  12.009  23.547  0.00  0.00    -0.082 Cl
ATOM     12  C   UNL d   1     -48.852  11.697  23.618  0.00  0.00     0.002 A 
ENDBRANCH   5   6
BRANCH   1  13
ATOM     13  C   UNL d   1     -45.634  13.288  22.562  0.00  0.00     0.316 C 
ATOM     14  O   UNL d   1     -45.459  14.060  22.575  0.00  0.00    -0.257 OA
BRANCH  13  15
ATOM     15  O   UNL d   1     -45.079  12.734  22.311  0.00  0.00    -0.294 OA
ATOM     16  C   UNL d   1     -44.434  12.980  21.821  0.00  0.00     0.185 C 
ENDBRANCH  13  15
ENDBRANCH   1  13
TORSDOF 3
ENDMDL
MODEL 5
REMARK VINA RESULT:      -6.0      8.053      8.880
REMARK  3 active torsions:
REMARK  status: ('A' for Active; 'I' for Inactive)
REMARK    1  A    between atoms: C_6  and  C_1 
REMARK    2  A    between atoms: C_7  and  C_5 
REMARK    3  A    between atoms: O_11  and  C_6 
ROOT
ATOM      1  C   UNL d   1     -40.852  15.199  17.577  0.00  0.00     0.167 A 
ATOM      2  C   UNL d   1     -40.578  15.651  18.156  0.00  0.00     0.047 A 
ATOM      3  N   UNL d   1     -40.740  14.110  18.373  0.00  0.00    -0.148 NA
ATOM      4  N   UNL d   1     -40.934  14.422  17.685  0.00  0.00    -0.143 NA
ATOM      5  C   UNL d   1     -40.463  14.566  18.958  0.00  0.00     0.105 A 
ENDROOT
BRANCH   5   6
ATOM      6  C   UNL d   1     -40.212  14.427  19.732  0.00  0.00     0.019 A 
ATOM      7  C   UNL d   1     -39.420  14.210  19.864  0.00  0.00     0.002 A 
ATOM      8  C   UNL d   1     -39.160  14.068  20.637  0.00  0.00     0.011 A 
ATOM      9  C   UNL d   1     -39.693  14.144  21.272  0.00  0.00     0.058 A 
ATOM     10  C   UNL d   1     -40.478  14.359  21.126  0.00  0.00     0.011 A 
ATOM     11 CL   UNL d   1     -39.426  13.999  22.058  0.00  0.00    -0.082 Cl
ATOM     12  C   UNL d   1     -40.733  14.499  20.360  0.00  0.00     0.002 A 
ENDBRANCH   5   6
BRANCH   1  13
ATOM     13  C   UNL d   1     -41.047  15.522  16.881  0.00  0.00     0.316 C 
ATOM     14  O   UNL d   1     -40.485  15.829  16.415  0.00  0.00    -0.257 OA
BRANCH  13  15
ATOM     15  O   UNL d   1     -41.838  15.534  16.653  0.00  0.00    -0.294 OA
ATOM     16  C   UNL d   1     -42.060  15.922  15.933  0.00  0.00     0.185 C 
ENDBRANCH  13  15
ENDBRANCH   1  13
TORSDOF 3
ENDMDL
MODEL 6
REMARK VINA RESULT:      -5.7      2.763      4.207
REMARK  3 active torsions:
REMARK  status: ('A' for Active; 'I' for Inactive)
REMARK    1  A    between atoms: C_6  and  C_1 
REMARK    2  A    between atoms: C_7  and  C_5 
REMARK    3  A    between atoms: O_11  and  C_6 
ROOT
ATOM      1  C   UNL d   1     -49.485  14.498  22.661  0.00  0.00     0.167 A 
ATOM      2  C   UNL d   1     -48.866  14.612  23.128  0.00  0.00     0.047 A 
ATOM      3  N   UNL d   1     -49.017  13.268  22.342  0.00  0.00    -0.148 NA
ATOM      4  N   UNL d   1     -49.562  13.820  22.264  0.00  0.00    -0.143 NA
ATOM      5  C   UNL d   1     -48.391  13.384  22.814  0.00  0.00     0.105 A 
ENDROOT
BRANCH   5   6
ATOM      6  C   UNL d   1     -47.731  12.934  23.020  0.00  0.00     0.019 A 
ATOM      7  C   UNL d   1     -47.006  13.323  23.151  0.00  0.00     0.002 A 
ATOM      8  C   UNL d   1     -46.339  12.879  23.358  0.00  0.00     0.011 A 
ATOM      9  C   UNL d   1     -46.400  12.052  23.433  0.00  0.00     0.058 A 
ATOM     10  C   UNL d   1     -47.126  11.680  23.301  0.00  0.00     0.011 A 
ATOM     11 CL   UNL d   1     -45.718  11.603  23.645  0.00  0.00    -0.082 Cl
ATOM     12  C   UNL d   1     -47.785  12.121  23.095  0.00  0.00     0.002 A 
ENDBRANCH   5   6
BRANCH   1  13
ATOM     13  C   UNL d   1     -50.035  15.062  22.586  0.00  0.00     0.316 C 
ATOM     14  O   UNL d   1     -50.001  15.571  21.981  0.00  0.00    -0.257 OA
BRANCH  13  15
ATOM     15  O   UNL d   1     -50.638  15.110  23.144  0.00  0.00    -0.294 OA
ATOM     16  C   UNL d   1     -50.989  15.862  23.318  0.00  0.00     0.185 C 
ENDBRANCH  13  15
ENDBRANCH   1  13
TORSDOF 3
ENDMDL
MODEL 7
REMARK VINA RESULT:      -5.5      7.787      9.830
REMARK  3 active torsions:
REMARK  status: ('A' for Active; 'I' for Inactive)
REMARK    1  A    between atoms: C_6  and  C_1 
REMARK    2  A    between atoms: C_7  and  C_5 
REMARK    3  A    between atoms: O_11  and  C_6 
ROOT
ATOM      1  C   UNL d   1     -40.481  14.608  19.513  0.00  0.00     0.167 A 
ATOM      2  C   UNL d   1     -39.821  14.939  19.250  0.00  0.00     0.047 A 
ATOM      3  N   UNL d   1     -40.508  13.801  18.426  0.00  0.00    -0.148 NA
ATOM      4  N   UNL d   1     -40.828  14.034  19.098  0.00  0.00    -0.143 NA
ATOM      5  C   UNL d   1     -39.841  14.136  18.161  0.00  0.00     0.105 A 
ENDROOT
BRANCH   5   6
ATOM      6  C   UNL d   1     -39.365  14.030  17.495  0.00  0.00     0.019 A 
ATOM      7  C   UNL d   1     -39.402  14.592  16.882  0.00  0.00     0.002 A 
ATOM      8  C   UNL d   1     -38.928  14.494  16.211  0.00  0.00     0.011 A 
ATOM      9  C   UNL d   1     -38.421  13.835  16.156  0.00  0.00     0.058 A 
ATOM     10  C   UNL d   1     -38.396  13.285  16.773  0.00  0.00     0.011 A 
ATOM     11 CL   UNL d   1     -37.940  13.737  15.471  0.00  0.00    -0.082 Cl
ATOM     12  C   UNL d   1     -38.866  13.384  17.436  0.00  0.00     0.002 A 
ENDBRANCH   5   6
BRANCH   1  13
ATOM     13  C   UNL d   1     -40.801  14.849  20.195  0.00  0.00     0.316 C 
ATOM     14  O   UNL d   1     -41.043  14.316  20.729  0.00  0.00    -0.257 OA
BRANCH  13  15
ATOM     15  O   UNL d   1     -40.878  15.656  20.339  0.00  0.00    -0.294 OA
ATOM     16  C   UNL d   1     -41.358  15.922  20.984  0.00  0.00     0.185 C 
ENDBRANCH  13  15
ENDBRANCH   1  13
TORSDOF 3
ENDMDL
MODEL 8
REMARK VINA RESULT:      -4.9      8.360      8.801
REMARK  3 active torsions:
REMARK  status: ('A' for Active; 'I' for Inactive)
REMARK    1  A    between atoms: C_6  and  C_1 
REMARK    2  A    between atoms: C_7  and  C_5 
REMARK    3  A    between atoms: O_11  and  C_6 
ROOT
ATOM      1  C   UNL d   1     -39.395  14.399  21.145  0.00  0.00     0.167 A 
ATOM      2  C   UNL d   1     -40.134  14.556  20.934  0.00  0.00     0.047 A 
ATOM      3  N   UNL d   1     -38.998  14.543  19.859  0.00  0.00    -0.148 NA
ATOM      4  N   UNL d   1     -38.822  14.392  20.604  0.00  0.00    -0.143 NA
ATOM      5  C   UNL d   1     -39.744  14.701  19.646  0.00  0.00     0.105 A 
ENDROOT
BRANCH   5   6
ATOM      6  C   UNL d   1     -40.117  14.879  18.932  0.00  0.00     0.019 A 
ATOM      7  C   UNL d   1     -40.358  15.663  18.790  0.00  0.00     0.002 A 
ATOM      8  C   UNL d   1     -40.733  15.850  18.075  0.00  0.00     0.011 A 
ATOM      9  C   UNL d   1     -40.864  15.253  17.509  0.00  0.00     0.058 A 
ATOM     10  C   UNL d   1     -40.618  14.479  17.664  0.00  0.00     0.011 A 
ATOM     11 CL   UNL d   1     -41.245  15.447  16.783  0.00  0.00    -0.082 Cl
ATOM     12  C   UNL d   1     -40.248  14.297  18.371  0.00  0.00     0.002 A 
ENDBRANCH   5   6
BRANCH   1  13
ATOM     13  C   UNL d   1     -39.223  14.247  21.902  0.00  0.00     0.316 C 
ATOM     14  O   UNL d   1     -39.202  14.838  22.430  0.00  0.00    -0.257 OA
BRANCH  13  15
ATOM     15  O   UNL d   1     -39.068  13.471  22.131  0.00  0.00    -0.294 OA
ATOM     16  C   UNL d   1     -38.878  13.303  22.939  0.00  0.00     0.185 C 
ENDBRANCH  13  15
ENDBRANCH   1  13
TORSDOF 3
ENDMDL
MODEL 9
REMARK VINA RESULT:      -4.0      8.522      9.767
REMARK  3 active torsions:
REMARK  status: ('A' for Active; 'I' for Inactive)
REMARK    1  A    between atoms: C_6  and  C_1 
REMARK    2  A    between atoms: C_7  and  C_5 
REMARK    3  A    between atoms: O_11  and  C_6 
ROOT
ATOM      1  C   UNL d   1     -38.783  15.113  16.997  0.00  0.00     0.167 A 
ATOM      2  C   UNL d   1     -39.551  15.057  17.140  0.00  0.00     0.047 A 
ATOM      3  N   UNL d   1     -38.570  15.489  18.280  0.00  0.00    -0.148 NA
ATOM      4  N   UNL d   1     -38.287  15.331  17.570  0.00  0.00    -0.143 NA
ATOM      5  C   UNL d   1     -39.346  15.431  18.425  0.00  0.00     0.105 A 
ENDROOT
BRANCH   5   6
ATOM      6  C   UNL d   1     -39.822  15.553  19.089  0.00  0.00     0.019 A 
ATOM      7  C   UNL d   1     -39.456  15.673  19.827  0.00  0.00     0.002 A 
ATOM      8  C   UNL d   1     -39.926  15.795  20.498  0.00  0.00     0.011 A 
ATOM      9  C   UNL d   1     -40.756  15.796  20.427  0.00  0.00     0.058 A 
ATOM     10  C   UNL d   1     -41.104  15.675  19.687  0.00  0.00     0.011 A 
ATOM     11 CL   UNL d   1     -41.231  15.921  21.111  0.00  0.00    -0.082 Cl
ATOM     12  C   UNL d   1     -40.638  15.554  19.024  0.00  0.00     0.002 A 
ENDBRANCH   5   6
BRANCH   1  13
ATOM     13  C   UNL d   1     -38.502  14.952  16.275  0.00  0.00     0.316 C 
ATOM     14  O   UNL d   1     -38.548  14.216  15.987  0.00  0.00    -0.257 OA
BRANCH  13  15
ATOM     15  O   UNL d   1     -38.165  15.558  15.831  0.00  0.00    -0.294 OA
ATOM     16  C   UNL d   1     -37.940  15.414  15.027  0.00  0.00     0.185 C 
ENDBRANCH  13  15
ENDBRANCH   1  13
TORSDOF 3
ENDMDL
