MODEL 1
REMARK VINA RESULT:      -2.4      0.000      0.000
REMARK  5 active torsions:
REMARK  status: ('A' for Active; 'I' for Inactive)
REMARK    1  A    between atoms: C_10  and  N_6 
REMARK    2  A    between atoms: S_13  and  C_9 
REMARK    3  A    between atoms: C_14  and  C_10 
REMARK    4  A    between atoms: C_22  and  S_13 
REMARK    5  A    between atoms: C_24  and  C_22 
ROOT
ATOM      1  C   UNL d   1      58.908   0.495  31.337  0.00  0.00     0.174 A 
ATOM      2  C   UNL d   1      58.098   0.520  31.185  0.00  0.00     0.158 A 
ATOM      3  N   UNL d   1      59.017   0.553  32.142  0.00  0.00    -0.203 NA
ATOM      4  N   UNL d   1      59.435   0.423  30.710  0.00  0.00    -0.240 N 
ATOM      5  N   UNL d   1      58.361   0.398  29.765  0.00  0.00    -0.223 N 
ATOM      6  N   UNL d   1      57.632   0.599  31.941  0.00  0.00    -0.279 N 
ATOM      7  C   UNL d   1      59.171   0.374  29.917  0.00  0.00     0.343 A 
ATOM      8  C   UNL d   1      57.816   0.472  30.406  0.00  0.00     0.287 A 
ATOM      9  C   UNL d   1      58.256   0.613  32.480  0.00  0.00     0.181 A 
ATOM     10  O   UNL d   1      59.700   0.301  29.279  0.00  0.00    -0.245 OA
ATOM     11  O   UNL d   1      57.005   0.497  30.254  0.00  0.00    -0.265 OA
ATOM     12  C   UNL d   1      60.244   0.399  30.862  0.00  0.00     0.105 C 
ATOM     13  C   UNL d   1      58.079   0.351  28.986  0.00  0.00     0.107 C 
ENDROOT
BRANCH   6  14
ATOM     14  C   UNL d   1      56.819   0.644  32.059  0.00  0.00     0.082 C 
BRANCH  14  15
ATOM     15  C   UNL d   1      56.412  -0.019  32.330  0.00  0.00     0.018 A 
ATOM     16  C   UNL d   1      55.793   0.067  32.863  0.00  0.00     0.002 A 
ATOM     17  C   UNL d   1      55.381  -0.590  33.138  0.00  0.00     0.000 A 
ATOM     18  C   UNL d   1      54.769  -0.436  33.672  0.00  0.00     0.000 C 
ATOM     19  C   UNL d   1      55.596  -1.349  32.871  0.00  0.00     0.000 A 
ATOM     20  C   UNL d   1      56.219  -1.434  32.335  0.00  0.00     0.000 A 
ATOM     21  C   UNL d   1      56.626  -0.773  32.065  0.00  0.00     0.002 A 
ENDBRANCH  14  15
ENDBRANCH   6  14
BRANCH   9  22
ATOM     22  S   UNL d   1      58.107   0.682  33.288  0.00  0.00    -0.046 SA
BRANCH  22  23
ATOM     23  C   UNL d   1      58.377   0.682  34.064  0.00  0.00     0.084 C 
BRANCH  23  24
ATOM     24  C   UNL d   1      57.862   0.496  34.678  0.00  0.00     0.241 C 
ATOM     25  O   UNL d   1      58.064   0.682  35.453  0.00  0.00    -0.283 OA
ENDBRANCH  23  24
ENDBRANCH  22  23
ENDBRANCH   9  22
TORSDOF 5
ENDMDL
MODEL 2
REMARK VINA RESULT:       0.4      2.098      4.644
REMARK  5 active torsions:
REMARK  status: ('A' for Active; 'I' for Inactive)
REMARK    1  A    between atoms: C_10  and  N_6 
REMARK    2  A    between atoms: S_13  and  C_9 
REMARK    3  A    between atoms: C_14  and  C_10 
REMARK    4  A    between atoms: C_22  and  S_13 
REMARK    5  A    between atoms: C_24  and  C_22 
ROOT
ATOM      1  C   UNL d   1      57.568  -1.458  30.767  0.00  0.00     0.174 A 
ATOM      2  C   UNL d   1      57.760  -0.746  30.400  0.00  0.00     0.158 A 
ATOM      3  N   UNL d   1      57.956  -2.059  30.377  0.00  0.00    -0.203 NA
ATOM      4  N   UNL d   1      57.059  -1.455  31.412  0.00  0.00    -0.240 N 
ATOM      5  N   UNL d   1      56.922  -0.033  31.342  0.00  0.00    -0.223 N 
ATOM      6  N   UNL d   1      58.317  -0.878  29.716  0.00  0.00    -0.279 N 
ATOM      7  C   UNL d   1      56.729  -0.745  31.709  0.00  0.00     0.343 A 
ATOM      8  C   UNL d   1      57.444  -0.031  30.678  0.00  0.00     0.287 A 
ATOM      9  C   UNL d   1      58.391  -1.698  29.762  0.00  0.00     0.181 A 
ATOM     10  O   UNL d   1      56.213  -0.736  32.362  0.00  0.00    -0.245 OA
ATOM     11  O   UNL d   1      57.637   0.682  30.310  0.00  0.00    -0.265 OA
ATOM     12  C   UNL d   1      56.866  -2.167  31.779  0.00  0.00     0.105 C 
ATOM     13  C   UNL d   1      56.605   0.682  31.620  0.00  0.00     0.107 C 
ENDROOT
BRANCH   6  14
ATOM     14  C   UNL d   1      58.654  -0.337  29.195  0.00  0.00     0.082 C 
BRANCH  14  15
ATOM     15  C   UNL d   1      59.446  -0.126  29.287  0.00  0.00     0.018 A 
ATOM     16  C   UNL d   1      59.724   0.117  30.021  0.00  0.00     0.002 A 
ATOM     17  C   UNL d   1      60.513   0.330  30.121  0.00  0.00     0.000 A 
ATOM     18  C   UNL d   1      60.730   0.565  30.883  0.00  0.00     0.000 C 
ATOM     19  C   UNL d   1      61.031   0.298  29.470  0.00  0.00     0.000 A 
ATOM     20  C   UNL d   1      60.749   0.053  28.733  0.00  0.00     0.000 A 
ATOM     21  C   UNL d   1      59.960  -0.158  28.640  0.00  0.00     0.002 A 
ENDBRANCH  14  15
ENDBRANCH   6  14
BRANCH   9  22
ATOM     22  S   UNL d   1      58.869  -2.104  29.226  0.00  0.00    -0.046 SA
BRANCH  22  23
ATOM     23  C   UNL d   1      59.048  -2.791  28.811  0.00  0.00     0.084 C 
BRANCH  23  24
ATOM     24  C   UNL d   1      59.695  -3.248  29.035  0.00  0.00     0.241 C 
ATOM     25  O   UNL d   1      60.238  -3.494  28.469  0.00  0.00    -0.283 OA
ENDBRANCH  23  24
ENDBRANCH  22  23
ENDBRANCH   9  22
TORSDOF 5
ENDMDL
