MODEL 1
REMARK VINA RESULT:      41.6      0.000      0.000
REMARK  6 active torsions:
REMARK  status: ('A' for Active; 'I' for Inactive)
REMARK    1  A    between atoms: N_2  and  S_1 
REMARK    2  A    between atoms: C_3  and  S_1 
REMARK    3  A    between atoms: C_8  and  N_2 
REMARK    4  A    between atoms: C_6  and  O_7 
REMARK    5  A    between atoms: O_7  and  C_13 
REMARK    6  A    between atoms: O_16  and  C_10 
ROOT
ATOM      1  C   UNL d   1      13.944  12.742  -1.890  0.00  0.00     0.105 A 
ATOM      2  C   UNL d   1      14.242  12.397  -1.211  0.00  0.00     0.015 A 
ATOM      3  C   UNL d   1      13.914  13.567  -1.958  0.00  0.00     0.015 A 
ATOM      4  C   UNL d   1      14.480  13.693  -0.666  0.00  0.00     0.100 A 
ATOM      5  C   UNL d   1      14.182  14.037  -1.346  0.00  0.00     0.025 A 
ATOM      6  C   UNL d   1      14.510  12.869  -0.599  0.00  0.00     0.025 A 
ENDROOT
BRANCH   1   7
ATOM      7  S   UNL d   1      13.674  12.258  -2.505  0.00  0.00     0.285 S 
ATOM      8  O   UNL d   1      12.878  12.040  -2.541  0.00  0.00    -0.198 OA
ATOM      9  O   UNL d   1      14.202  11.995  -3.081  0.00  0.00    -0.198 OA
BRANCH   7  10
ATOM     10  N   UNL d   1      13.606  11.782  -3.180  0.00  0.00    -0.157 NA
BRANCH  10  11
ATOM     11  C   UNL d   1      13.457  12.136  -3.920  0.00  0.00     0.113 A 
ATOM     12  C   UNL d   1      12.921  12.761  -3.976  0.00  0.00     0.119 A 
ATOM     13  N   UNL d   1      12.771  13.115  -4.716  0.00  0.00    -0.241 NA
ATOM     14  C   UNL d   1      13.165  12.835  -5.393  0.00  0.00     0.099 A 
ATOM     15  C   UNL d   1      13.704  12.205  -5.332  0.00  0.00     0.022 A 
ATOM     16  C   UNL d   1      13.846  11.860  -4.593  0.00  0.00     0.023 A 
ENDBRANCH  10  11
ENDBRANCH   7  10
ENDBRANCH   1   7
BRANCH   4  17
ATOM     17  O   UNL d   1      14.753  14.170  -0.043  0.00  0.00    -0.305 OA
BRANCH  17  18
ATOM     18  C   UNL d   1      15.530  14.459  -0.045  0.00  0.00     0.122 A 
ATOM     19  C   UNL d   1      15.663  15.270  -0.079  0.00  0.00     0.117 A 
ATOM     20  C   UNL d   1      16.437  15.556  -0.080  0.00  0.00     0.026 A 
ATOM     21  C   UNL d   1      17.068  15.034  -0.049  0.00  0.00     0.002 A 
ATOM     22  C   UNL d   1      16.932  14.220  -0.016  0.00  0.00     0.002 A 
ATOM     23  C   UNL d   1      16.158  13.934  -0.014  0.00  0.00     0.027 A 
BRANCH  19  24
ATOM     24  O   UNL d   1      15.027  15.785  -0.110  0.00  0.00    -0.326 OA
ATOM     25  C   UNL d   1      15.096  16.506  -0.480  0.00  0.00     0.181 C 
ENDBRANCH  19  24
ENDBRANCH  17  18
ENDBRANCH   4  17
TORSDOF 6
ENDMDL
MODEL 2
REMARK VINA RESULT:      41.9      1.662      4.696
REMARK  6 active torsions:
REMARK  status: ('A' for Active; 'I' for Inactive)
REMARK    1  A    between atoms: N_2  and  S_1 
REMARK    2  A    between atoms: C_3  and  S_1 
REMARK    3  A    between atoms: C_8  and  N_2 
REMARK    4  A    between atoms: C_6  and  O_7 
REMARK    5  A    between atoms: O_7  and  C_13 
REMARK    6  A    between atoms: O_16  and  C_10 
ROOT
ATOM      1  C   UNL d   1      14.571  13.116  -1.287  0.00  0.00     0.105 A 
ATOM      2  C   UNL d   1      14.073  13.658  -1.644  0.00  0.00     0.015 A 
ATOM      3  C   UNL d   1      14.555  12.322  -1.521  0.00  0.00     0.015 A 
ATOM      4  C   UNL d   1      13.544  12.620  -2.465  0.00  0.00     0.100 A 
ATOM      5  C   UNL d   1      14.042  12.078  -2.108  0.00  0.00     0.025 A 
ATOM      6  C   UNL d   1      13.560  13.414  -2.232  0.00  0.00     0.025 A 
ENDROOT
BRANCH   1   7
ATOM      7  S   UNL d   1      15.088  13.371  -0.693  0.00  0.00     0.285 S 
ATOM      8  O   UNL d   1      15.870  13.105  -0.684  0.00  0.00    -0.198 OA
ATOM      9  O   UNL d   1      14.820  13.889  -0.111  0.00  0.00    -0.198 OA
BRANCH   7  10
ATOM     10  N   UNL d   1      15.436  13.732  -0.033  0.00  0.00    -0.157 NA
BRANCH  10  11
ATOM     11  C   UNL d   1      15.593  14.551  -0.047  0.00  0.00     0.113 A 
ATOM     12  C   UNL d   1      14.968  15.088  -0.087  0.00  0.00     0.119 A 
ATOM     13  N   UNL d   1      15.124  15.906  -0.101  0.00  0.00    -0.241 NA
ATOM     14  C   UNL d   1      15.910  16.176  -0.074  0.00  0.00     0.099 A 
ATOM     15  C   UNL d   1      16.537  15.631  -0.034  0.00  0.00     0.022 A 
ATOM     16  C   UNL d   1      16.372  14.820  -0.020  0.00  0.00     0.023 A 
ENDBRANCH  10  11
ENDBRANCH   7  10
ENDBRANCH   1   7
BRANCH   4  17
ATOM     17  O   UNL d   1      13.021  12.374  -3.063  0.00  0.00    -0.305 OA
BRANCH  17  18
ATOM     18  C   UNL d   1      13.230  12.452  -3.861  0.00  0.00     0.122 A 
ATOM     19  C   UNL d   1      13.261  13.198  -4.204  0.00  0.00     0.117 A 
ATOM     20  C   UNL d   1      13.469  13.273  -4.999  0.00  0.00     0.026 A 
ATOM     21  C   UNL d   1      13.644  12.606  -5.443  0.00  0.00     0.002 A 
ATOM     22  C   UNL d   1      13.612  11.857  -5.096  0.00  0.00     0.002 A 
ATOM     23  C   UNL d   1      13.404  11.782  -4.301  0.00  0.00     0.027 A 
BRANCH  19  24
ATOM     24  O   UNL d   1      13.085  13.859  -3.754  0.00  0.00    -0.326 OA
ATOM     25  C   UNL d   1      12.778  14.527  -4.102  0.00  0.00     0.181 C 
ENDBRANCH  19  24
ENDBRANCH  17  18
ENDBRANCH   4  17
TORSDOF 6
ENDMDL
