MODEL 1
REMARK VINA RESULT:      29.1      0.000      0.000
REMARK  1 active torsions:
REMARK  status: ('A' for Active; 'I' for Inactive)
REMARK    1  A    between atoms: C_8  and  C_1 
ROOT
ATOM      1  C   UNL d   1      14.240  13.391  -2.226  0.00  0.00     0.010 A 
ATOM      2  C   UNL d   1      13.871  12.984  -2.845  0.00  0.00     0.062 A 
ATOM      3  C   UNL d   1      13.676  13.389  -3.542  0.00  0.00     0.106 A 
ATOM      4  C   UNL d   1      13.698  12.184  -2.775  0.00  0.00     0.198 A 
ATOM      5  O   UNL d   1      13.848  14.190  -3.615  0.00  0.00    -0.273 OA
ATOM      6  C   UNL d   1      14.414  14.191  -2.296  0.00  0.00     0.069 A 
ATOM      7  C   UNL d   1      14.220  14.594  -2.989  0.00  0.00     0.300 A 
ATOM      8  C   UNL d   1      13.309  12.989  -4.162  0.00  0.00     0.025 A 
ATOM      9  C   UNL d   1      13.330  11.780  -3.393  0.00  0.00     0.042 A 
ATOM     10  O   UNL d   1      14.393  15.401  -3.064  0.00  0.00    -0.259 OA
ATOM     11  C   UNL d   1      13.136  12.183  -4.086  0.00  0.00     0.005 A 
ATOM     12  O   UNL d   1      13.893  11.779  -2.079  0.00  0.00    -0.286 OA
ATOM     13  C   UNL d   1      12.769  11.789  -4.708  0.00  0.00     0.000 C 
ENDROOT
BRANCH   1  14
ATOM     14  C   UNL d   1      14.436  12.986  -1.529  0.00  0.00     0.000 A 
ATOM     15  C   UNL d   1      13.903  12.979  -0.894  0.00  0.00     0.000 A 
ATOM     16  C   UNL d   1      14.100  12.570  -0.190  0.00  0.00     0.000 A 
ATOM     17  C   UNL d   1      14.821  12.177  -0.130  0.00  0.00     0.000 A 
ATOM     18  C   UNL d   1      15.351  12.190  -0.777  0.00  0.00     0.000 A 
ATOM     19  C   UNL d   1      15.157  12.593  -1.470  0.00  0.00     0.000 A 
ENDBRANCH   1  14
TORSDOF 1
ENDMDL
