MODEL 1
REMARK VINA RESULT:      -7.3      0.000      0.000
REMARK  4 active torsions:
REMARK  status: ('A' for Active; 'I' for Inactive)
REMARK    1  A    between atoms: N_7  and  C_1 
REMARK    2  A    between atoms: S_3  and  N_7 
REMARK    3  A    between atoms: N_8  and  S_3 
REMARK    4  A    between atoms: C_12  and  N_5 
ROOT
ATOM      1  C   UNL d   1     -47.927  12.975  23.343  0.00  0.00     0.170 A 
ATOM      2  C   UNL d   1     -48.356  13.485  22.949  0.00  0.00     0.299 A 
ATOM      3  N   UNL d   1     -48.952  12.379  23.042  0.00  0.00    -0.238 N 
ATOM      4  N   UNL d   1     -49.045  13.080  22.748  0.00  0.00    -0.209 N 
ATOM      5  C   UNL d   1     -48.204  12.303  23.442  0.00  0.00     0.105 A 
ATOM      6  O   UNL d   1     -48.167  14.278  22.763  0.00  0.00    -0.263 OA
ATOM      7  C   UNL d   1     -49.521  11.759  22.976  0.00  0.00     0.120 C 
ATOM      8  C   UNL d   1     -48.228  11.623  23.670  0.00  0.00     0.022 C 
ENDROOT
BRANCH   1   9
ATOM      9  N   UNL d   1     -47.173  13.129  23.666  0.00  0.00    -0.137 NA
BRANCH   9  10
ATOM     10  S   UNL d   1     -46.478  13.049  23.195  0.00  0.00     0.351 S 
ATOM     11  O   UNL d   1     -46.648  13.739  22.740  0.00  0.00    -0.180 OA
ATOM     12  O   UNL d   1     -46.313  12.367  23.649  0.00  0.00    -0.180 OA
BRANCH  10  13
ATOM     13  N   UNL d   1     -45.772  12.889  22.786  0.00  0.00    -0.215 N 
ATOM     14  C   UNL d   1     -45.349  12.177  22.941  0.00  0.00     0.093 A 
ATOM     15  C   UNL d   1     -44.643  12.021  22.529  0.00  0.00     0.020 A 
ATOM     16  C   UNL d   1     -44.352  12.566  21.962  0.00  0.00     0.003 A 
ATOM     17  C   UNL d   1     -44.773  13.271  21.808  0.00  0.00     0.020 A 
ATOM     18  C   UNL d   1     -45.490  13.437  22.223  0.00  0.00     0.093 A 
ENDBRANCH  10  13
ENDBRANCH   9  10
ENDBRANCH   1   9
BRANCH   4  19
ATOM     19  C   UNL d   1     -49.742  13.305  22.320  0.00  0.00     0.085 A 
ATOM     20  C   UNL d   1     -49.766  13.151  21.511  0.00  0.00     0.019 A 
ATOM     21  C   UNL d   1     -50.443  13.367  21.086  0.00  0.00     0.002 A 
ATOM     22  C   UNL d   1     -51.064  13.727  21.481  0.00  0.00     0.000 A 
ATOM     23  C   UNL d   1     -51.000  13.858  22.263  0.00  0.00     0.002 A 
ATOM     24  C   UNL d   1     -50.324  13.639  22.678  0.00  0.00     0.019 A 
ENDBRANCH   4  19
TORSDOF 4
ENDMDL
MODEL 2
REMARK VINA RESULT:      -6.5      1.481      4.229
REMARK  4 active torsions:
REMARK  status: ('A' for Active; 'I' for Inactive)
REMARK    1  A    between atoms: N_7  and  C_1 
REMARK    2  A    between atoms: S_3  and  N_7 
REMARK    3  A    between atoms: N_8  and  S_3 
REMARK    4  A    between atoms: C_12  and  N_5 
ROOT
ATOM      1  C   UNL d   1     -48.266  12.775  22.519  0.00  0.00     0.170 A 
ATOM      2  C   UNL d   1     -47.708  13.119  22.106  0.00  0.00     0.299 A 
ATOM      3  N   UNL d   1     -47.212  12.370  22.990  0.00  0.00    -0.238 N 
ATOM      4  N   UNL d   1     -47.000  12.843  22.427  0.00  0.00    -0.209 N 
ATOM      5  C   UNL d   1     -48.060  12.320  23.056  0.00  0.00     0.105 A 
ATOM      6  O   UNL d   1     -47.797  13.656  21.471  0.00  0.00    -0.263 OA
ATOM      7  C   UNL d   1     -46.671  11.949  23.482  0.00  0.00     0.120 C 
ATOM      8  C   UNL d   1     -48.137  11.860  23.601  0.00  0.00     0.022 C 
ENDROOT
BRANCH   1   9
ATOM      9  N   UNL d   1     -49.085  12.881  22.401  0.00  0.00    -0.137 NA
BRANCH   9  10
ATOM     10  S   UNL d   1     -49.496  13.516  22.772  0.00  0.00     0.351 S 
ATOM     11  O   UNL d   1     -49.452  13.163  23.537  0.00  0.00    -0.180 OA
ATOM     12  O   UNL d   1     -49.537  13.862  22.012  0.00  0.00    -0.180 OA
BRANCH  10  13
ATOM     13  N   UNL d   1     -49.907  14.185  23.046  0.00  0.00    -0.215 N 
ATOM     14  C   UNL d   1     -50.654  14.094  23.424  0.00  0.00     0.093 A 
ATOM     15  C   UNL d   1     -51.062  14.766  23.697  0.00  0.00     0.020 A 
ATOM     16  C   UNL d   1     -50.733  15.532  23.598  0.00  0.00     0.003 A 
ATOM     17  C   UNL d   1     -49.992  15.621  23.223  0.00  0.00     0.020 A 
ATOM     18  C   UNL d   1     -49.573  14.943  22.944  0.00  0.00     0.093 A 
ENDBRANCH  10  13
ENDBRANCH   9  10
ENDBRANCH   1   9
BRANCH   4  19
ATOM     19  C   UNL d   1     -46.187  12.994  22.241  0.00  0.00     0.085 A 
ATOM     20  C   UNL d   1     -45.848  13.691  22.522  0.00  0.00     0.019 A 
ATOM     21  C   UNL d   1     -45.055  13.846  22.345  0.00  0.00     0.002 A 
ATOM     22  C   UNL d   1     -44.632  13.304  21.898  0.00  0.00     0.000 A 
ATOM     23  C   UNL d   1     -44.996  12.643  21.647  0.00  0.00     0.002 A 
ATOM     24  C   UNL d   1     -45.786  12.497  21.827  0.00  0.00     0.019 A 
ENDBRANCH   4  19
TORSDOF 4
ENDMDL
MODEL 3
REMARK VINA RESULT:      -6.1      8.009      9.634
REMARK  4 active torsions:
REMARK  status: ('A' for Active; 'I' for Inactive)
REMARK    1  A    between atoms: N_7  and  C_1 
REMARK    2  A    between atoms: S_3  and  N_7 
REMARK    3  A    between atoms: N_8  and  S_3 
REMARK    4  A    between atoms: C_12  and  N_5 
ROOT
ATOM      1  C   UNL d   1     -40.061  14.834  19.126  0.00  0.00     0.170 A 
ATOM      2  C   UNL d   1     -39.532  15.106  19.622  0.00  0.00     0.299 A 
ATOM      3  N   UNL d   1     -40.481  14.553  20.240  0.00  0.00    -0.238 N 
ATOM      4  N   UNL d   1     -39.819  14.914  20.371  0.00  0.00    -0.209 N 
ATOM      5  C   UNL d   1     -40.648  14.497  19.407  0.00  0.00     0.105 A 
ATOM      6  O   UNL d   1     -38.820  15.507  19.444  0.00  0.00    -0.263 OA
ATOM      7  C   UNL d   1     -40.982  14.250  20.848  0.00  0.00     0.120 C 
ATOM      8  C   UNL d   1     -41.276  14.149  19.407  0.00  0.00     0.022 C 
ENDROOT
BRANCH   1   9
ATOM      9  N   UNL d   1     -40.016  14.895  18.295  0.00  0.00    -0.137 NA
BRANCH   9  10
ATOM     10  S   UNL d   1     -39.540  14.362  17.848  0.00  0.00     0.351 S 
ATOM     11  O   UNL d   1     -40.040  13.702  18.011  0.00  0.00    -0.180 OA
ATOM     12  O   UNL d   1     -39.048  15.019  17.690  0.00  0.00    -0.180 OA
BRANCH  10  13
ATOM     13  N   UNL d   1     -39.011  13.916  17.388  0.00  0.00    -0.215 N 
ATOM     14  C   UNL d   1     -38.745  13.165  17.663  0.00  0.00     0.093 A 
ATOM     15  C   UNL d   1     -38.215  12.722  17.199  0.00  0.00     0.020 A 
ATOM     16  C   UNL d   1     -37.946  13.017  16.462  0.00  0.00     0.003 A 
ATOM     17  C   UNL d   1     -38.210  13.761  16.190  0.00  0.00     0.020 A 
ATOM     18  C   UNL d   1     -38.748  14.217  16.655  0.00  0.00     0.093 A 
ENDBRANCH  10  13
ENDBRANCH   9  10
ENDBRANCH   1   9
BRANCH   4  19
ATOM     19  C   UNL d   1     -39.519  15.046  21.153  0.00  0.00     0.085 A 
ATOM     20  C   UNL d   1     -39.700  15.761  21.522  0.00  0.00     0.019 A 
ATOM     21  C   UNL d   1     -39.412  15.898  22.286  0.00  0.00     0.002 A 
ATOM     22  C   UNL d   1     -38.957  15.320  22.650  0.00  0.00     0.000 A 
ATOM     23  C   UNL d   1     -38.806  14.645  22.260  0.00  0.00     0.002 A 
ATOM     24  C   UNL d   1     -39.097  14.517  21.500  0.00  0.00     0.019 A 
ENDBRANCH   4  19
TORSDOF 4
ENDMDL
MODEL 4
REMARK VINA RESULT:      -5.9      8.597     10.096
REMARK  4 active torsions:
REMARK  status: ('A' for Active; 'I' for Inactive)
REMARK    1  A    between atoms: N_7  and  C_1 
REMARK    2  A    between atoms: S_3  and  N_7 
REMARK    3  A    between atoms: N_8  and  S_3 
REMARK    4  A    between atoms: C_12  and  N_5 
ROOT
ATOM      1  C   UNL d   1     -39.598  15.528  18.720  0.00  0.00     0.170 A 
ATOM      2  C   UNL d   1     -38.961  15.237  18.387  0.00  0.00     0.299 A 
ATOM      3  N   UNL d   1     -39.972  15.040  17.662  0.00  0.00    -0.238 N 
ATOM      4  N   UNL d   1     -39.218  14.910  17.676  0.00  0.00    -0.209 N 
ATOM      5  C   UNL d   1     -40.232  15.454  18.360  0.00  0.00     0.105 A 
ATOM      6  O   UNL d   1     -38.178  15.249  18.681  0.00  0.00    -0.263 OA
ATOM      7  C   UNL d   1     -40.482  14.802  17.033  0.00  0.00     0.120 C 
ATOM      8  C   UNL d   1     -40.937  15.518  18.238  0.00  0.00     0.022 C 
ENDROOT
BRANCH   1   9
ATOM      9  N   UNL d   1     -39.619  15.919  19.456  0.00  0.00    -0.137 NA
BRANCH   9  10
ATOM     10  S   UNL d   1     -39.566  15.485  20.177  0.00  0.00     0.351 S 
ATOM     11  O   UNL d   1     -40.299  15.088  20.049  0.00  0.00    -0.180 OA
ATOM     12  O   UNL d   1     -38.839  15.881  20.299  0.00  0.00    -0.180 OA
BRANCH  10  13
ATOM     13  N   UNL d   1     -39.426  15.104  20.903  0.00  0.00    -0.215 N 
ATOM     14  C   UNL d   1     -39.783  14.359  21.063  0.00  0.00     0.093 A 
ATOM     15  C   UNL d   1     -39.640  13.982  21.791  0.00  0.00     0.020 A 
ATOM     16  C   UNL d   1     -39.143  14.339  22.364  0.00  0.00     0.003 A 
ATOM     17  C   UNL d   1     -38.789  15.079  22.205  0.00  0.00     0.020 A 
ATOM     18  C   UNL d   1     -38.930  15.467  21.468  0.00  0.00     0.093 A 
ENDBRANCH  10  13
ENDBRANCH   9  10
ENDBRANCH   1   9
BRANCH   4  19
ATOM     19  C   UNL d   1     -38.815  14.507  17.048  0.00  0.00     0.085 A 
ATOM     20  C   UNL d   1     -38.691  13.695  17.126  0.00  0.00     0.019 A 
ATOM     21  C   UNL d   1     -38.298  13.294  16.518  0.00  0.00     0.002 A 
ATOM     22  C   UNL d   1     -38.045  13.714  15.860  0.00  0.00     0.000 A 
ATOM     23  C   UNL d   1     -38.184  14.496  15.825  0.00  0.00     0.002 A 
ATOM     24  C   UNL d   1     -38.576  14.887  16.434  0.00  0.00     0.019 A 
ENDBRANCH   4  19
TORSDOF 4
ENDMDL
MODEL 5
REMARK VINA RESULT:      -5.8      8.282      9.609
REMARK  4 active torsions:
REMARK  status: ('A' for Active; 'I' for Inactive)
REMARK    1  A    between atoms: N_7  and  C_1 
REMARK    2  A    between atoms: S_3  and  N_7 
REMARK    3  A    between atoms: N_8  and  S_3 
REMARK    4  A    between atoms: C_12  and  N_5 
ROOT
ATOM      1  C   UNL d   1     -40.282  14.653  19.812  0.00  0.00     0.170 A 
ATOM      2  C   UNL d   1     -39.692  14.351  20.213  0.00  0.00     0.299 A 
ATOM      3  N   UNL d   1     -40.198  15.326  20.830  0.00  0.00    -0.238 N 
ATOM      4  N   UNL d   1     -39.639  14.807  20.898  0.00  0.00    -0.209 N 
ATOM      5  C   UNL d   1     -40.631  15.227  20.104  0.00  0.00     0.105 A 
ATOM      6  O   UNL d   1     -39.209  13.701  20.003  0.00  0.00    -0.263 OA
ATOM      7  C   UNL d   1     -40.361  15.922  21.405  0.00  0.00     0.120 C 
ATOM      8  C   UNL d   1     -41.116  15.756  20.150  0.00  0.00     0.022 C 
ENDROOT
BRANCH   1   9
ATOM      9  N   UNL d   1     -40.551  14.376  19.072  0.00  0.00    -0.137 NA
BRANCH   9  10
ATOM     10  S   UNL d   1     -40.128  14.554  18.365  0.00  0.00     0.351 S 
ATOM     11  O   UNL d   1     -40.304  15.378  18.409  0.00  0.00    -0.180 OA
ATOM     12  O   UNL d   1     -39.957  13.737  18.326  0.00  0.00    -0.180 OA
BRANCH  10  13
ATOM     13  N   UNL d   1     -39.690  14.630  17.663  0.00  0.00    -0.215 N 
ATOM     14  C   UNL d   1     -39.575  15.391  17.320  0.00  0.00     0.093 A 
ATOM     15  C   UNL d   1     -39.136  15.463  16.616  0.00  0.00     0.020 A 
ATOM     16  C   UNL d   1     -38.809  14.784  16.249  0.00  0.00     0.003 A 
ATOM     17  C   UNL d   1     -38.924  14.030  16.589  0.00  0.00     0.020 A 
ATOM     18  C   UNL d   1     -39.368  13.949  17.303  0.00  0.00     0.093 A 
ENDBRANCH  10  13
ENDBRANCH   9  10
ENDBRANCH   1   9
BRANCH   4  19
ATOM     19  C   UNL d   1     -39.122  14.780  21.569  0.00  0.00     0.085 A 
ATOM     20  C   UNL d   1     -39.276  14.220  22.154  0.00  0.00     0.019 A 
ATOM     21  C   UNL d   1     -38.776  14.187  22.813  0.00  0.00     0.002 A 
ATOM     22  C   UNL d   1     -38.146  14.710  22.864  0.00  0.00     0.000 A 
ATOM     23  C   UNL d   1     -38.034  15.235  22.277  0.00  0.00     0.002 A 
ATOM     24  C   UNL d   1     -38.536  15.261  21.626  0.00  0.00     0.019 A 
ENDBRANCH   4  19
TORSDOF 4
ENDMDL
MODEL 6
REMARK VINA RESULT:      -5.6      1.062      4.394
REMARK  4 active torsions:
REMARK  status: ('A' for Active; 'I' for Inactive)
REMARK    1  A    between atoms: N_7  and  C_1 
REMARK    2  A    between atoms: S_3  and  N_7 
REMARK    3  A    between atoms: N_8  and  S_3 
REMARK    4  A    between atoms: C_12  and  N_5 
ROOT
ATOM      1  C   UNL d   1     -47.588  13.219  23.120  0.00  0.00     0.170 A 
ATOM      2  C   UNL d   1     -47.062  12.681  22.939  0.00  0.00     0.299 A 
ATOM      3  N   UNL d   1     -46.589  13.838  22.779  0.00  0.00    -0.238 N 
ATOM      4  N   UNL d   1     -46.391  13.102  22.710  0.00  0.00    -0.209 N 
ATOM      5  C   UNL d   1     -47.391  13.922  23.053  0.00  0.00     0.105 A 
ATOM      6  O   UNL d   1     -47.149  11.849  22.967  0.00  0.00    -0.263 OA
ATOM      7  C   UNL d   1     -46.075  14.484  22.605  0.00  0.00     0.120 C 
ATOM      8  C   UNL d   1     -47.462  14.636  23.079  0.00  0.00     0.022 C 
ENDROOT
BRANCH   1   9
ATOM      9  N   UNL d   1     -48.364  13.063  23.384  0.00  0.00    -0.137 NA
BRANCH   9  10
ATOM     10  S   UNL d   1     -49.017  13.102  22.853  0.00  0.00     0.351 S 
ATOM     11  O   UNL d   1     -48.729  12.469  22.375  0.00  0.00    -0.180 OA
ATOM     12  O   UNL d   1     -49.299  13.728  23.330  0.00  0.00    -0.180 OA
BRANCH  10  13
ATOM     13  N   UNL d   1     -49.696  13.215  22.387  0.00  0.00    -0.215 N 
ATOM     14  C   UNL d   1     -49.774  12.810  21.652  0.00  0.00     0.093 A 
ATOM     15  C   UNL d   1     -50.455  12.927  21.189  0.00  0.00     0.020 A 
ATOM     16  C   UNL d   1     -51.062  13.444  21.448  0.00  0.00     0.003 A 
ATOM     17  C   UNL d   1     -50.984  13.845  22.177  0.00  0.00     0.020 A 
ATOM     18  C   UNL d   1     -50.296  13.732  22.652  0.00  0.00     0.093 A 
ENDBRANCH  10  13
ENDBRANCH   9  10
ENDBRANCH   1   9
BRANCH   4  19
ATOM     19  C   UNL d   1     -45.621  12.860  22.447  0.00  0.00     0.085 A 
ATOM     20  C   UNL d   1     -45.215  12.302  22.898  0.00  0.00     0.019 A 
ATOM     21  C   UNL d   1     -44.464  12.061  22.648  0.00  0.00     0.002 A 
ATOM     22  C   UNL d   1     -44.148  12.384  21.963  0.00  0.00     0.000 A 
ATOM     23  C   UNL d   1     -44.573  12.919  21.558  0.00  0.00     0.002 A 
ATOM     24  C   UNL d   1     -45.320  13.153  21.813  0.00  0.00     0.019 A 
ENDBRANCH   4  19
TORSDOF 4
ENDMDL
