MODEL 1
REMARK VINA RESULT:      31.2      0.000      0.000
REMARK  2 active torsions:
REMARK  status: ('A' for Active; 'I' for Inactive)
REMARK    1  A    between atoms: C_10  and  C_5 
REMARK    2  A    between atoms: O_22  and  C_15 
ROOT
ATOM      1  C   UNL d   1      46.334 -18.978  42.064  0.00  0.00     0.120 A 
ATOM      2  C   UNL d   1      46.139 -18.280  42.459  0.00  0.00     0.058 A 
ATOM      3  N   UNL d   1      46.314 -18.821  41.255  0.00  0.00    -0.195 NA
ATOM      4  S   UNL d   1      46.502 -19.659  42.487  0.00  0.00    -0.072 SA
ATOM      5  C   UNL d   1      46.114 -18.267  43.275  0.00  0.00     0.005 A 
ATOM      6  C   UNL d   1      46.477 -19.645  43.304  0.00  0.00     0.009 A 
ATOM      7  C   UNL d   1      46.283 -18.948  43.703  0.00  0.00    -0.015 A 
ATOM      8  C   UNL d   1      46.107 -18.026  41.148  0.00  0.00     0.311 A 
ATOM      9  S   UNL d   1      45.999 -17.693  41.902  0.00  0.00    -0.024 SA
ATOM     10  C   UNL d   1      46.258 -18.937  44.528  0.00  0.00     0.045 A 
ATOM     11  C   UNL d   1      46.647 -20.330  43.730  0.00  0.00     0.050 A 
ATOM     12  C   UNL d   1      46.437 -19.552  43.896  0.00  0.00     0.018 A 
ATOM     13  O   UNL d   1      46.021 -17.628  40.426  0.00  0.00    -0.258 OA
ATOM     14  C   UNL d   1      46.427 -19.621  44.955  0.00  0.00    -0.026 A 
ATOM     15  C   UNL d   1      46.622 -20.319  44.555  0.00  0.00    -0.026 A 
ENDROOT
BRANCH   5  16
ATOM     16  C   UNL d   1      45.922 -17.577  43.669  0.00  0.00     0.002 A 
ATOM     17  C   UNL d   1      46.366 -16.900  43.553  0.00  0.00     0.028 A 
ATOM     18  C   UNL d   1      46.174 -16.205  43.948  0.00  0.00     0.133 A 
ATOM     19  C   UNL d   1      45.528 -16.187  44.466  0.00  0.00     0.218 A 
ATOM     20  C   UNL d   1      45.078 -16.875  44.583  0.00  0.00     0.044 A 
ATOM     21  O   UNL d   1      45.332 -15.492  44.864  0.00  0.00    -0.284 OA
ATOM     22  C   UNL d   1      45.272 -17.567  44.187  0.00  0.00     0.003 A 
BRANCH  18  23
ATOM     23  O   UNL d   1      46.624 -15.522  43.830  0.00  0.00    -0.325 OA
ATOM     24  C   UNL d   1      46.251 -14.798  43.696  0.00  0.00     0.181 C 
ENDBRANCH  18  23
ENDBRANCH   5  16
TORSDOF 2
ENDMDL
