MODEL 1
REMARK VINA RESULT:      48.2      0.000      0.000
REMARK  3 active torsions:
REMARK  status: ('A' for Active; 'I' for Inactive)
REMARK    1  A    between atoms: C_4  and  C_1 
REMARK    2  A    between atoms: N_7  and  C_4 
REMARK    3  A    between atoms: C_9  and  N_7 
ROOT
ATOM      1  C   UNL d   1      60.394  49.412  50.920  0.00  0.00     0.171 C 
ATOM      2  S   UNL d   1      60.694  49.685  51.640  0.00  0.00    -0.054 SA
ENDROOT
BRANCH   1   3
ATOM      3  C   UNL d   1      59.585  49.467  50.766  0.00  0.00     0.191 A 
ATOM      4  N   UNL d   1      58.989  49.519  51.337  0.00  0.00    -0.223 NA
ATOM      5  C   UNL d   1      58.264  49.563  50.941  0.00  0.00     0.101 A 
ATOM      6  C   UNL d   1      57.485  49.623  51.210  0.00  0.00     0.021 A 
ATOM      7  C   UNL d   1      58.417  49.538  50.127  0.00  0.00     0.101 A 
ATOM      8  C   UNL d   1      56.866  49.658  50.675  0.00  0.00     0.002 A 
ATOM      9  C   UNL d   1      57.019  49.632  49.861  0.00  0.00     0.002 A 
ATOM     10  C   UNL d   1      57.790  49.573  49.589  0.00  0.00     0.021 A 
ATOM     11  N   UNL d   1      59.236  49.478  50.025  0.00  0.00    -0.223 NA
ENDBRANCH   1   3
BRANCH   1  12
ATOM     12  N   UNL d   1      60.897  49.087  50.357  0.00  0.00    -0.232 NA
BRANCH  12  13
ATOM     13  C   UNL d   1      61.089  48.281  50.390  0.00  0.00     0.083 A 
ATOM     14  C   UNL d   1      61.518  47.936  49.778  0.00  0.00     0.020 A 
ATOM     15  C   UNL d   1      61.712  47.138  49.802  0.00  0.00     0.013 A 
ATOM     16  C   UNL d   1      61.469  46.681  50.454  0.00  0.00     0.058 A 
ATOM     17  C   UNL d   1      61.039  47.026  51.070  0.00  0.00     0.013 A 
ATOM     18 CL   UNL d   1      61.659  45.883  50.487  0.00  0.00    -0.082 Cl
ATOM     19  C   UNL d   1      60.852  47.828  51.030  0.00  0.00     0.020 A 
ENDBRANCH  12  13
ENDBRANCH   1  12
TORSDOF 3
ENDMDL
MODEL 2
REMARK VINA RESULT:      48.5      1.560      3.867
REMARK  3 active torsions:
REMARK  status: ('A' for Active; 'I' for Inactive)
REMARK    1  A    between atoms: C_4  and  C_1 
REMARK    2  A    between atoms: N_7  and  C_4 
REMARK    3  A    between atoms: C_9  and  N_7 
ROOT
ATOM      1  C   UNL d   1      60.679  49.199  51.065  0.00  0.00     0.171 C 
ATOM      2  S   UNL d   1      60.857  49.434  51.836  0.00  0.00    -0.054 SA
ENDROOT
BRANCH   1   3
ATOM      3  C   UNL d   1      60.902  48.449  50.804  0.00  0.00     0.191 A 
ATOM      4  N   UNL d   1      61.482  48.290  50.236  0.00  0.00    -0.223 NA
ATOM      5  C   UNL d   1      61.527  47.469  50.143  0.00  0.00     0.101 A 
ATOM      6  C   UNL d   1      61.995  46.988  49.663  0.00  0.00     0.021 A 
ATOM      7  C   UNL d   1      60.973  47.125  50.655  0.00  0.00     0.101 A 
ATOM      8  C   UNL d   1      61.914  46.173  49.691  0.00  0.00     0.002 A 
ATOM      9  C   UNL d   1      61.360  45.829  50.204  0.00  0.00     0.002 A 
ATOM     10  C   UNL d   1      60.893  46.303  50.682  0.00  0.00     0.021 A 
ATOM     11  N   UNL d   1      60.590  47.737  51.061  0.00  0.00    -0.223 NA
ENDBRANCH   1   3
BRANCH   1  12
ATOM     12  N   UNL d   1      60.279  49.707  50.557  0.00  0.00    -0.232 NA
BRANCH  12  13
ATOM     13  C   UNL d   1      59.450  49.707  50.540  0.00  0.00     0.083 A 
ATOM     14  C   UNL d   1      59.054  49.708  49.819  0.00  0.00     0.020 A 
ATOM     15  C   UNL d   1      58.233  49.708  49.792  0.00  0.00     0.013 A 
ATOM     16  C   UNL d   1      57.804  49.706  50.506  0.00  0.00     0.058 A 
ATOM     17  C   UNL d   1      58.199  49.705  51.231  0.00  0.00     0.013 A 
ATOM     18 CL   UNL d   1      56.984  49.705  50.488  0.00  0.00    -0.082 Cl
ATOM     19  C   UNL d   1      59.024  49.705  51.240  0.00  0.00     0.020 A 
ENDBRANCH  12  13
ENDBRANCH   1  12
TORSDOF 3
ENDMDL
MODEL 3
REMARK VINA RESULT:      49.9      2.037      3.899
REMARK  3 active torsions:
REMARK  status: ('A' for Active; 'I' for Inactive)
REMARK    1  A    between atoms: C_4  and  C_1 
REMARK    2  A    between atoms: N_7  and  C_4 
REMARK    3  A    between atoms: C_9  and  N_7 
ROOT
ATOM      1  C   UNL d   1      60.153  49.091  49.996  0.00  0.00     0.171 C 
ATOM      2  S   UNL d   1      60.184  48.359  49.614  0.00  0.00    -0.054 SA
ENDROOT
BRANCH   1   3
ATOM      3  C   UNL d   1      60.575  49.206  50.696  0.00  0.00     0.191 A 
ATOM      4  N   UNL d   1      60.247  49.406  51.427  0.00  0.00    -0.223 NA
ATOM      5  C   UNL d   1      60.865  49.466  51.974  0.00  0.00     0.101 A 
ATOM      6  C   UNL d   1      60.881  49.647  52.780  0.00  0.00     0.021 A 
ATOM      7  C   UNL d   1      61.573  49.301  51.575  0.00  0.00     0.101 A 
ATOM      8  C   UNL d   1      61.594  49.664  53.184  0.00  0.00     0.002 A 
ATOM      9  C   UNL d   1      62.301  49.499  52.785  0.00  0.00     0.002 A 
ATOM     10  C   UNL d   1      62.290  49.319  51.985  0.00  0.00     0.021 A 
ATOM     11  N   UNL d   1      61.386  49.141  50.784  0.00  0.00    -0.223 NA
ENDBRANCH   1   3
BRANCH   1  12
ATOM     12  N   UNL d   1      59.705  49.705  49.682  0.00  0.00    -0.232 NA
BRANCH  12  13
ATOM     13  C   UNL d   1      58.877  49.657  49.687  0.00  0.00     0.083 A 
ATOM     14  C   UNL d   1      58.468  49.678  50.401  0.00  0.00     0.020 A 
ATOM     15  C   UNL d   1      57.649  49.631  50.414  0.00  0.00     0.013 A 
ATOM     16  C   UNL d   1      57.234  49.561  49.696  0.00  0.00     0.058 A 
ATOM     17  C   UNL d   1      57.642  49.539  48.978  0.00  0.00     0.013 A 
ATOM     18 CL   UNL d   1      56.414  49.513  49.701  0.00  0.00    -0.082 Cl
ATOM     19  C   UNL d   1      58.465  49.587  48.981  0.00  0.00     0.020 A 
ENDBRANCH  12  13
ENDBRANCH   1  12
TORSDOF 3
ENDMDL
