MODEL 1
REMARK VINA RESULT:      -7.8      0.000      0.000
REMARK  4 active torsions:
REMARK  status: ('A' for Active; 'I' for Inactive)
REMARK    1  A    between atoms: C_7  and  C_1 
REMARK    2  A    between atoms: N_4  and  C_9 
REMARK    3  A    between atoms: O_17  and  C_7 
REMARK    4  A    between atoms: C_18  and  O_17 
ROOT
ATOM      1  C   UNL d   1     -49.341  12.390  22.485  0.00  0.00     0.127 A 
ATOM      2  C   UNL d   1     -49.396  11.723  22.935  0.00  0.00     0.305 A 
ATOM      3  C   UNL d   1     -48.617  12.783  22.407  0.00  0.00     0.013 A 
ATOM      4  O   UNL d   1     -48.729  11.426  23.325  0.00  0.00    -0.273 OA
ATOM      5  C   UNL d   1     -47.974  12.484  22.792  0.00  0.00     0.025 A 
ATOM      6  C   UNL d   1     -48.029  11.818  23.242  0.00  0.00     0.103 A 
ATOM      7  C   UNL d   1     -46.588  12.580  23.103  0.00  0.00     0.127 A 
ATOM      8  C   UNL d   1     -47.252  12.878  22.714  0.00  0.00     0.025 A 
ATOM      9  O   UNL d   1     -50.116  11.330  23.014  0.00  0.00    -0.259 OA
ATOM     10  C   UNL d   1     -47.364  11.521  23.631  0.00  0.00     0.026 A 
ATOM     11  C   UNL d   1     -46.642  11.914  23.553  0.00  0.00     0.026 A 
ENDROOT
BRANCH   1  12
ATOM     12  C   UNL d   1     -50.005  12.687  22.096  0.00  0.00     0.305 C 
ATOM     13  O   UNL d   1     -50.309  12.301  21.430  0.00  0.00    -0.259 OA
BRANCH  12  14
ATOM     14  O   UNL d   1     -50.361  13.371  22.376  0.00  0.00    -0.271 OA
BRANCH  14  15
ATOM     15  C   UNL d   1     -50.865  13.791  21.896  0.00  0.00     0.126 C 
ATOM     16  C   UNL d   1     -51.061  14.553  22.082  0.00  0.00     0.029 C 
ENDBRANCH  14  15
ENDBRANCH  12  14
ENDBRANCH   1  12
BRANCH   7  17
ATOM     17  N   UNL d   1     -45.864  12.950  23.042  0.00  0.00    -0.114 N 
ATOM     18  O   UNL d   1     -45.284  12.607  22.590  0.00  0.00    -0.532 OA
ATOM     19  O   UNL d   1     -45.749  13.645  23.432  0.00  0.00    -0.532 OA
ENDBRANCH   7  17
TORSDOF 4
ENDMDL
MODEL 2
REMARK VINA RESULT:      -7.7      1.482      2.255
REMARK  4 active torsions:
REMARK  status: ('A' for Active; 'I' for Inactive)
REMARK    1  A    between atoms: C_7  and  C_1 
REMARK    2  A    between atoms: N_4  and  C_9 
REMARK    3  A    between atoms: O_17  and  C_7 
REMARK    4  A    between atoms: C_18  and  O_17 
ROOT
ATOM      1  C   UNL d   1     -48.583  14.293  22.728  0.00  0.00     0.127 A 
ATOM      2  C   UNL d   1     -48.032  14.851  22.542  0.00  0.00     0.305 A 
ATOM      3  C   UNL d   1     -48.347  13.538  22.969  0.00  0.00     0.013 A 
ATOM      4  O   UNL d   1     -47.225  14.675  22.590  0.00  0.00    -0.273 OA
ATOM      5  C   UNL d   1     -47.558  13.377  23.013  0.00  0.00     0.025 A 
ATOM      6  C   UNL d   1     -47.007  13.935  22.827  0.00  0.00     0.103 A 
ATOM      7  C   UNL d   1     -46.518  12.448  23.302  0.00  0.00     0.127 A 
ATOM      8  C   UNL d   1     -47.323  12.623  23.254  0.00  0.00     0.025 A 
ATOM      9  O   UNL d   1     -48.266  15.605  22.301  0.00  0.00    -0.259 OA
ATOM     10  C   UNL d   1     -46.202  13.760  22.875  0.00  0.00     0.026 A 
ATOM     11  C   UNL d   1     -45.967  13.006  23.116  0.00  0.00     0.026 A 
ENDROOT
BRANCH   1  12
ATOM     12  C   UNL d   1     -49.387  14.467  22.680  0.00  0.00     0.305 C 
ATOM     13  O   UNL d   1     -49.756  14.915  23.271  0.00  0.00    -0.259 OA
BRANCH  12  14
ATOM     14  O   UNL d   1     -49.821  14.193  22.040  0.00  0.00    -0.271 OA
BRANCH  14  15
ATOM     15  C   UNL d   1     -50.633  14.217  22.060  0.00  0.00     0.126 C 
ATOM     16  C   UNL d   1     -51.063  13.905  21.450  0.00  0.00     0.029 C 
ENDBRANCH  14  15
ENDBRANCH  12  14
ENDBRANCH   1  12
BRANCH   7  17
ATOM     17  N   UNL d   1     -46.261  11.711  23.537  0.00  0.00    -0.114 N 
ATOM     18  O   UNL d   1     -45.464  11.576  23.605  0.00  0.00    -0.532 OA
ATOM     19  O   UNL d   1     -46.807  11.141  23.694  0.00  0.00    -0.532 OA
ENDBRANCH   7  17
TORSDOF 4
ENDMDL
MODEL 3
REMARK VINA RESULT:      -7.6      1.088      1.274
REMARK  4 active torsions:
REMARK  status: ('A' for Active; 'I' for Inactive)
REMARK    1  A    between atoms: C_7  and  C_1 
REMARK    2  A    between atoms: N_4  and  C_9 
REMARK    3  A    between atoms: O_17  and  C_7 
REMARK    4  A    between atoms: C_18  and  O_17 
ROOT
ATOM      1  C   UNL d   1     -49.249  13.337  23.073  0.00  0.00     0.127 A 
ATOM      2  C   UNL d   1     -49.591  12.657  23.337  0.00  0.00     0.305 A 
ATOM      3  C   UNL d   1     -48.426  13.395  23.011  0.00  0.00     0.013 A 
ATOM      4  O   UNL d   1     -49.123  12.009  23.549  0.00  0.00    -0.273 OA
ATOM      5  C   UNL d   1     -47.980  12.757  23.222  0.00  0.00     0.025 A 
ATOM      6  C   UNL d   1     -48.321  12.077  23.486  0.00  0.00     0.103 A 
ATOM      7  C   UNL d   1     -46.692  12.169  23.372  0.00  0.00     0.127 A 
ATOM      8  C   UNL d   1     -47.158  12.816  23.160  0.00  0.00     0.025 A 
ATOM      9  O   UNL d   1     -50.412  12.598  23.399  0.00  0.00    -0.259 OA
ATOM     10  C   UNL d   1     -47.855  11.430  23.698  0.00  0.00     0.026 A 
ATOM     11  C   UNL d   1     -47.033  11.488  23.636  0.00  0.00     0.026 A 
ENDROOT
BRANCH   1  12
ATOM     12  C   UNL d   1     -49.715  13.984  22.861  0.00  0.00     0.305 C 
ATOM     13  O   UNL d   1     -50.090  14.007  22.123  0.00  0.00    -0.259 OA
BRANCH  12  14
ATOM     14  O   UNL d   1     -49.804  14.606  23.389  0.00  0.00    -0.271 OA
BRANCH  14  15
ATOM     15  C   UNL d   1     -50.112  15.314  23.133  0.00  0.00     0.126 C 
ATOM     16  C   UNL d   1     -50.223  15.920  23.657  0.00  0.00     0.029 C 
ENDBRANCH  14  15
ENDBRANCH  12  14
ENDBRANCH   1  12
BRANCH   7  17
ATOM     17  N   UNL d   1     -45.879  12.202  23.321  0.00  0.00    -0.114 N 
ATOM     18  O   UNL d   1     -45.524  12.912  23.156  0.00  0.00    -0.532 OA
ATOM     19  O   UNL d   1     -45.455  11.527  23.435  0.00  0.00    -0.532 OA
ENDBRANCH   7  17
TORSDOF 4
ENDMDL
MODEL 4
REMARK VINA RESULT:      -7.5      1.845      3.858
REMARK  4 active torsions:
REMARK  status: ('A' for Active; 'I' for Inactive)
REMARK    1  A    between atoms: C_7  and  C_1 
REMARK    2  A    between atoms: N_4  and  C_9 
REMARK    3  A    between atoms: O_17  and  C_7 
REMARK    4  A    between atoms: C_18  and  O_17 
ROOT
ATOM      1  C   UNL d   1     -47.214  13.111  23.037  0.00  0.00     0.127 A 
ATOM      2  C   UNL d   1     -47.674  12.454  23.115  0.00  0.00     0.305 A 
ATOM      3  C   UNL d   1     -47.561  13.860  22.987  0.00  0.00     0.013 A 
ATOM      4  O   UNL d   1     -48.498  12.521  23.147  0.00  0.00    -0.273 OA
ATOM      5  C   UNL d   1     -48.365  13.914  23.020  0.00  0.00     0.025 A 
ATOM      6  C   UNL d   1     -48.825  13.257  23.098  0.00  0.00     0.103 A 
ATOM      7  C   UNL d   1     -49.533  14.729  23.002  0.00  0.00     0.127 A 
ATOM      8  C   UNL d   1     -48.711  14.663  22.970  0.00  0.00     0.025 A 
ATOM      9  O   UNL d   1     -47.329  11.706  23.165  0.00  0.00    -0.259 OA
ATOM     10  C   UNL d   1     -49.648  13.324  23.130  0.00  0.00     0.026 A 
ATOM     11  C   UNL d   1     -49.993  14.072  23.081  0.00  0.00     0.026 A 
ENDROOT
BRANCH   1  12
ATOM     12  C   UNL d   1     -46.393  13.045  23.005  0.00  0.00     0.305 C 
ATOM     13  O   UNL d   1     -45.954  12.929  23.697  0.00  0.00    -0.259 OA
BRANCH  12  14
ATOM     14  O   UNL d   1     -46.013  13.096  22.279  0.00  0.00    -0.271 OA
BRANCH  14  15
ATOM     15  C   UNL d   1     -45.214  13.240  22.249  0.00  0.00     0.126 C 
ATOM     16  C   UNL d   1     -44.786  13.019  21.599  0.00  0.00     0.029 C 
ENDBRANCH  14  15
ENDBRANCH  12  14
ENDBRANCH   1  12
BRANCH   7  17
ATOM     17  N   UNL d   1     -49.898  15.456  22.955  0.00  0.00    -0.114 N 
ATOM     18  O   UNL d   1     -49.947  15.915  23.622  0.00  0.00    -0.532 OA
ATOM     19  O   UNL d   1     -50.199  15.695  22.248  0.00  0.00    -0.532 OA
ENDBRANCH   7  17
TORSDOF 4
ENDMDL
MODEL 5
REMARK VINA RESULT:      -7.3      1.646      3.980
REMARK  4 active torsions:
REMARK  status: ('A' for Active; 'I' for Inactive)
REMARK    1  A    between atoms: C_7  and  C_1 
REMARK    2  A    between atoms: N_4  and  C_9 
REMARK    3  A    between atoms: O_17  and  C_7 
REMARK    4  A    between atoms: C_18  and  O_17 
ROOT
ATOM      1  C   UNL d   1     -47.200  13.663  22.909  0.00  0.00     0.127 A 
ATOM      2  C   UNL d   1     -47.597  14.348  22.756  0.00  0.00     0.305 A 
ATOM      3  C   UNL d   1     -47.616  12.971  23.087  0.00  0.00     0.013 A 
ATOM      4  O   UNL d   1     -48.424  14.366  22.776  0.00  0.00    -0.273 OA
ATOM      5  C   UNL d   1     -48.422  13.000  23.104  0.00  0.00     0.025 A 
ATOM      6  C   UNL d   1     -48.818  13.685  22.951  0.00  0.00     0.103 A 
ATOM      7  C   UNL d   1     -49.661  12.326  23.302  0.00  0.00     0.127 A 
ATOM      8  C   UNL d   1     -48.836  12.308  23.283  0.00  0.00     0.025 A 
ATOM      9  O   UNL d   1     -47.184  15.040  22.578  0.00  0.00    -0.259 OA
ATOM     10  C   UNL d   1     -49.644  13.703  22.971  0.00  0.00     0.026 A 
ATOM     11  C   UNL d   1     -50.057  13.011  23.150  0.00  0.00     0.026 A 
ENDROOT
BRANCH   1  12
ATOM     12  C   UNL d   1     -46.376  13.644  22.889  0.00  0.00     0.305 C 
ATOM     13  O   UNL d   1     -45.934  13.965  23.511  0.00  0.00    -0.259 OA
BRANCH  12  14
ATOM     14  O   UNL d   1     -45.997  13.304  22.246  0.00  0.00    -0.271 OA
BRANCH  14  15
ATOM     15  C   UNL d   1     -45.187  13.236  22.242  0.00  0.00     0.126 C 
ATOM     16  C   UNL d   1     -44.814  12.863  21.629  0.00  0.00     0.029 C 
ENDBRANCH  14  15
ENDBRANCH  12  14
ENDBRANCH   1  12
BRANCH   7  17
ATOM     17  N   UNL d   1     -50.093  11.657  23.476  0.00  0.00    -0.114 N 
ATOM     18  O   UNL d   1     -50.902  11.688  23.427  0.00  0.00    -0.532 OA
ATOM     19  O   UNL d   1     -49.701  10.987  23.690  0.00  0.00    -0.532 OA
ENDBRANCH   7  17
TORSDOF 4
ENDMDL
MODEL 6
REMARK VINA RESULT:      -7.0      1.666      3.682
REMARK  4 active torsions:
REMARK  status: ('A' for Active; 'I' for Inactive)
REMARK    1  A    between atoms: C_7  and  C_1 
REMARK    2  A    between atoms: N_4  and  C_9 
REMARK    3  A    between atoms: O_17  and  C_7 
REMARK    4  A    between atoms: C_18  and  O_17 
ROOT
ATOM      1  C   UNL d   1     -48.790  12.180  22.910  0.00  0.00     0.127 A 
ATOM      2  C   UNL d   1     -49.206  11.909  22.275  0.00  0.00     0.305 A 
ATOM      3  C   UNL d   1     -48.913  12.947  23.193  0.00  0.00     0.013 A 
ATOM      4  O   UNL d   1     -49.760  12.395  21.900  0.00  0.00    -0.273 OA
ATOM      5  C   UNL d   1     -49.456  13.413  22.819  0.00  0.00     0.025 A 
ATOM      6  C   UNL d   1     -49.872  13.142  22.185  0.00  0.00     0.103 A 
ATOM      7  C   UNL d   1     -50.131  14.663  22.728  0.00  0.00     0.127 A 
ATOM      8  C   UNL d   1     -49.578  14.179  23.103  0.00  0.00     0.025 A 
ATOM      9  O   UNL d   1     -49.085  11.144  21.991  0.00  0.00    -0.259 OA
ATOM     10  C   UNL d   1     -50.425  13.626  21.809  0.00  0.00     0.026 A 
ATOM     11  C   UNL d   1     -50.547  14.392  22.093  0.00  0.00     0.026 A 
ENDROOT
BRANCH   1  12
ATOM     12  C   UNL d   1     -48.237  11.696  23.285  0.00  0.00     0.305 C 
ATOM     13  O   UNL d   1     -48.479  11.010  23.680  0.00  0.00    -0.259 OA
BRANCH  12  14
ATOM     14  O   UNL d   1     -47.443  11.902  23.263  0.00  0.00    -0.271 OA
BRANCH  14  15
ATOM     15  C   UNL d   1     -46.903  11.477  23.698  0.00  0.00     0.126 C 
ATOM     16  C   UNL d   1     -46.111  11.559  23.551  0.00  0.00     0.029 C 
ENDBRANCH  14  15
ENDBRANCH  12  14
ENDBRANCH   1  12
BRANCH   7  17
ATOM     17  N   UNL d   1     -50.270  15.423  22.988  0.00  0.00    -0.114 N 
ATOM     18  O   UNL d   1     -51.029  15.706  22.986  0.00  0.00    -0.532 OA
ATOM     19  O   UNL d   1     -49.647  15.867  23.239  0.00  0.00    -0.532 OA
ENDBRANCH   7  17
TORSDOF 4
ENDMDL
MODEL 7
REMARK VINA RESULT:      -5.6      8.598      9.955
REMARK  4 active torsions:
REMARK  status: ('A' for Active; 'I' for Inactive)
REMARK    1  A    between atoms: C_7  and  C_1 
REMARK    2  A    between atoms: N_4  and  C_9 
REMARK    3  A    between atoms: O_17  and  C_7 
REMARK    4  A    between atoms: C_18  and  O_17 
ROOT
ATOM      1  C   UNL d   1     -39.742  14.047  18.450  0.00  0.00     0.127 A 
ATOM      2  C   UNL d   1     -40.532  14.202  18.397  0.00  0.00     0.305 A 
ATOM      3  C   UNL d   1     -39.332  14.207  19.151  0.00  0.00     0.013 A 
ATOM      4  O   UNL d   1     -40.940  14.521  19.041  0.00  0.00    -0.273 OA
ATOM      5  C   UNL d   1     -39.740  14.518  19.773  0.00  0.00     0.025 A 
ATOM      6  C   UNL d   1     -40.529  14.673  19.719  0.00  0.00     0.103 A 
ATOM      7  C   UNL d   1     -39.738  14.996  21.114  0.00  0.00     0.127 A 
ATOM      8  C   UNL d   1     -39.330  14.677  20.472  0.00  0.00     0.025 A 
ATOM      9  O   UNL d   1     -40.942  14.043  17.699  0.00  0.00    -0.259 OA
ATOM     10  C   UNL d   1     -40.938  14.992  20.362  0.00  0.00     0.026 A 
ATOM     11  C   UNL d   1     -40.527  15.151  21.061  0.00  0.00     0.026 A 
ENDROOT
BRANCH   1  12
ATOM     12  C   UNL d   1     -39.334  13.728  17.808  0.00  0.00     0.305 C 
ATOM     13  O   UNL d   1     -39.398  12.922  17.629  0.00  0.00    -0.259 OA
BRANCH  12  14
ATOM     14  O   UNL d   1     -38.864  14.218  17.348  0.00  0.00    -0.271 OA
BRANCH  14  15
ATOM     15  C   UNL d   1     -38.390  13.898  16.770  0.00  0.00     0.126 C 
ATOM     16  C   UNL d   1     -37.941  14.381  16.301  0.00  0.00     0.029 C 
ENDBRANCH  14  15
ENDBRANCH  12  14
ENDBRANCH   1  12
BRANCH   7  17
ATOM     17  N   UNL d   1     -39.356  15.162  21.815  0.00  0.00    -0.114 N 
ATOM     18  O   UNL d   1     -39.112  15.922  21.959  0.00  0.00    -0.532 OA
ATOM     19  O   UNL d   1     -39.233  14.565  22.341  0.00  0.00    -0.532 OA
ENDBRANCH   7  17
TORSDOF 4
ENDMDL
MODEL 8
REMARK VINA RESULT:      -5.5      8.877      9.578
REMARK  4 active torsions:
REMARK  status: ('A' for Active; 'I' for Inactive)
REMARK    1  A    between atoms: C_7  and  C_1 
REMARK    2  A    between atoms: N_4  and  C_9 
REMARK    3  A    between atoms: O_17  and  C_7 
REMARK    4  A    between atoms: C_18  and  O_17 
ROOT
ATOM      1  C   UNL d   1     -40.270  15.041  17.827  0.00  0.00     0.127 A 
ATOM      2  C   UNL d   1     -39.880  14.337  17.850  0.00  0.00     0.305 A 
ATOM      3  C   UNL d   1     -40.445  15.447  18.527  0.00  0.00     0.013 A 
ATOM      4  O   UNL d   1     -39.650  14.011  18.575  0.00  0.00    -0.273 OA
ATOM      5  C   UNL d   1     -40.215  15.119  19.227  0.00  0.00     0.025 A 
ATOM      6  C   UNL d   1     -39.825  14.414  19.251  0.00  0.00     0.103 A 
ATOM      7  C   UNL d   1     -40.159  15.198  20.648  0.00  0.00     0.127 A 
ATOM      8  C   UNL d   1     -40.390  15.524  19.925  0.00  0.00     0.025 A 
ATOM      9  O   UNL d   1     -39.706  13.932  17.153  0.00  0.00    -0.259 OA
ATOM     10  C   UNL d   1     -39.595  14.088  19.974  0.00  0.00     0.026 A 
ATOM     11  C   UNL d   1     -39.769  14.493  20.672  0.00  0.00     0.026 A 
ENDROOT
BRANCH   1  12
ATOM     12  C   UNL d   1     -40.501  15.368  17.105  0.00  0.00     0.305 C 
ATOM     13  O   UNL d   1     -39.935  15.562  16.533  0.00  0.00    -0.259 OA
BRANCH  12  14
ATOM     14  O   UNL d   1     -41.298  15.498  16.959  0.00  0.00    -0.271 OA
BRANCH  14  15
ATOM     15  C   UNL d   1     -41.526  15.905  16.293  0.00  0.00     0.126 C 
ATOM     16  C   UNL d   1     -42.305  15.921  16.076  0.00  0.00     0.029 C 
ENDBRANCH  14  15
ENDBRANCH  12  14
ENDBRANCH   1  12
BRANCH   7  17
ATOM     17  N   UNL d   1     -40.319  15.578  21.351  0.00  0.00    -0.114 N 
ATOM     18  O   UNL d   1     -39.748  15.598  21.926  0.00  0.00    -0.532 OA
ATOM     19  O   UNL d   1     -41.040  15.921  21.452  0.00  0.00    -0.532 OA
ENDBRANCH   7  17
TORSDOF 4
ENDMDL
