MODEL 1
REMARK VINA RESULT:      15.3      0.000      0.000
REMARK  4 active torsions:
REMARK  status: ('A' for Active; 'I' for Inactive)
REMARK    1  A    between atoms: C_15  and  C_2 
REMARK    2  A    between atoms: C_5  and  S_13 
REMARK       I    between atoms: C_11  and  N_8 
REMARK    3  A    between atoms: C_18  and  C_11 
REMARK    4  A    between atoms: S_13  and  C_18 
ROOT
ATOM      1  N   UNL d   1      45.632 -16.147  44.491  0.00  0.00    -0.272 N 
ATOM      2  C   UNL d   1      45.434 -15.373  44.653  0.00  0.00     0.271 C 
ATOM      3  C   UNL d   1      46.053 -17.707  44.159  0.00  0.00     0.023 A 
ATOM      4  C   UNL d   1      45.071 -16.748  44.528  0.00  0.00     0.083 A 
ATOM      5  C   UNL d   1      46.415 -16.331  44.285  0.00  0.00     0.083 A 
ATOM      6  O   UNL d   1      44.669 -15.183  44.856  0.00  0.00    -0.266 OA
ATOM      7  C   UNL d   1      45.281 -17.529  44.362  0.00  0.00     0.021 A 
ATOM      8  C   UNL d   1      46.619 -17.116  44.120  0.00  0.00     0.021 A 
ENDROOT
BRANCH   2   9
ATOM      9  C   UNL d   1      46.011 -14.776  44.612  0.00  0.00     0.099 C 
BRANCH   9  10
ATOM     10  S   UNL d   1      45.864 -14.038  44.955  0.00  0.00    -0.054 SA
BRANCH  10  11
ATOM     11  C   UNL d   1      45.763 -13.359  44.477  0.00  0.00     0.164 A 
ATOM     12  S   UNL d   1      45.303 -13.309  43.794  0.00  0.00    -0.039 SA
ATOM     13  C   UNL d   1      45.366 -12.531  43.502  0.00  0.00     0.134 A 
ATOM     14  C   UNL d   1      44.989 -12.235  42.819  0.00  0.00     0.030 C 
ATOM     15  N   UNL d   1      45.869 -12.103  44.011  0.00  0.00    -0.140 NA
ATOM     16  N   UNL d   1      46.117 -12.618  44.619  0.00  0.00    -0.134 NA
ENDBRANCH  10  11
ENDBRANCH   9  10
ENDBRANCH   2   9
BRANCH   3  17
ATOM     17  C   UNL d   1      46.266 -18.476  43.994  0.00  0.00     0.110 A 
ATOM     18  N   UNL d   1      46.469 -19.042  44.544  0.00  0.00    -0.126 NA
ATOM     19  O   UNL d   1      46.647 -19.744  44.146  0.00  0.00    -0.211 OA
ATOM     20  C   UNL d   1      46.551 -19.605  43.351  0.00  0.00     0.127 A 
ATOM     21  C   UNL d   1      46.645 -20.084  42.686  0.00  0.00     0.029 A 
ATOM     22  C   UNL d   1      46.314 -18.817  43.253  0.00  0.00     0.047 A 
ATOM     23  C   UNL d   1      46.507 -19.788  41.944  0.00  0.00     0.032 A 
ATOM     24  C   UNL d   1      46.269 -19.000  41.833  0.00  0.00     0.140 A 
ATOM     25  C   UNL d   1      46.176 -18.521  42.511  0.00  0.00     0.033 A 
ATOM     26  F   UNL d   1      46.131 -18.704  41.090  0.00  0.00    -0.204 F 
ENDBRANCH   3  17
TORSDOF 4
ENDMDL
