MODEL 1
REMARK VINA RESULT:      -7.3      0.000      0.000
REMARK  1 active torsions:
REMARK  status: ('A' for Active; 'I' for Inactive)
REMARK    1  A    between atoms: C_4  and  C_1 
ROOT
ATOM      1  C   UNL d   1     -47.849  12.598  23.236  0.00  0.00     0.036 A 
ATOM      2  C   UNL d   1     -48.016  11.842  23.532  0.00  0.00     0.061 A 
ATOM      3  C   UNL d   1     -48.474  13.104  23.074  0.00  0.00     0.004 A 
ATOM      4  C   UNL d   1     -48.782  11.603  23.661  0.00  0.00     0.023 A 
ATOM      5  C   UNL d   1     -49.406  12.122  23.494  0.00  0.00     0.059 A 
ATOM      6 CL   UNL d   1     -47.391  11.336  23.695  0.00  0.00    -0.082 Cl
ATOM      7  C   UNL d   1     -49.257  12.866  23.203  0.00  0.00     0.011 A 
ATOM      8 CL   UNL d   1     -50.176  11.874  23.626  0.00  0.00    -0.082 Cl
ENDROOT
BRANCH   1   9
ATOM      9  C   UNL d   1     -47.074  12.848  23.102  0.00  0.00     0.136 A 
ATOM     10  S   UNL d   1     -46.696  12.920  22.372  0.00  0.00    -0.024 SA
ATOM     11  C   UNL d   1     -45.926  13.187  22.499  0.00  0.00     0.236 A 
ATOM     12  N   UNL d   1     -45.353  13.336  21.924  0.00  0.00    -0.118 N 
ATOM     13  N   UNL d   1     -45.816  13.287  23.327  0.00  0.00    -0.119 NA
ATOM     14  N   UNL d   1     -46.522  13.078  23.698  0.00  0.00    -0.139 NA
ENDBRANCH   1   9
TORSDOF 1
ENDMDL
MODEL 2
REMARK VINA RESULT:      -7.1      2.150      3.143
REMARK  1 active torsions:
REMARK  status: ('A' for Active; 'I' for Inactive)
REMARK    1  A    between atoms: C_4  and  C_1 
ROOT
ATOM      1  C   UNL d   1     -48.002  12.751  23.013  0.00  0.00     0.036 A 
ATOM      2  C   UNL d   1     -47.289  12.480  23.337  0.00  0.00     0.061 A 
ATOM      3  C   UNL d   1     -48.016  13.487  22.653  0.00  0.00     0.004 A 
ATOM      4  C   UNL d   1     -46.614  12.932  23.301  0.00  0.00     0.023 A 
ATOM      5  C   UNL d   1     -46.640  13.675  22.935  0.00  0.00     0.059 A 
ATOM      6 CL   UNL d   1     -47.275  11.742  23.697  0.00  0.00    -0.082 Cl
ATOM      7  C   UNL d   1     -47.332  13.953  22.613  0.00  0.00     0.011 A 
ATOM      8 CL   UNL d   1     -45.956  14.126  22.902  0.00  0.00    -0.082 Cl
ENDROOT
BRANCH   1   9
ATOM      9  C   UNL d   1     -48.691  12.297  23.045  0.00  0.00     0.136 A 
ATOM     10  S   UNL d   1     -49.364  12.450  23.498  0.00  0.00    -0.024 SA
ATOM     11  C   UNL d   1     -49.917  11.854  23.360  0.00  0.00     0.236 A 
ATOM     12  N   UNL d   1     -50.667  11.787  23.698  0.00  0.00    -0.118 N 
ATOM     13  N   UNL d   1     -49.586  11.312  22.809  0.00  0.00    -0.119 NA
ATOM     14  N   UNL d   1     -48.832  11.585  22.615  0.00  0.00    -0.139 NA
ENDBRANCH   1   9
TORSDOF 1
ENDMDL
MODEL 3
REMARK VINA RESULT:      -6.9      1.489      1.808
REMARK  1 active torsions:
REMARK  status: ('A' for Active; 'I' for Inactive)
REMARK    1  A    between atoms: C_4  and  C_1 
ROOT
ATOM      1  C   UNL d   1     -47.728  14.088  22.817  0.00  0.00     0.036 A 
ATOM      2  C   UNL d   1     -48.394  13.628  22.996  0.00  0.00     0.061 A 
ATOM      3  C   UNL d   1     -47.835  14.877  22.623  0.00  0.00     0.004 A 
ATOM      4  C   UNL d   1     -49.141  13.950  22.981  0.00  0.00     0.023 A 
ATOM      5  C   UNL d   1     -49.237  14.749  22.783  0.00  0.00     0.059 A 
ATOM      6 CL   UNL d   1     -48.287  12.838  23.191  0.00  0.00    -0.082 Cl
ATOM      7  C   UNL d   1     -48.593  15.211  22.605  0.00  0.00     0.011 A 
ATOM      8 CL   UNL d   1     -49.993  15.067  22.769  0.00  0.00    -0.082 Cl
ENDROOT
BRANCH   1   9
ATOM      9  C   UNL d   1     -46.967  13.768  22.831  0.00  0.00     0.136 A 
ATOM     10  S   UNL d   1     -46.499  13.575  22.179  0.00  0.00    -0.024 SA
ATOM     11  C   UNL d   1     -45.781  13.272  22.449  0.00  0.00     0.236 A 
ATOM     12  N   UNL d   1     -45.150  13.010  21.987  0.00  0.00    -0.118 N 
ATOM     13  N   UNL d   1     -45.796  13.274  23.290  0.00  0.00    -0.119 NA
ATOM     14  N   UNL d   1     -46.525  13.579  23.525  0.00  0.00    -0.139 NA
ENDBRANCH   1   9
TORSDOF 1
ENDMDL
MODEL 4
REMARK VINA RESULT:      -6.8      2.059      2.842
REMARK  1 active torsions:
REMARK  status: ('A' for Active; 'I' for Inactive)
REMARK    1  A    between atoms: C_4  and  C_1 
ROOT
ATOM      1  C   UNL d   1     -47.867  13.241  23.004  0.00  0.00     0.036 A 
ATOM      2  C   UNL d   1     -47.047  13.329  23.088  0.00  0.00     0.061 A 
ATOM      3  C   UNL d   1     -48.202  12.508  23.157  0.00  0.00     0.004 A 
ATOM      4  C   UNL d   1     -46.580  12.703  23.317  0.00  0.00     0.023 A 
ATOM      5  C   UNL d   1     -46.929  11.967  23.468  0.00  0.00     0.059 A 
ATOM      6 CL   UNL d   1     -46.711  14.063  22.936  0.00  0.00    -0.082 Cl
ATOM      7  C   UNL d   1     -47.731  11.867  23.390  0.00  0.00     0.011 A 
ATOM      8 CL   UNL d   1     -46.453  11.341  23.698  0.00  0.00    -0.082 Cl
ENDROOT
BRANCH   1   9
ATOM      9  C   UNL d   1     -48.347  13.871  22.773  0.00  0.00     0.136 A 
ATOM     10  S   UNL d   1     -48.790  14.363  23.266  0.00  0.00    -0.024 SA
ATOM     11  C   UNL d   1     -49.186  14.917  22.800  0.00  0.00     0.236 A 
ATOM     12  N   UNL d   1     -49.690  15.514  23.063  0.00  0.00    -0.118 N 
ATOM     13  N   UNL d   1     -48.988  14.772  21.995  0.00  0.00    -0.119 NA
ATOM     14  N   UNL d   1     -48.472  14.128  21.979  0.00  0.00    -0.139 NA
ENDBRANCH   1   9
TORSDOF 1
ENDMDL
MODEL 5
REMARK VINA RESULT:      -6.8      1.668      2.231
REMARK  1 active torsions:
REMARK  status: ('A' for Active; 'I' for Inactive)
REMARK    1  A    between atoms: C_4  and  C_1 
ROOT
ATOM      1  C   UNL d   1     -49.123  12.321  22.482  0.00  0.00     0.036 A 
ATOM      2  C   UNL d   1     -49.883  12.239  22.802  0.00  0.00     0.061 A 
ATOM      3  C   UNL d   1     -49.026  12.780  21.809  0.00  0.00     0.004 A 
ATOM      4  C   UNL d   1     -50.523  12.604  22.458  0.00  0.00     0.023 A 
ATOM      5  C   UNL d   1     -50.414  13.065  21.779  0.00  0.00     0.059 A 
ATOM      6 CL   UNL d   1     -49.980  11.779  23.475  0.00  0.00    -0.082 Cl
ATOM      7  C   UNL d   1     -49.675  13.155  21.455  0.00  0.00     0.011 A 
ATOM      8 CL   UNL d   1     -51.064  13.431  21.438  0.00  0.00    -0.082 Cl
ENDROOT
BRANCH   1   9
ATOM      9  C   UNL d   1     -48.468  11.953  22.825  0.00  0.00     0.136 A 
ATOM     10  S   UNL d   1     -47.771  12.317  23.076  0.00  0.00    -0.024 SA
ATOM     11  C   UNL d   1     -47.268  11.740  23.384  0.00  0.00     0.236 A 
ATOM     12  N   UNL d   1     -46.514  11.858  23.697  0.00  0.00    -0.118 N 
ATOM     13  N   UNL d   1     -47.656  10.997  23.327  0.00  0.00    -0.119 NA
ATOM     14  N   UNL d   1     -48.395  11.128  22.983  0.00  0.00    -0.139 NA
ENDBRANCH   1   9
TORSDOF 1
ENDMDL
