MODEL 1
REMARK VINA RESULT:      11.3      0.000      0.000
REMARK  9 active torsions:
REMARK  status: ('A' for Active; 'I' for Inactive)
REMARK    1  A    between atoms: N_8  and  C_1 
REMARK    2  A    between atoms: S_2  and  C_13 
REMARK    3  A    between atoms: N_7  and  S_2 
REMARK    4  A    between atoms: C_12  and  C_3 
REMARK       I    between atoms: C_10  and  N_8 
REMARK       I    between atoms: C_11  and  N_9 
REMARK    5  A    between atoms: C_21  and  C_10 
REMARK    6  A    between atoms: O_33  and  C_11 
REMARK    7  A    between atoms: C_34  and  N_14 
REMARK    8  A    between atoms: C_35  and  O_33 
REMARK    9  A    between atoms: C_36  and  C_34 
ROOT
ATOM      1  C   UNL d   1      32.239  18.940 -22.118  0.00  0.00     0.104 A 
ATOM      2  C   UNL d   1      32.564  20.163 -21.060  0.00  0.00     0.056 A 
ATOM      3  C   UNL d   1      32.921  18.917 -21.646  0.00  0.00     0.013 A 
ATOM      4  C   UNL d   1      31.716  19.582 -22.058  0.00  0.00     0.013 A 
ATOM      5  C   UNL d   1      33.085  19.525 -21.118  0.00  0.00     0.005 A 
ATOM      6  C   UNL d   1      31.884  20.195 -21.524  0.00  0.00     0.005 A 
ENDROOT
BRANCH   2   7
ATOM      7  C   UNL d   1      32.724  20.779 -20.530  0.00  0.00     0.258 C 
ATOM      8  N   UNL d   1      32.365  20.783 -19.779  0.00  0.00    -0.316 N 
ATOM      9  H   UNL d   1      32.112  20.241 -20.013  0.00  0.00     0.169 HD
ATOM     10  O   UNL d   1      33.238  21.392 -20.740  0.00  0.00    -0.267 OA
BRANCH   8  11
ATOM     11  C   UNL d   1      32.524  21.398 -19.249  0.00  0.00     0.094 A 
ATOM     12  C   UNL d   1      32.576  22.199 -19.437  0.00  0.00     0.082 A 
ATOM     13  C   UNL d   1      32.744  22.625 -18.751  0.00  0.00     0.016 A 
ATOM     14  C   UNL d   1      32.855  23.432 -18.610  0.00  0.00     0.020 A 
ATOM     15  C   UNL d   1      32.798  22.092 -18.125  0.00  0.00     0.049 A 
ATOM     16  C   UNL d   1      33.019  23.698 -17.848  0.00  0.00     0.080 A 
ATOM     17  N   UNL d   1      33.074  23.170 -17.221  0.00  0.00    -0.302 N 
ATOM     18  C   UNL d   1      32.964  22.362 -17.357  0.00  0.00     0.087 A 
ATOM     19  S   UNL d   1      32.664  21.329 -18.424  0.00  0.00    -0.068 SA
BRANCH  12  20
ATOM     20  C   UNL d   1      32.479  22.529 -20.182  0.00  0.00     0.299 C 
ATOM     21  O   UNL d   1      33.127  22.692 -20.645  0.00  0.00    -0.264 OA
ATOM     22  N   UNL d   1      31.724  22.693 -20.457  0.00  0.00    -0.102 N 
ENDBRANCH  12  20
BRANCH  17  23
ATOM     23  C   UNL d   1      33.238  23.440 -16.462  0.00  0.00     0.080 C 
BRANCH  23  24
ATOM     24  C   UNL d   1      32.727  23.271 -15.836  0.00  0.00     0.019 C 
ATOM     25  C   UNL d   1      33.034  23.077 -15.101  0.00  0.00     0.002 C 
ENDBRANCH  23  24
ENDBRANCH  17  23
ENDBRANCH   8  11
ENDBRANCH   2   7
BRANCH   1  26
ATOM     26  S   UNL d   1      32.075  18.325 -22.649  0.00  0.00     0.271 S 
ATOM     27  O   UNL d   1      32.841  18.434 -22.956  0.00  0.00    -0.200 OA
ATOM     28  O   UNL d   1      31.317  18.218 -22.345  0.00  0.00    -0.200 OA
BRANCH  26  29
ATOM     29  N   UNL d   1      31.915  17.714 -23.179  0.00  0.00    -0.226 N 
ATOM     30  C   UNL d   1      32.526  17.279 -23.511  0.00  0.00     0.111 A 
ATOM     31  C   UNL d   1      32.350  16.668 -24.042  0.00  0.00     0.105 A 
ATOM     32  N   UNL d   1      31.565  16.495 -24.239  0.00  0.00    -0.248 N 
ATOM     33  C   UNL d   1      30.957  16.934 -23.904  0.00  0.00     0.105 A 
ATOM     34  C   UNL d   1      31.395  15.891 -24.764  0.00  0.00     0.378 C 
ATOM     35  C   UNL d   1      31.135  17.539 -23.378  0.00  0.00     0.111 A 
ATOM     36  O   UNL d   1      32.007  15.455 -25.096  0.00  0.00    -0.237 OA
BRANCH  34  37
ATOM     37  O   UNL d   1      30.619  15.725 -24.954  0.00  0.00    -0.257 OA
BRANCH  37  38
ATOM     38  C   UNL d   1      30.020  15.929 -24.438  0.00  0.00     0.128 C 
ATOM     39  C   UNL d   1      29.228  15.909 -24.689  0.00  0.00     0.029 C 
ENDBRANCH  37  38
ENDBRANCH  34  37
ENDBRANCH  26  29
ENDBRANCH   1  26
TORSDOF 9
ENDMDL
