MODEL 1
REMARK VINA RESULT:      15.8      0.000      0.000
REMARK  3 active torsions:
REMARK  status: ('A' for Active; 'I' for Inactive)
REMARK    1  A    between atoms: C_6  and  N_1 
REMARK    2  A    between atoms: C_7  and  C_6 
REMARK    3  A    between atoms: C_8  and  C_7 
ROOT
ATOM      1  N   UNL d   1     -51.883  24.917  33.341  0.00  0.00    -0.305 N 
ATOM      2  C   UNL d   1     -51.888  25.740  33.333  0.00  0.00     0.064 A 
ATOM      3  C   UNL d   1     -51.055  24.336  33.338  0.00  0.00     0.064 A 
ATOM      4  C   UNL d   1     -51.071  25.757  33.324  0.00  0.00     0.018 A 
ATOM      5  C   UNL d   1     -50.648  25.055  33.326  0.00  0.00     0.018 A 
ATOM      6  C   UNL d   1     -50.646  23.631  33.340  0.00  0.00     0.018 A 
ATOM      7  C   UNL d   1     -52.315  26.450  33.331  0.00  0.00     0.018 A 
ATOM      8  C   UNL d   1     -50.666  26.483  33.312  0.00  0.00     0.002 A 
ATOM      9  C   UNL d   1     -49.826  25.063  33.317  0.00  0.00     0.002 A 
ATOM     10  C   UNL d   1     -49.411  24.347  33.319  0.00  0.00     0.000 A 
ATOM     11  C   UNL d   1     -51.921  27.176  33.319  0.00  0.00     0.002 A 
ATOM     12  C   UNL d   1     -49.822  23.635  33.331  0.00  0.00     0.002 A 
ATOM     13  C   UNL d   1     -51.090  27.185  33.310  0.00  0.00     0.000 A 
ENDROOT
BRANCH   1  14
ATOM     14  C   UNL d   1     -52.599  24.502  33.354  0.00  0.00     0.086 C 
BRANCH  14  15
ATOM     15  C   UNL d   1     -52.699  23.821  33.810  0.00  0.00     0.089 C 
BRANCH  15  16
ATOM     16  C   UNL d   1     -53.462  23.535  33.953  0.00  0.00     0.213 C 
ATOM     17  O   UNL d   1     -53.895  23.194  33.336  0.00  0.00    -0.644 OA
ATOM     18  O   UNL d   1     -53.790  23.587  34.707  0.00  0.00    -0.644 OA
ENDBRANCH  15  16
ENDBRANCH  14  15
ENDBRANCH   1  14
TORSDOF 3
ENDMDL
MODEL 2
REMARK VINA RESULT:      15.9      0.341      2.232
REMARK  3 active torsions:
REMARK  status: ('A' for Active; 'I' for Inactive)
REMARK    1  A    between atoms: C_6  and  N_1 
REMARK    2  A    between atoms: C_7  and  C_6 
REMARK    3  A    between atoms: C_8  and  C_7 
ROOT
ATOM      1  N   UNL d   1     -51.816  24.557  33.308  0.00  0.00    -0.305 N 
ATOM      2  C   UNL d   1     -51.029  24.315  33.311  0.00  0.00     0.064 A 
ATOM      3  C   UNL d   1     -52.133  25.518  33.307  0.00  0.00     0.064 A 
ATOM      4  C   UNL d   1     -50.778  25.092  33.312  0.00  0.00     0.018 A 
ATOM      5  C   UNL d   1     -51.327  25.701  33.310  0.00  0.00     0.018 A 
ATOM      6  C   UNL d   1     -52.689  26.113  33.306  0.00  0.00     0.018 A 
ATOM      7  C   UNL d   1     -50.474  23.701  33.313  0.00  0.00     0.018 A 
ATOM      8  C   UNL d   1     -49.965  25.270  33.315  0.00  0.00     0.002 A 
ATOM      9  C   UNL d   1     -51.082  26.485  33.311  0.00  0.00     0.002 A 
ATOM     10  C   UNL d   1     -51.646  27.090  33.309  0.00  0.00     0.000 A 
ATOM     11  C   UNL d   1     -49.665  23.868  33.316  0.00  0.00     0.002 A 
ATOM     12  C   UNL d   1     -52.447  26.902  33.306  0.00  0.00     0.002 A 
ATOM     13  C   UNL d   1     -49.416  24.661  33.317  0.00  0.00     0.000 A 
ENDROOT
BRANCH   1  14
ATOM     14  C   UNL d   1     -52.421  23.993  33.306  0.00  0.00     0.086 C 
BRANCH  14  15
ATOM     15  C   UNL d   1     -52.609  23.554  33.979  0.00  0.00     0.089 C 
BRANCH  15  16
ATOM     16  C   UNL d   1     -53.396  23.342  34.121  0.00  0.00     0.213 C 
ATOM     17  O   UNL d   1     -53.919  23.254  33.486  0.00  0.00    -0.644 OA
ATOM     18  O   UNL d   1     -53.660  23.218  34.892  0.00  0.00    -0.644 OA
ENDBRANCH  15  16
ENDBRANCH  14  15
ENDBRANCH   1  14
TORSDOF 3
ENDMDL
