MODEL 1
REMARK VINA RESULT:      99.6      0.000      0.000
REMARK  5 active torsions:
REMARK  status: ('A' for Active; 'I' for Inactive)
REMARK    1  A    between atoms: C_10  and  N_3 
REMARK    2  A    between atoms: C_14  and  N_6 
REMARK    3  A    between atoms: C_9  and  C_7 
REMARK    4  A    between atoms: O_23  and  C_20 
REMARK    5  A    between atoms: C_26  and  O_23 
ROOT
ATOM      1  C   UNL d   1     -50.616  26.544  34.048  0.00  0.00     0.105 A 
ATOM      2  C   UNL d   1     -49.942  26.070  34.209  0.00  0.00     0.186 A 
ATOM      3  N   UNL d   1     -49.581  27.343  34.330  0.00  0.00    -0.240 N 
ATOM      4  C   UNL d   1     -49.334  26.569  34.375  0.00  0.00     0.292 A 
ATOM      5  C   UNL d   1     -50.394  27.327  34.123  0.00  0.00     0.271 A 
ATOM      6  N   UNL d   1     -50.985  25.253  33.925  0.00  0.00    -0.212 N 
ATOM      7  C   UNL d   1     -51.226  26.023  33.881  0.00  0.00     0.100 A 
ATOM      8  O   UNL d   1     -50.158  25.273  34.136  0.00  0.00    -0.223 OA
ATOM      9  O   UNL d   1     -50.903  27.971  34.008  0.00  0.00    -0.266 OA
ATOM     10  O   UNL d   1     -48.567  26.330  34.565  0.00  0.00    -0.264 OA
ENDROOT
BRANCH   3  11
ATOM     11  C   UNL d   1     -49.108  28.006  34.466  0.00  0.00     0.070 A 
ATOM     12  C   UNL d   1     -48.531  28.206  33.919  0.00  0.00     0.020 A 
ATOM     13  C   UNL d   1     -48.048  28.870  34.041  0.00  0.00     0.026 A 
ATOM     14  C   UNL d   1     -48.159  29.330  34.727  0.00  0.00     0.100 A 
ATOM     15  C   UNL d   1     -48.732  29.130  35.267  0.00  0.00     0.026 A 
ATOM     16  C   UNL d   1     -49.198  28.470  35.127  0.00  0.00     0.020 A 
BRANCH  14  17
ATOM     17  O   UNL d   1     -47.692  29.993  34.868  0.00  0.00    -0.305 OA
BRANCH  17  18
ATOM     18  C   UNL d   1     -46.980  29.902  35.277  0.00  0.00     0.123 C 
ATOM     19  C   UNL d   1     -46.829  30.334  35.954  0.00  0.00     0.029 C 
ENDBRANCH  17  18
ENDBRANCH  14  17
ENDBRANCH   3  11
BRANCH   7  20
ATOM     20  C   UNL d   1     -51.994  26.262  33.691  0.00  0.00     0.048 A 
ATOM     21  S   UNL d   1     -52.316  27.053  33.716  0.00  0.00    -0.085 SA
ATOM     22  C   UNL d   1     -53.092  26.995  33.478  0.00  0.00     0.035 A 
ATOM     23  C   UNL d   1     -53.289  26.236  33.306  0.00  0.00     0.007 A 
ATOM     24  C   UNL d   1     -52.596  25.757  33.438  0.00  0.00     0.009 A 
ENDBRANCH   7  20
BRANCH   6  25
ATOM     25  C   UNL d   1     -51.463  24.589  33.788  0.00  0.00     0.088 A 
ATOM     26  C   UNL d   1     -52.260  24.597  33.988  0.00  0.00     0.020 A 
ATOM     27  C   UNL d   1     -52.745  23.929  33.851  0.00  0.00     0.002 A 
ATOM     28  C   UNL d   1     -52.409  23.253  33.509  0.00  0.00     0.000 A 
ATOM     29  C   UNL d   1     -51.603  23.248  33.308  0.00  0.00     0.002 A 
ATOM     30  C   UNL d   1     -51.138  23.921  33.452  0.00  0.00     0.020 A 
ENDBRANCH   6  25
TORSDOF 5
ENDMDL
MODEL 2
REMARK VINA RESULT:     100.2      1.754      5.991
REMARK  5 active torsions:
REMARK  status: ('A' for Active; 'I' for Inactive)
REMARK    1  A    between atoms: C_10  and  N_3 
REMARK    2  A    between atoms: C_14  and  N_6 
REMARK    3  A    between atoms: C_9  and  C_7 
REMARK    4  A    between atoms: O_23  and  C_20 
REMARK    5  A    between atoms: C_26  and  O_23 
ROOT
ATOM      1  C   UNL d   1     -48.808  29.066  34.464  0.00  0.00     0.105 A 
ATOM      2  C   UNL d   1     -49.419  29.445  34.029  0.00  0.00     0.186 A 
ATOM      3  N   UNL d   1     -49.651  28.138  33.999  0.00  0.00    -0.240 N 
ATOM      4  C   UNL d   1     -49.911  28.871  33.761  0.00  0.00     0.292 A 
ATOM      5  C   UNL d   1     -48.951  28.262  34.445  0.00  0.00     0.271 A 
ATOM      6  N   UNL d   1     -48.569  30.393  34.496  0.00  0.00    -0.212 N 
ATOM      7  C   UNL d   1     -48.314  29.663  34.731  0.00  0.00     0.100 A 
ATOM      8  O   UNL d   1     -49.281  30.263  34.043  0.00  0.00    -0.223 OA
ATOM      9  O   UNL d   1     -48.473  27.693  34.811  0.00  0.00    -0.266 OA
ATOM     10  O   UNL d   1     -50.588  29.005  33.305  0.00  0.00    -0.264 OA
ENDROOT
BRANCH   3  11
ATOM     11  C   UNL d   1     -50.018  27.418  33.826  0.00  0.00     0.070 A 
ATOM     12  C   UNL d   1     -50.819  27.408  33.655  0.00  0.00     0.020 A 
ATOM     13  C   UNL d   1     -51.202  26.692  33.479  0.00  0.00     0.026 A 
ATOM     14  C   UNL d   1     -50.759  25.986  33.481  0.00  0.00     0.100 A 
ATOM     15  C   UNL d   1     -49.965  25.999  33.651  0.00  0.00     0.026 A 
ATOM     16  C   UNL d   1     -49.607  26.717  33.822  0.00  0.00     0.020 A 
BRANCH  14  17
ATOM     17  O   UNL d   1     -51.118  25.265  33.309  0.00  0.00    -0.305 OA
BRANCH  17  18
ATOM     18  C   UNL d   1     -51.885  25.124  33.582  0.00  0.00     0.123 C 
ATOM     19  C   UNL d   1     -52.304  24.469  33.329  0.00  0.00     0.029 C 
ENDBRANCH  17  18
ENDBRANCH  14  17
ENDBRANCH   3  11
BRANCH   7  20
ATOM     20  C   UNL d   1     -47.638  29.529  35.186  0.00  0.00     0.048 A 
ATOM     21  S   UNL d   1     -47.595  29.367  36.023  0.00  0.00    -0.085 SA
ATOM     22  C   UNL d   1     -46.807  29.277  36.203  0.00  0.00     0.035 A 
ATOM     23  C   UNL d   1     -46.346  29.369  35.551  0.00  0.00     0.007 A 
ATOM     24  C   UNL d   1     -46.866  29.530  34.894  0.00  0.00     0.009 A 
ENDBRANCH   7  20
BRANCH   6  25
ATOM     25  C   UNL d   1     -48.198  31.114  34.672  0.00  0.00     0.088 A 
ATOM     26  C   UNL d   1     -47.881  31.253  35.417  0.00  0.00     0.020 A 
ATOM     27  C   UNL d   1     -47.506  31.978  35.597  0.00  0.00     0.002 A 
ATOM     28  C   UNL d   1     -47.459  32.561  35.010  0.00  0.00     0.000 A 
ATOM     29  C   UNL d   1     -47.780  32.419  34.258  0.00  0.00     0.002 A 
ATOM     30  C   UNL d   1     -48.148  31.692  34.098  0.00  0.00     0.020 A 
ENDBRANCH   6  25
TORSDOF 5
ENDMDL
