MODEL 1
REMARK VINA RESULT:      -9.4      0.000      0.000
REMARK  3 active torsions:
REMARK  status: ('A' for Active; 'I' for Inactive)
REMARK       I    between atoms: C_3  and  N_1 
REMARK    1  A    between atoms: C_6  and  C_3 
REMARK    2  A    between atoms: O_9  and  C_6 
REMARK    3  A    between atoms: C_10  and  O_9 
ROOT
ATOM      1  N   UNL d   1      53.306  33.669  53.869  0.00  0.00    -0.272 N 
ATOM      2  C   UNL d   1      52.555  33.750  53.530  0.00  0.00     0.067 A 
ATOM      3  C   UNL d   1      53.737  32.963  53.952  0.00  0.00     0.290 C 
ATOM      4  C   UNL d   1      53.555  34.392  54.107  0.00  0.00     0.083 A 
ATOM      5  C   UNL d   1      52.345  34.536  53.564  0.00  0.00     0.018 A 
ATOM      6  O   UNL d   1      54.480  32.983  54.304  0.00  0.00    -0.264 OA
ATOM      7  C   UNL d   1      52.960  34.949  53.922  0.00  0.00     0.021 A 
ATOM      8  C   UNL d   1      52.036  33.211  53.196  0.00  0.00     0.018 A 
ATOM      9  C   UNL d   1      51.617  34.791  53.265  0.00  0.00     0.002 A 
ATOM     10  C   UNL d   1      51.318  33.450  52.899  0.00  0.00     0.002 A 
ATOM     11  C   UNL d   1      51.106  34.257  52.936  0.00  0.00     0.000 A 
ENDROOT
BRANCH   3  12
ATOM     12  C   UNL d   1      53.412  32.256  53.681  0.00  0.00     0.184 C 
BRANCH  12  13
ATOM     13  O   UNL d   1      53.888  31.574  53.654  0.00  0.00    -0.300 OA
BRANCH  13  14
ATOM     14  C   UNL d   1      53.540  30.834  53.591  0.00  0.00     0.100 A 
ATOM     15  C   UNL d   1      53.460  30.355  54.265  0.00  0.00     0.025 A 
ATOM     16  C   UNL d   1      53.112  29.614  54.206  0.00  0.00     0.002 A 
ATOM     17  C   UNL d   1      52.842  29.345  53.475  0.00  0.00     0.000 A 
ATOM     18  C   UNL d   1      52.914  29.811  52.792  0.00  0.00     0.002 A 
ATOM     19  C   UNL d   1      53.270  30.565  52.862  0.00  0.00     0.025 A 
ENDBRANCH  13  14
ENDBRANCH  12  13
ENDBRANCH   3  12
TORSDOF 3
ENDMDL
MODEL 2
REMARK VINA RESULT:      -8.9      1.204      3.681
REMARK  3 active torsions:
REMARK  status: ('A' for Active; 'I' for Inactive)
REMARK       I    between atoms: C_3  and  N_1 
REMARK    1  A    between atoms: C_6  and  C_3 
REMARK    2  A    between atoms: O_9  and  C_6 
REMARK    3  A    between atoms: C_10  and  O_9 
ROOT
ATOM      1  N   UNL d   1      53.432  33.027  53.849  0.00  0.00    -0.272 N 
ATOM      2  C   UNL d   1      53.244  32.271  53.568  0.00  0.00     0.067 A 
ATOM      3  C   UNL d   1      53.009  33.728  53.702  0.00  0.00     0.290 C 
ATOM      4  C   UNL d   1      54.096  32.975  54.292  0.00  0.00     0.083 A 
ATOM      5  C   UNL d   1      53.806  31.751  53.847  0.00  0.00     0.018 A 
ATOM      6  O   UNL d   1      53.275  34.435  54.026  0.00  0.00    -0.264 OA
ATOM      7  C   UNL d   1      54.344  32.177  54.300  0.00  0.00     0.021 A 
ATOM      8  C   UNL d   1      52.637  31.990  53.097  0.00  0.00     0.018 A 
ATOM      9  C   UNL d   1      53.766  30.947  53.657  0.00  0.00     0.002 A 
ATOM     10  C   UNL d   1      52.588  31.201  52.904  0.00  0.00     0.002 A 
ATOM     11  C   UNL d   1      53.165  30.671  53.191  0.00  0.00     0.000 A 
ENDROOT
BRANCH   3  12
ATOM     12  C   UNL d   1      52.331  33.701  53.233  0.00  0.00     0.184 C 
BRANCH  12  13
ATOM     13  O   UNL d   1      51.946  34.411  53.035  0.00  0.00    -0.300 OA
BRANCH  13  14
ATOM     14  C   UNL d   1      51.219  34.390  52.656  0.00  0.00     0.100 A 
ATOM     15  C   UNL d   1      50.518  34.462  53.097  0.00  0.00     0.025 A 
ATOM     16  C   UNL d   1      49.789  34.442  52.722  0.00  0.00     0.002 A 
ATOM     17  C   UNL d   1      49.752  34.350  51.902  0.00  0.00     0.000 A 
ATOM     18  C   UNL d   1      50.442  34.277  51.447  0.00  0.00     0.002 A 
ATOM     19  C   UNL d   1      51.181  34.298  51.839  0.00  0.00     0.025 A 
ENDBRANCH  13  14
ENDBRANCH  12  13
ENDBRANCH   3  12
TORSDOF 3
ENDMDL
MODEL 3
REMARK VINA RESULT:      -8.4      1.657      3.638
REMARK  3 active torsions:
REMARK  status: ('A' for Active; 'I' for Inactive)
REMARK       I    between atoms: C_3  and  N_1 
REMARK    1  A    between atoms: C_6  and  C_3 
REMARK    2  A    between atoms: O_9  and  C_6 
REMARK    3  A    between atoms: C_10  and  O_9 
ROOT
ATOM      1  N   UNL d   1      53.566  32.520  53.530  0.00  0.00    -0.272 N 
ATOM      2  C   UNL d   1      53.738  33.126  54.067  0.00  0.00     0.067 A 
ATOM      3  C   UNL d   1      52.875  32.446  53.073  0.00  0.00     0.290 C 
ATOM      4  C   UNL d   1      54.181  32.008  53.520  0.00  0.00     0.083 A 
ATOM      5  C   UNL d   1      54.472  32.978  54.389  0.00  0.00     0.018 A 
ATOM      6  O   UNL d   1      52.794  31.806  52.565  0.00  0.00    -0.264 OA
ATOM      7  C   UNL d   1      54.760  32.283  54.056  0.00  0.00     0.021 A 
ATOM      8  C   UNL d   1      53.324  33.791  54.305  0.00  0.00     0.018 A 
ATOM      9  C   UNL d   1      54.797  33.492  54.949  0.00  0.00     0.002 A 
ATOM     10  C   UNL d   1      53.634  34.303  54.855  0.00  0.00     0.002 A 
ATOM     11  C   UNL d   1      54.386  34.149  55.182  0.00  0.00     0.000 A 
ENDROOT
BRANCH   3  12
ATOM     12  C   UNL d   1      52.283  33.017  53.140  0.00  0.00     0.184 C 
BRANCH  12  13
ATOM     13  O   UNL d   1      51.550  32.886  52.769  0.00  0.00    -0.300 OA
BRANCH  13  14
ATOM     14  C   UNL d   1      51.018  33.504  52.686  0.00  0.00     0.100 A 
ATOM     15  C   UNL d   1      50.996  33.941  51.978  0.00  0.00     0.025 A 
ATOM     16  C   UNL d   1      50.465  34.559  51.891  0.00  0.00     0.002 A 
ATOM     17  C   UNL d   1      49.950  34.749  52.508  0.00  0.00     0.000 A 
ATOM     18  C   UNL d   1      49.960  34.323  53.220  0.00  0.00     0.002 A 
ATOM     19  C   UNL d   1      50.505  33.694  53.300  0.00  0.00     0.025 A 
ENDBRANCH  13  14
ENDBRANCH  12  13
ENDBRANCH   3  12
TORSDOF 3
ENDMDL
MODEL 4
REMARK VINA RESULT:      -8.1      1.717      4.106
REMARK  3 active torsions:
REMARK  status: ('A' for Active; 'I' for Inactive)
REMARK       I    between atoms: C_3  and  N_1 
REMARK    1  A    between atoms: C_6  and  C_3 
REMARK    2  A    between atoms: O_9  and  C_6 
REMARK    3  A    between atoms: C_10  and  O_9 
ROOT
ATOM      1  N   UNL d   1      52.945  30.730  53.103  0.00  0.00    -0.272 N 
ATOM      2  C   UNL d   1      53.144  30.243  53.741  0.00  0.00     0.067 A 
ATOM      3  C   UNL d   1      53.090  31.547  53.040  0.00  0.00     0.290 C 
ATOM      4  C   UNL d   1      52.584  30.283  52.546  0.00  0.00     0.083 A 
ATOM      5  C   UNL d   1      52.900  29.486  53.568  0.00  0.00     0.018 A 
ATOM      6  O   UNL d   1      52.853  31.948  52.362  0.00  0.00    -0.264 OA
ATOM      7  C   UNL d   1      52.548  29.496  52.824  0.00  0.00     0.021 A 
ATOM      8  C   UNL d   1      53.516  30.390  54.456  0.00  0.00     0.018 A 
ATOM      9  C   UNL d   1      53.024  28.870  54.106  0.00  0.00     0.002 A 
ATOM     10  C   UNL d   1      53.643  29.792  54.993  0.00  0.00     0.002 A 
ATOM     11  C   UNL d   1      53.391  29.017  54.812  0.00  0.00     0.000 A 
ENDROOT
BRANCH   3  12
ATOM     12  C   UNL d   1      53.468  31.940  53.659  0.00  0.00     0.184 C 
BRANCH  12  13
ATOM     13  O   UNL d   1      53.634  32.751  53.583  0.00  0.00    -0.300 OA
BRANCH  13  14
ATOM     14  C   UNL d   1      54.069  33.136  54.162  0.00  0.00     0.100 A 
ATOM     15  C   UNL d   1      53.680  33.496  54.802  0.00  0.00     0.025 A 
ATOM     16  C   UNL d   1      54.111  33.882  55.383  0.00  0.00     0.002 A 
ATOM     17  C   UNL d   1      54.934  33.912  55.332  0.00  0.00     0.000 A 
ATOM     18  C   UNL d   1      55.338  33.557  54.700  0.00  0.00     0.002 A 
ATOM     19  C   UNL d   1      54.890  33.166  54.112  0.00  0.00     0.025 A 
ENDBRANCH  13  14
ENDBRANCH  12  13
ENDBRANCH   3  12
TORSDOF 3
ENDMDL
MODEL 5
REMARK VINA RESULT:      -7.5      1.545      2.825
REMARK  3 active torsions:
REMARK  status: ('A' for Active; 'I' for Inactive)
REMARK       I    between atoms: C_3  and  N_1 
REMARK    1  A    between atoms: C_6  and  C_3 
REMARK    2  A    between atoms: O_9  and  C_6 
REMARK    3  A    between atoms: C_10  and  O_9 
ROOT
ATOM      1  N   UNL d   1      51.984  32.578  53.164  0.00  0.00    -0.272 N 
ATOM      2  C   UNL d   1      51.752  33.372  53.173  0.00  0.00     0.067 A 
ATOM      3  C   UNL d   1      52.725  32.277  53.391  0.00  0.00     0.290 C 
ATOM      4  C   UNL d   1      51.370  32.138  52.898  0.00  0.00     0.083 A 
ATOM      5  C   UNL d   1      50.983  33.415  52.907  0.00  0.00     0.018 A 
ATOM      6  O   UNL d   1      52.862  31.468  53.347  0.00  0.00    -0.264 OA
ATOM      7  C   UNL d   1      50.732  32.651  52.732  0.00  0.00     0.021 A 
ATOM      8  C   UNL d   1      52.139  34.061  53.387  0.00  0.00     0.018 A 
ATOM      9  C   UNL d   1      50.595  34.143  52.853  0.00  0.00     0.002 A 
ATOM     10  C   UNL d   1      51.768  34.783  53.339  0.00  0.00     0.002 A 
ATOM     11  C   UNL d   1      50.980  34.822  53.066  0.00  0.00     0.000 A 
ENDROOT
BRANCH   3  12
ATOM     12  C   UNL d   1      53.309  32.797  53.655  0.00  0.00     0.184 C 
BRANCH  12  13
ATOM     13  O   UNL d   1      54.011  32.488  53.976  0.00  0.00    -0.300 OA
BRANCH  13  14
ATOM     14  C   UNL d   1      54.508  32.971  54.414  0.00  0.00     0.100 A 
ATOM     15  C   UNL d   1      54.386  33.060  55.232  0.00  0.00     0.025 A 
ATOM     16  C   UNL d   1      54.881  33.542  55.673  0.00  0.00     0.002 A 
ATOM     17  C   UNL d   1      55.502  33.941  55.304  0.00  0.00     0.000 A 
ATOM     18  C   UNL d   1      55.637  33.863  54.489  0.00  0.00     0.002 A 
ATOM     19  C   UNL d   1      55.127  33.369  54.047  0.00  0.00     0.025 A 
ENDBRANCH  13  14
ENDBRANCH  12  13
ENDBRANCH   3  12
TORSDOF 3
ENDMDL
