MODEL 1
REMARK VINA RESULT:      -0.1      0.000      0.000
REMARK  5 active torsions:
REMARK  status: ('A' for Active; 'I' for Inactive)
REMARK    1  A    between atoms: C_10  and  N_6 
REMARK    2  A    between atoms: S_13  and  C_9 
REMARK    3  A    between atoms: C_14  and  C_10 
REMARK    4  A    between atoms: C_22  and  S_13 
REMARK    5  A    between atoms: C_24  and  C_22 
ROOT
ATOM      1  C   UNL d   1      29.660  17.597 -24.104  0.00  0.00     0.174 A 
ATOM      2  C   UNL d   1      29.966  16.866 -24.330  0.00  0.00     0.158 A 
ATOM      3  N   UNL d   1      30.246  18.155 -24.192  0.00  0.00    -0.203 NA
ATOM      4  N   UNL d   1      28.880  17.646 -23.848  0.00  0.00    -0.240 N 
ATOM      5  N   UNL d   1      28.692  16.241 -24.036  0.00  0.00    -0.223 N 
ATOM      6  N   UNL d   1      30.817  16.939 -24.586  0.00  0.00    -0.279 N 
ATOM      7  C   UNL d   1      28.385  16.972 -23.810  0.00  0.00     0.343 A 
ATOM      8  C   UNL d   1      29.492  16.184 -24.299  0.00  0.00     0.287 A 
ATOM      9  C   UNL d   1      30.918  17.750 -24.476  0.00  0.00     0.181 A 
ATOM     10  O   UNL d   1      27.595  17.017 -23.552  0.00  0.00    -0.245 OA
ATOM     11  O   UNL d   1      29.799  15.453 -24.525  0.00  0.00    -0.265 OA
ATOM     12  C   UNL d   1      28.574  18.377 -23.623  0.00  0.00     0.105 C 
ATOM     13  C   UNL d   1      28.218  15.560 -24.006  0.00  0.00     0.107 C 
ENDROOT
BRANCH   6  14
ATOM     14  C   UNL d   1      31.341  16.364 -24.853  0.00  0.00     0.082 C 
BRANCH  14  15
ATOM     15  C   UNL d   1      31.907  16.061 -24.336  0.00  0.00     0.018 A 
ATOM     16  C   UNL d   1      31.708  15.900 -23.556  0.00  0.00     0.002 A 
ATOM     17  C   UNL d   1      32.267  15.597 -23.033  0.00  0.00     0.000 A 
ATOM     18  C   UNL d   1      32.004  15.457 -22.262  0.00  0.00     0.000 C 
ATOM     19  C   UNL d   1      33.042  15.453 -23.302  0.00  0.00     0.000 A 
ATOM     20  C   UNL d   1      33.241  15.616 -24.088  0.00  0.00     0.000 A 
ATOM     21  C   UNL d   1      32.677  15.918 -24.603  0.00  0.00     0.002 A 
ENDBRANCH  14  15
ENDBRANCH   6  14
BRANCH   9  22
ATOM     22  S   UNL d   1      31.643  18.106 -24.643  0.00  0.00    -0.046 SA
BRANCH  22  23
ATOM     23  C   UNL d   1      32.076  18.698 -25.013  0.00  0.00     0.084 C 
BRANCH  23  24
ATOM     24  C   UNL d   1      32.575  19.179 -24.569  0.00  0.00     0.241 C 
ATOM     25  O   UNL d   1      33.203  19.565 -24.934  0.00  0.00    -0.283 OA
ENDBRANCH  23  24
ENDBRANCH  22  23
ENDBRANCH   9  22
TORSDOF 5
ENDMDL
MODEL 2
REMARK VINA RESULT:       2.6      3.050      4.558
REMARK  5 active torsions:
REMARK  status: ('A' for Active; 'I' for Inactive)
REMARK    1  A    between atoms: C_10  and  N_6 
REMARK    2  A    between atoms: S_13  and  C_9 
REMARK    3  A    between atoms: C_14  and  C_10 
REMARK    4  A    between atoms: C_22  and  S_13 
REMARK    5  A    between atoms: C_24  and  C_22 
ROOT
ATOM      1  C   UNL d   1      33.009  20.831 -22.372  0.00  0.00     0.174 A 
ATOM      2  C   UNL d   1      33.104  20.030 -22.544  0.00  0.00     0.158 A 
ATOM      3  N   UNL d   1      32.987  21.241 -23.076  0.00  0.00    -0.203 NA
ATOM      4  N   UNL d   1      32.957  21.072 -21.588  0.00  0.00    -0.240 N 
ATOM      5  N   UNL d   1      33.092  19.725 -21.127  0.00  0.00    -0.223 N 
ATOM      6  N   UNL d   1      33.148  19.894 -23.424  0.00  0.00    -0.279 N 
ATOM      7  C   UNL d   1      32.997  20.526 -20.956  0.00  0.00     0.343 A 
ATOM      8  C   UNL d   1      33.146  19.472 -21.931  0.00  0.00     0.287 A 
ATOM      9  C   UNL d   1      33.070  20.673 -23.682  0.00  0.00     0.181 A 
ATOM     10  O   UNL d   1      32.945  20.765 -20.160  0.00  0.00    -0.245 OA
ATOM     11  O   UNL d   1      33.241  18.670 -22.103  0.00  0.00    -0.265 OA
ATOM     12  C   UNL d   1      32.863  21.873 -21.416  0.00  0.00     0.105 C 
ATOM     13  C   UNL d   1      33.134  19.166 -20.515  0.00  0.00     0.107 C 
ENDROOT
BRANCH   6  14
ATOM     14  C   UNL d   1      33.239  19.194 -23.847  0.00  0.00     0.082 C 
BRANCH  14  15
ATOM     15  C   UNL d   1      32.571  18.797 -24.122  0.00  0.00     0.018 A 
ATOM     16  C   UNL d   1      32.475  17.996 -23.965  0.00  0.00     0.002 A 
ATOM     17  C   UNL d   1      31.811  17.593 -24.236  0.00  0.00     0.000 A 
ATOM     18  C   UNL d   1      31.773  16.789 -24.045  0.00  0.00     0.000 C 
ATOM     19  C   UNL d   1      31.233  18.002 -24.673  0.00  0.00     0.000 A 
ATOM     20  C   UNL d   1      31.332  18.808 -24.830  0.00  0.00     0.000 A 
ATOM     21  C   UNL d   1      31.997  19.204 -24.556  0.00  0.00     0.002 A 
ENDBRANCH  14  15
ENDBRANCH   6  14
BRANCH   9  22
ATOM     22  S   UNL d   1      33.077  20.847 -24.489  0.00  0.00    -0.046 SA
BRANCH  22  23
ATOM     23  C   UNL d   1      33.117  21.398 -25.097  0.00  0.00     0.084 C 
BRANCH  23  24
ATOM     24  C   UNL d   1      33.222  22.195 -24.921  0.00  0.00     0.241 C 
ATOM     25  O   UNL d   1      32.615  22.730 -25.070  0.00  0.00    -0.283 OA
ENDBRANCH  23  24
ENDBRANCH  22  23
ENDBRANCH   9  22
TORSDOF 5
ENDMDL
