MODEL 1
REMARK VINA RESULT:      63.1      0.000      0.000
REMARK  4 active torsions:
REMARK  status: ('A' for Active; 'I' for Inactive)
REMARK    1  A    between atoms: C_2  and  S_1 
REMARK    2  A    between atoms: N_3  and  S_1 
REMARK    3  A    between atoms: C_7  and  C_14 
REMARK       I    between atoms: N_9  and  C_7 
REMARK    4  A    between atoms: C_13  and  N_10 
ROOT
ATOM      1  N   UNL d   1      46.022 -18.769  42.035  0.00  0.00    -0.229 N 
ATOM      2  C   UNL d   1      45.859 -18.689  40.382  0.00  0.00     0.060 A 
ATOM      3  C   UNL d   1      46.647 -19.010  41.550  0.00  0.00     0.092 A 
ATOM      4  C   UNL d   1      45.326 -18.492  41.694  0.00  0.00     0.092 A 
ATOM      5  C   UNL d   1      45.245 -18.452  40.877  0.00  0.00     0.025 A 
ATOM      6  C   UNL d   1      46.564 -18.970  40.714  0.00  0.00     0.025 A 
ENDROOT
BRANCH   2   7
ATOM      7  C   UNL d   1      45.778 -18.649  39.564  0.00  0.00     0.265 C 
ATOM      8  N   UNL d   1      45.461 -17.994  39.210  0.00  0.00    -0.269 N 
ATOM      9  C   UNL d   1      45.212 -17.349  39.672  0.00  0.00     0.102 A 
ATOM     10  C   UNL d   1      45.380 -17.955  38.392  0.00  0.00     0.102 A 
ATOM     11  C   UNL d   1      44.888 -16.677  39.320  0.00  0.00     0.100 A 
ATOM     12  N   UNL d   1      44.809 -16.645  38.493  0.00  0.00    -0.301 N 
ATOM     13  C   UNL d   1      45.059 -17.290  38.030  0.00  0.00     0.100 A 
ATOM     14  O   UNL d   1      46.027 -19.294  39.102  0.00  0.00    -0.267 OA
BRANCH  12  15
ATOM     15  C   UNL d   1      44.579 -16.244  37.798  0.00  0.00     0.064 A 
ATOM     16  C   UNL d   1      44.765 -15.989  37.036  0.00  0.00     0.020 A 
ATOM     17  C   UNL d   1      44.203 -15.562  36.597  0.00  0.00     0.031 A 
ATOM     18  C   UNL d   1      43.458 -15.400  36.937  0.00  0.00     0.140 A 
ATOM     19  C   UNL d   1      43.278 -15.658  37.698  0.00  0.00     0.031 A 
ATOM     20  F   UNL d   1      42.883 -14.968  36.499  0.00  0.00    -0.204 F 
ATOM     21  C   UNL d   1      43.846 -16.084  38.131  0.00  0.00     0.020 A 
ENDBRANCH  12  15
ENDBRANCH   2   7
BRANCH   1  22
ATOM     22  S   UNL d   1      46.104 -18.809  42.853  0.00  0.00     0.275 S 
ATOM     23  O   UNL d   1      46.618 -18.156  42.824  0.00  0.00    -0.199 OA
ATOM     24  O   UNL d   1      45.585 -19.465  42.868  0.00  0.00    -0.199 OA
BRANCH  22  25
ATOM     25  C   UNL d   1      46.185 -18.849  43.679  0.00  0.00     0.148 A 
ATOM     26  C   UNL d   1      46.329 -19.478  44.188  0.00  0.00     0.139 A 
ATOM     27  O   UNL d   1      46.354 -19.186  44.955  0.00  0.00    -0.210 OA
ATOM     28  C   UNL d   1      46.429 -20.267  43.957  0.00  0.00     0.030 C 
ATOM     29  N   UNL d   1      46.226 -18.370  44.929  0.00  0.00    -0.126 NA
ATOM     30  C   UNL d   1      46.120 -18.161  44.126  0.00  0.00     0.122 A 
ATOM     31  C   UNL d   1      45.976 -17.398  43.837  0.00  0.00     0.024 C 
ENDBRANCH  22  25
ENDBRANCH   1  22
TORSDOF 4
ENDMDL
