MODEL 1
REMARK VINA RESULT:      -8.5      0.000      0.000
REMARK  5 active torsions:
REMARK  status: ('A' for Active; 'I' for Inactive)
REMARK    1  A    between atoms: O_8  and  S_1 
REMARK    2  A    between atoms: C_9  and  S_1 
REMARK    3  A    between atoms: C_7  and  C_2 
REMARK    4  A    between atoms: C_20  and  C_7 
REMARK    5  A    between atoms: C_14  and  O_8 
ROOT
ATOM      1  C   UNL d   1      53.582  31.623  53.335  0.00  0.00     0.139 A 
ATOM      2  C   UNL d   1      53.488  32.935  53.530  0.00  0.00     0.064 A 
ATOM      3  C   UNL d   1      54.019  32.311  53.465  0.00  0.00     0.220 A 
ATOM      4  C   UNL d   1      52.723  32.639  53.441  0.00  0.00     0.105 A 
ATOM      5  O   UNL d   1      52.782  31.825  53.320  0.00  0.00    -0.304 OA
ATOM      6  C   UNL d   1      52.086  33.147  53.482  0.00  0.00     0.050 A 
ATOM      7  C   UNL d   1      53.606  33.739  53.660  0.00  0.00     0.007 A 
ATOM      8  C   UNL d   1      52.205  33.952  53.612  0.00  0.00     0.116 A 
ATOM      9  O   UNL d   1      54.840  32.354  53.519  0.00  0.00    -0.284 OA
ATOM     10  C   UNL d   1      52.962  34.244  53.701  0.00  0.00     0.026 A 
ENDROOT
BRANCH   8  11
ATOM     11  O   UNL d   1      51.559  34.460  53.653  0.00  0.00    -0.227 OA
BRANCH  11  12
ATOM     12  S   UNL d   1      50.991  34.456  53.055  0.00  0.00     0.304 S 
ATOM     13  O   UNL d   1      50.473  34.072  53.549  0.00  0.00    -0.193 OA
ATOM     14  O   UNL d   1      51.506  34.843  52.545  0.00  0.00    -0.193 OA
BRANCH  12  15
ATOM     15  C   UNL d   1      50.414  34.449  52.453  0.00  0.00     0.111 A 
ATOM     16  C   UNL d   1      50.649  34.377  51.663  0.00  0.00     0.014 A 
ATOM     17  C   UNL d   1      50.079  34.370  51.067  0.00  0.00     0.012 A 
ATOM     18  C   UNL d   1      49.274  34.436  51.260  0.00  0.00     0.058 A 
ATOM     19  C   UNL d   1      49.051  34.508  52.056  0.00  0.00     0.012 A 
ATOM     20 CL   UNL d   1      48.712  34.430  50.674  0.00  0.00    -0.082 Cl
ATOM     21  C   UNL d   1      49.624  34.514  52.649  0.00  0.00     0.014 A 
ENDBRANCH  12  15
ENDBRANCH  11  12
ENDBRANCH   8  11
BRANCH   1  22
ATOM     22  C   UNL d   1      53.887  30.863  53.236  0.00  0.00     0.029 C 
BRANCH  22  23
ATOM     23  C   UNL d   1      53.495  30.207  53.555  0.00  0.00     0.021 A 
ATOM     24  C   UNL d   1      52.904  29.843  53.119  0.00  0.00     0.099 A 
ATOM     25  N   UNL d   1      52.508  29.193  53.423  0.00  0.00    -0.242 NA
ATOM     26  C   UNL d   1      52.708  28.902  54.179  0.00  0.00     0.099 A 
ATOM     27  C   UNL d   1      53.305  29.273  54.614  0.00  0.00     0.021 A 
ATOM     28  C   UNL d   1      53.696  29.928  54.295  0.00  0.00     0.003 A 
ENDBRANCH  22  23
ENDBRANCH   1  22
TORSDOF 5
ENDMDL
MODEL 2
REMARK VINA RESULT:      -8.2      2.525      5.570
REMARK  5 active torsions:
REMARK  status: ('A' for Active; 'I' for Inactive)
REMARK    1  A    between atoms: O_8  and  S_1 
REMARK    2  A    between atoms: C_9  and  S_1 
REMARK    3  A    between atoms: C_7  and  C_2 
REMARK    4  A    between atoms: C_20  and  C_7 
REMARK    5  A    between atoms: C_14  and  O_8 
ROOT
ATOM      1  C   UNL d   1      49.175  34.690  52.165  0.00  0.00     0.139 A 
ATOM      2  C   UNL d   1      50.431  34.404  51.837  0.00  0.00     0.064 A 
ATOM      3  C   UNL d   1      49.690  34.581  51.529  0.00  0.00     0.220 A 
ATOM      4  C   UNL d   1      50.381  34.400  52.660  0.00  0.00     0.105 A 
ATOM      5  O   UNL d   1      49.600  34.578  52.863  0.00  0.00    -0.304 OA
ATOM      6  C   UNL d   1      51.044  34.238  53.105  0.00  0.00     0.050 A 
ATOM      7  C   UNL d   1      51.150  34.243  51.468  0.00  0.00     0.007 A 
ATOM      8  C   UNL d   1      51.762  34.078  52.736  0.00  0.00     0.116 A 
ATOM      9  O   UNL d   1      49.488  34.643  50.732  0.00  0.00    -0.284 OA
ATOM     10  C   UNL d   1      51.813  34.081  51.921  0.00  0.00     0.026 A 
ENDROOT
BRANCH   8  11
ATOM     11  O   UNL d   1      52.429  33.915  53.190  0.00  0.00    -0.227 OA
BRANCH  11  12
ATOM     12  S   UNL d   1      52.683  33.136  53.286  0.00  0.00     0.304 S 
ATOM     13  O   UNL d   1      53.199  33.227  52.664  0.00  0.00    -0.193 OA
ATOM     14  O   UNL d   1      52.166  33.032  53.915  0.00  0.00    -0.193 OA
BRANCH  12  15
ATOM     15  C   UNL d   1      52.942  32.349  53.380  0.00  0.00     0.111 A 
ATOM     16  C   UNL d   1      53.545  32.180  53.920  0.00  0.00     0.014 A 
ATOM     17  C   UNL d   1      53.803  31.402  54.013  0.00  0.00     0.012 A 
ATOM     18  C   UNL d   1      53.457  30.792  53.567  0.00  0.00     0.058 A 
ATOM     19  C   UNL d   1      52.853  30.975  53.029  0.00  0.00     0.012 A 
ATOM     20 CL   UNL d   1      53.710  30.026  53.659  0.00  0.00    -0.082 Cl
ATOM     21  C   UNL d   1      52.598  31.754  52.938  0.00  0.00     0.014 A 
ENDBRANCH  12  15
ENDBRANCH  11  12
ENDBRANCH   8  11
BRANCH   1  22
ATOM     22  C   UNL d   1      48.373  34.877  52.116  0.00  0.00     0.029 C 
BRANCH  22  23
ATOM     23  C   UNL d   1      48.056  35.492  52.570  0.00  0.00     0.021 A 
ATOM     24  C   UNL d   1      48.167  35.487  53.382  0.00  0.00     0.099 A 
ATOM     25  N   UNL d   1      47.858  36.090  53.844  0.00  0.00    -0.242 NA
ATOM     26  C   UNL d   1      47.430  36.709  53.485  0.00  0.00     0.099 A 
ATOM     27  C   UNL d   1      47.321  36.709  52.666  0.00  0.00     0.021 A 
ATOM     28  C   UNL d   1      47.638  36.095  52.212  0.00  0.00     0.003 A 
ENDBRANCH  22  23
ENDBRANCH   1  22
TORSDOF 5
ENDMDL
MODEL 3
REMARK VINA RESULT:      -7.7      2.373      5.189
REMARK  5 active torsions:
REMARK  status: ('A' for Active; 'I' for Inactive)
REMARK    1  A    between atoms: O_8  and  S_1 
REMARK    2  A    between atoms: C_9  and  S_1 
REMARK    3  A    between atoms: C_7  and  C_2 
REMARK    4  A    between atoms: C_20  and  C_7 
REMARK    5  A    between atoms: C_14  and  O_8 
ROOT
ATOM      1  C   UNL d   1      50.321  34.408  52.921  0.00  0.00     0.139 A 
ATOM      2  C   UNL d   1      51.604  34.219  53.214  0.00  0.00     0.064 A 
ATOM      3  C   UNL d   1      50.962  34.718  53.338  0.00  0.00     0.220 A 
ATOM      4  C   UNL d   1      51.366  33.601  52.723  0.00  0.00     0.105 A 
ATOM      5  O   UNL d   1      50.569  33.719  52.541  0.00  0.00    -0.304 OA
ATOM      6  C   UNL d   1      51.901  33.024  52.511  0.00  0.00     0.050 A 
ATOM      7  C   UNL d   1      52.379  34.251  53.489  0.00  0.00     0.007 A 
ATOM      8  C   UNL d   1      52.676  33.056  52.786  0.00  0.00     0.116 A 
ATOM      9  O   UNL d   1      50.951  35.404  53.794  0.00  0.00    -0.284 OA
ATOM     10  C   UNL d   1      52.912  33.668  53.273  0.00  0.00     0.026 A 
ENDROOT
BRANCH   8  11
ATOM     11  O   UNL d   1      53.213  32.471  52.570  0.00  0.00    -0.227 OA
BRANCH  11  12
ATOM     12  S   UNL d   1      53.221  31.750  52.971  0.00  0.00     0.304 S 
ATOM     13  O   UNL d   1      52.744  31.426  52.398  0.00  0.00    -0.193 OA
ATOM     14  O   UNL d   1      53.703  32.065  53.556  0.00  0.00    -0.193 OA
BRANCH  12  15
ATOM     15  C   UNL d   1      53.227  31.019  53.372  0.00  0.00     0.111 A 
ATOM     16  C   UNL d   1      52.846  30.366  53.036  0.00  0.00     0.014 A 
ATOM     17  C   UNL d   1      52.851  29.642  53.433  0.00  0.00     0.012 A 
ATOM     18  C   UNL d   1      53.237  29.572  54.165  0.00  0.00     0.058 A 
ATOM     19  C   UNL d   1      53.615  30.234  54.491  0.00  0.00     0.012 A 
ATOM     20 CL   UNL d   1      53.242  28.859  54.555  0.00  0.00    -0.082 Cl
ATOM     21  C   UNL d   1      53.608  30.955  54.092  0.00  0.00     0.014 A 
ENDBRANCH  12  15
ENDBRANCH  11  12
ENDBRANCH   8  11
BRANCH   1  22
ATOM     22  C   UNL d   1      49.561  34.728  52.887  0.00  0.00     0.029 C 
BRANCH  22  23
ATOM     23  C   UNL d   1      49.153  34.768  52.167  0.00  0.00     0.021 A 
ATOM     24  C   UNL d   1      48.447  35.182  52.131  0.00  0.00     0.099 A 
ATOM     25  N   UNL d   1      48.033  35.230  51.425  0.00  0.00    -0.242 NA
ATOM     26  C   UNL d   1      48.332  34.856  50.743  0.00  0.00     0.099 A 
ATOM     27  C   UNL d   1      49.045  34.439  50.785  0.00  0.00     0.021 A 
ATOM     28  C   UNL d   1      49.452  34.399  51.504  0.00  0.00     0.003 A 
ENDBRANCH  22  23
ENDBRANCH   1  22
TORSDOF 5
ENDMDL
MODEL 4
REMARK VINA RESULT:      -7.7      2.020      2.793
REMARK  5 active torsions:
REMARK  status: ('A' for Active; 'I' for Inactive)
REMARK    1  A    between atoms: O_8  and  S_1 
REMARK    2  A    between atoms: C_9  and  S_1 
REMARK    3  A    between atoms: C_7  and  C_2 
REMARK    4  A    between atoms: C_20  and  C_7 
REMARK    5  A    between atoms: C_14  and  O_8 
ROOT
ATOM      1  C   UNL d   1      52.960  32.643  53.461  0.00  0.00     0.139 A 
ATOM      2  C   UNL d   1      51.701  32.786  53.059  0.00  0.00     0.064 A 
ATOM      3  C   UNL d   1      52.236  32.254  53.386  0.00  0.00     0.220 A 
ATOM      4  C   UNL d   1      52.087  33.503  52.930  0.00  0.00     0.105 A 
ATOM      5  O   UNL d   1      52.869  33.414  53.180  0.00  0.00    -0.304 OA
ATOM      6  C   UNL d   1      51.679  34.130  52.607  0.00  0.00     0.050 A 
ATOM      7  C   UNL d   1      50.905  32.705  52.862  0.00  0.00     0.007 A 
ATOM      8  C   UNL d   1      50.883  34.049  52.410  0.00  0.00     0.116 A 
ATOM      9  O   UNL d   1      52.087  31.473  53.603  0.00  0.00    -0.284 OA
ATOM     10  C   UNL d   1      50.500  33.339  52.538  0.00  0.00     0.026 A 
ENDROOT
BRANCH   8  11
ATOM     11  O   UNL d   1      50.475  34.685  52.085  0.00  0.00    -0.227 OA
BRANCH  11  12
ATOM     12  S   UNL d   1      49.799  34.976  52.457  0.00  0.00     0.304 S 
ATOM     13  O   UNL d   1      49.335  34.637  51.882  0.00  0.00    -0.193 OA
ATOM     14  O   UNL d   1      50.256  35.324  53.044  0.00  0.00    -0.193 OA
BRANCH  12  15
ATOM     15  C   UNL d   1      49.113  35.269  52.830  0.00  0.00     0.111 A 
ATOM     16  C   UNL d   1      48.407  35.322  52.402  0.00  0.00     0.014 A 
ATOM     17  C   UNL d   1      47.728  35.611  52.771  0.00  0.00     0.012 A 
ATOM     18  C   UNL d   1      47.754  35.847  53.567  0.00  0.00     0.058 A 
ATOM     19  C   UNL d   1      48.468  35.789  53.985  0.00  0.00     0.012 A 
ATOM     20 CL   UNL d   1      47.086  36.132  53.930  0.00  0.00    -0.082 Cl
ATOM     21  C   UNL d   1      49.145  35.499  53.613  0.00  0.00     0.014 A 
ENDBRANCH  12  15
ENDBRANCH  11  12
ENDBRANCH   8  11
BRANCH   1  22
ATOM     22  C   UNL d   1      53.657  32.322  53.763  0.00  0.00     0.029 C 
BRANCH  22  23
ATOM     23  C   UNL d   1      54.158  32.777  54.241  0.00  0.00     0.021 A 
ATOM     24  C   UNL d   1      54.802  33.153  53.900  0.00  0.00     0.099 A 
ATOM     25  N   UNL d   1      55.306  33.607  54.361  0.00  0.00    -0.242 NA
ATOM     26  C   UNL d   1      55.162  33.685  55.179  0.00  0.00     0.099 A 
ATOM     27  C   UNL d   1      54.511  33.303  55.517  0.00  0.00     0.021 A 
ATOM     28  C   UNL d   1      54.011  32.849  55.040  0.00  0.00     0.003 A 
ENDBRANCH  22  23
ENDBRANCH   1  22
TORSDOF 5
ENDMDL
MODEL 5
REMARK VINA RESULT:      -7.6      3.041      6.312
REMARK  5 active torsions:
REMARK  status: ('A' for Active; 'I' for Inactive)
REMARK    1  A    between atoms: O_8  and  S_1 
REMARK    2  A    between atoms: C_9  and  S_1 
REMARK    3  A    between atoms: C_7  and  C_2 
REMARK    4  A    between atoms: C_20  and  C_7 
REMARK    5  A    between atoms: C_14  and  O_8 
ROOT
ATOM      1  C   UNL d   1      47.557  35.970  52.299  0.00  0.00     0.139 A 
ATOM      2  C   UNL d   1      48.633  35.546  52.956  0.00  0.00     0.064 A 
ATOM      3  C   UNL d   1      47.980  36.043  53.005  0.00  0.00     0.220 A 
ATOM      4  C   UNL d   1      48.619  35.164  52.225  0.00  0.00     0.105 A 
ATOM      5  O   UNL d   1      47.951  35.428  51.818  0.00  0.00    -0.304 OA
ATOM      6  C   UNL d   1      49.210  34.636  52.034  0.00  0.00     0.050 A 
ATOM      7  C   UNL d   1      49.242  35.393  53.490  0.00  0.00     0.007 A 
ATOM      8  C   UNL d   1      49.819  34.483  52.568  0.00  0.00     0.116 A 
ATOM      9  O   UNL d   1      47.776  36.530  53.638  0.00  0.00    -0.284 OA
ATOM     10  C   UNL d   1      49.832  34.861  53.292  0.00  0.00     0.026 A 
ENDROOT
BRANCH   8  11
ATOM     11  O   UNL d   1      50.413  33.949  52.370  0.00  0.00    -0.227 OA
BRANCH  11  12
ATOM     12  S   UNL d   1      51.134  33.968  52.770  0.00  0.00     0.304 S 
ATOM     13  O   UNL d   1      50.836  33.464  53.333  0.00  0.00    -0.193 OA
ATOM     14  O   UNL d   1      51.447  34.477  52.207  0.00  0.00    -0.193 OA
BRANCH  12  15
ATOM     15  C   UNL d   1      51.862  33.983  53.177  0.00  0.00     0.111 A 
ATOM     16  C   UNL d   1      52.113  33.312  53.589  0.00  0.00     0.014 A 
ATOM     17  C   UNL d   1      52.833  33.327  53.992  0.00  0.00     0.012 A 
ATOM     18  C   UNL d   1      53.302  34.013  53.982  0.00  0.00     0.058 A 
ATOM     19  C   UNL d   1      53.038  34.680  53.565  0.00  0.00     0.012 A 
ATOM     20 CL   UNL d   1      54.010  34.028  54.379  0.00  0.00    -0.082 Cl
ATOM     21  C   UNL d   1      52.318  34.661  53.163  0.00  0.00     0.014 A 
ENDBRANCH  12  15
ENDBRANCH  11  12
ENDBRANCH   8  11
BRANCH   1  22
ATOM     22  C   UNL d   1      46.861  36.367  52.105  0.00  0.00     0.029 C 
BRANCH  22  23
ATOM     23  C   UNL d   1      46.188  35.947  51.868  0.00  0.00     0.021 A 
ATOM     24  C   UNL d   1      46.085  35.771  51.074  0.00  0.00     0.099 A 
ATOM     25  N   UNL d   1      45.424  35.356  50.827  0.00  0.00    -0.242 NA
ATOM     26  C   UNL d   1      44.854  35.111  51.385  0.00  0.00     0.099 A 
ATOM     27  C   UNL d   1      44.963  35.291  52.185  0.00  0.00     0.021 A 
ATOM     28  C   UNL d   1      45.635  35.711  52.420  0.00  0.00     0.003 A 
ENDBRANCH  22  23
ENDBRANCH   1  22
TORSDOF 5
ENDMDL
MODEL 6
REMARK VINA RESULT:      -6.1      2.778      5.324
REMARK  5 active torsions:
REMARK  status: ('A' for Active; 'I' for Inactive)
REMARK    1  A    between atoms: O_8  and  S_1 
REMARK    2  A    between atoms: C_9  and  S_1 
REMARK    3  A    between atoms: C_7  and  C_2 
REMARK    4  A    between atoms: C_20  and  C_7 
REMARK    5  A    between atoms: C_14  and  O_8 
ROOT
ATOM      1  C   UNL d   1      52.164  34.055  53.166  0.00  0.00     0.139 A 
ATOM      2  C   UNL d   1      51.783  32.794  52.981  0.00  0.00     0.064 A 
ATOM      3  C   UNL d   1      51.507  33.562  53.083  0.00  0.00     0.220 A 
ATOM      4  C   UNL d   1      52.607  32.806  53.001  0.00  0.00     0.105 A 
ATOM      5  O   UNL d   1      52.843  33.589  53.116  0.00  0.00    -0.304 OA
ATOM      6  C   UNL d   1      53.024  32.111  52.912  0.00  0.00     0.050 A 
ATOM      7  C   UNL d   1      51.383  32.082  52.873  0.00  0.00     0.007 A 
ATOM      8  C   UNL d   1      52.624  31.399  52.804  0.00  0.00     0.116 A 
ATOM      9  O   UNL d   1      50.720  33.806  53.100  0.00  0.00    -0.284 OA
ATOM     10  C   UNL d   1      51.808  31.387  52.784  0.00  0.00     0.026 A 
ENDROOT
BRANCH   8  11
ATOM     11  O   UNL d   1      53.049  30.700  52.715  0.00  0.00    -0.227 OA
BRANCH  11  12
ATOM     12  S   UNL d   1      53.142  30.189  53.356  0.00  0.00     0.304 S 
ATOM     13  O   UNL d   1      52.476  29.782  53.127  0.00  0.00    -0.193 OA
ATOM     14  O   UNL d   1      53.816  30.592  53.596  0.00  0.00    -0.193 OA
BRANCH  12  15
ATOM     15  C   UNL d   1      53.232  29.669  54.002  0.00  0.00     0.111 A 
ATOM     16  C   UNL d   1      53.193  29.967  54.773  0.00  0.00     0.014 A 
ATOM     17  C   UNL d   1      53.282  29.454  55.413  0.00  0.00     0.012 A 
ATOM     18  C   UNL d   1      53.409  28.643  55.282  0.00  0.00     0.058 A 
ATOM     19  C   UNL d   1      53.446  28.358  54.504  0.00  0.00     0.012 A 
ATOM     20 CL   UNL d   1      53.497  28.138  55.912  0.00  0.00    -0.082 Cl
ATOM     21  C   UNL d   1      53.356  28.874  53.867  0.00  0.00     0.014 A 
ENDBRANCH  12  15
ENDBRANCH  11  12
ENDBRANCH   8  11
BRANCH   1  22
ATOM     22  C   UNL d   1      52.150  34.872  53.281  0.00  0.00     0.029 C 
BRANCH  22  23
ATOM     23  C   UNL d   1      52.639  35.226  53.846  0.00  0.00     0.021 A 
ATOM     24  C   UNL d   1      53.362  35.533  53.612  0.00  0.00     0.099 A 
ATOM     25  N   UNL d   1      53.857  35.887  54.162  0.00  0.00    -0.242 NA
ATOM     26  C   UNL d   1      53.623  35.934  54.961  0.00  0.00     0.099 A 
ATOM     27  C   UNL d   1      52.893  35.623  55.191  0.00  0.00     0.021 A 
ATOM     28  C   UNL d   1      52.404  35.269  54.626  0.00  0.00     0.003 A 
ENDBRANCH  22  23
ENDBRANCH   1  22
TORSDOF 5
ENDMDL
