MODEL 1
REMARK VINA RESULT:      -8.0      0.000      0.000
REMARK  3 active torsions:
REMARK  status: ('A' for Active; 'I' for Inactive)
REMARK    1  A    between atoms: C_8  and  C_1 
REMARK    2  A    between atoms: N_5  and  C_2 
REMARK       I    between atoms: C_7  and  N_5 
REMARK    3  A    between atoms: C_9  and  C_7 
ROOT
ATOM      1  C   UNL d   1     -45.274  11.930  23.095  0.00  0.00     0.229 A 
ATOM      2  C   UNL d   1     -46.160  12.924  23.033  0.00  0.00     0.297 A 
ATOM      3  O   UNL d   1     -46.007  12.191  23.374  0.00  0.00    -0.252 OA
ATOM      4  N   UNL d   1     -44.984  12.501  22.586  0.00  0.00    -0.117 NA
ATOM      5  N   UNL d   1     -45.531  13.115  22.548  0.00  0.00    -0.101 NA
ENDROOT
BRANCH   2   6
ATOM      6  N   UNL d   1     -46.834  13.378  23.164  0.00  0.00    -0.165 NA
ATOM      7  C   UNL d   1     -47.397  13.458  22.580  0.00  0.00     0.282 C 
ATOM      8  O   UNL d   1     -47.302  13.085  21.846  0.00  0.00    -0.265 OA
BRANCH   7   9
ATOM      9  C   UNL d   1     -48.071  13.912  22.712  0.00  0.00     0.058 A 
ATOM     10  C   UNL d   1     -48.040  14.726  22.591  0.00  0.00     0.005 A 
ATOM     11  C   UNL d   1     -48.713  15.191  22.722  0.00  0.00     0.000 A 
ATOM     12  C   UNL d   1     -49.415  14.833  22.974  0.00  0.00     0.000 A 
ATOM     13  C   UNL d   1     -49.439  14.016  23.093  0.00  0.00     0.000 A 
ATOM     14  C   UNL d   1     -50.093  15.279  23.109  0.00  0.00     0.000 C 
ATOM     15  C   UNL d   1     -48.768  13.553  22.963  0.00  0.00     0.005 A 
ENDBRANCH   7   9
ENDBRANCH   2   6
BRANCH   1  16
ATOM     16  C   UNL d   1     -44.907  11.216  23.298  0.00  0.00     0.143 A 
ATOM     17  O   UNL d   1     -44.101  11.067  23.295  0.00  0.00    -0.301 OA
ATOM     18  C   UNL d   1     -43.985  10.290  23.535  0.00  0.00     0.123 A 
ATOM     19  C   UNL d   1     -44.725   9.954  23.689  0.00  0.00     0.029 A 
ATOM     20  C   UNL d   1     -45.296  10.525  23.543  0.00  0.00     0.030 A 
ENDBRANCH   1  16
TORSDOF 3
ENDMDL
MODEL 2
REMARK VINA RESULT:      -7.5      1.323      1.688
REMARK  3 active torsions:
REMARK  status: ('A' for Active; 'I' for Inactive)
REMARK    1  A    between atoms: C_8  and  C_1 
REMARK    2  A    between atoms: N_5  and  C_2 
REMARK       I    between atoms: C_7  and  N_5 
REMARK    3  A    between atoms: C_9  and  C_7 
ROOT
ATOM      1  C   UNL d   1     -45.143  12.779  22.560  0.00  0.00     0.229 A 
ATOM      2  C   UNL d   1     -46.294  13.277  23.009  0.00  0.00     0.297 A 
ATOM      3  O   UNL d   1     -45.673  13.408  22.486  0.00  0.00    -0.252 OA
ATOM      4  N   UNL d   1     -45.440  12.268  23.125  0.00  0.00    -0.117 NA
ATOM      5  N   UNL d   1     -46.151  12.576  23.403  0.00  0.00    -0.101 NA
ENDROOT
BRANCH   2   6
ATOM      6  N   UNL d   1     -46.944  13.773  23.111  0.00  0.00    -0.165 NA
ATOM      7  C   UNL d   1     -47.634  13.637  22.699  0.00  0.00     0.282 C 
ATOM      8  O   UNL d   1     -47.695  13.001  22.173  0.00  0.00    -0.265 OA
BRANCH   7   9
ATOM      9  C   UNL d   1     -48.282  14.134  22.802  0.00  0.00     0.058 A 
ATOM     10  C   UNL d   1     -48.947  13.855  23.199  0.00  0.00     0.005 A 
ATOM     11  C   UNL d   1     -49.605  14.347  23.307  0.00  0.00     0.000 A 
ATOM     12  C   UNL d   1     -49.589  15.121  23.013  0.00  0.00     0.000 A 
ATOM     13  C   UNL d   1     -48.919  15.395  22.615  0.00  0.00     0.000 A 
ATOM     14  C   UNL d   1     -50.233  15.624  23.111  0.00  0.00     0.000 C 
ATOM     15  C   UNL d   1     -48.264  14.903  22.508  0.00  0.00     0.005 A 
ENDBRANCH   7   9
ENDBRANCH   2   6
BRANCH   1  16
ATOM     16  C   UNL d   1     -44.439  12.690  22.134  0.00  0.00     0.143 A 
ATOM     17  O   UNL d   1     -43.857  12.128  22.270  0.00  0.00    -0.301 OA
ATOM     18  C   UNL d   1     -43.259  12.242  21.718  0.00  0.00     0.123 A 
ATOM     19  C   UNL d   1     -43.471  12.880  21.235  0.00  0.00     0.029 A 
ATOM     20  C   UNL d   1     -44.200  13.158  21.491  0.00  0.00     0.030 A 
ENDBRANCH   1  16
TORSDOF 3
ENDMDL
MODEL 3
REMARK VINA RESULT:      -7.2      1.419      4.946
REMARK  3 active torsions:
REMARK  status: ('A' for Active; 'I' for Inactive)
REMARK    1  A    between atoms: C_8  and  C_1 
REMARK    2  A    between atoms: N_5  and  C_2 
REMARK       I    between atoms: C_7  and  N_5 
REMARK    3  A    between atoms: C_9  and  C_7 
ROOT
ATOM      1  C   UNL d   1     -48.937  14.865  22.928  0.00  0.00     0.229 A 
ATOM      2  C   UNL d   1     -47.800  14.174  23.017  0.00  0.00     0.297 A 
ATOM      3  O   UNL d   1     -48.586  14.195  23.262  0.00  0.00    -0.252 OA
ATOM      4  N   UNL d   1     -48.368  15.249  22.484  0.00  0.00    -0.117 NA
ATOM      5  N   UNL d   1     -47.666  14.822  22.539  0.00  0.00    -0.101 NA
ENDROOT
BRANCH   2   6
ATOM      6  N   UNL d   1     -47.252  13.595  23.225  0.00  0.00    -0.165 NA
ATOM      7  C   UNL d   1     -47.256  12.872  22.849  0.00  0.00     0.282 C 
ATOM      8  O   UNL d   1     -47.807  12.707  22.253  0.00  0.00    -0.265 OA
BRANCH   7   9
ATOM      9  C   UNL d   1     -46.708  12.294  23.057  0.00  0.00     0.058 A 
ATOM     10  C   UNL d   1     -45.921  12.382  22.831  0.00  0.00     0.005 A 
ATOM     11  C   UNL d   1     -45.362  11.805  23.036  0.00  0.00     0.000 A 
ATOM     12  C   UNL d   1     -45.600  11.141  23.469  0.00  0.00     0.000 A 
ATOM     13  C   UNL d   1     -46.391  11.059  23.693  0.00  0.00     0.000 A 
ATOM     14  C   UNL d   1     -45.060  10.558  23.682  0.00  0.00     0.000 C 
ATOM     15  C   UNL d   1     -46.947  11.635  23.487  0.00  0.00     0.005 A 
ENDBRANCH   7   9
ENDBRANCH   2   6
BRANCH   1  16
ATOM     16  C   UNL d   1     -49.724  15.097  23.031  0.00  0.00     0.143 A 
ATOM     17  O   UNL d   1     -50.362  14.868  22.569  0.00  0.00    -0.301 OA
ATOM     18  C   UNL d   1     -51.037  15.229  22.869  0.00  0.00     0.123 A 
ATOM     19  C   UNL d   1     -50.816  15.686  23.523  0.00  0.00     0.029 A 
ATOM     20  C   UNL d   1     -50.006  15.606  23.624  0.00  0.00     0.030 A 
ENDBRANCH   1  16
TORSDOF 3
ENDMDL
MODEL 4
REMARK VINA RESULT:      -6.5      7.600      8.716
REMARK  3 active torsions:
REMARK  status: ('A' for Active; 'I' for Inactive)
REMARK    1  A    between atoms: C_8  and  C_1 
REMARK    2  A    between atoms: N_5  and  C_2 
REMARK       I    between atoms: C_7  and  N_5 
REMARK    3  A    between atoms: C_9  and  C_7 
ROOT
ATOM      1  C   UNL d   1     -40.665  14.763  17.971  0.00  0.00     0.229 A 
ATOM      2  C   UNL d   1     -40.100  14.424  19.130  0.00  0.00     0.297 A 
ATOM      3  O   UNL d   1     -40.242  15.053  18.620  0.00  0.00    -0.252 OA
ATOM      4  N   UNL d   1     -40.779  13.962  18.088  0.00  0.00    -0.117 NA
ATOM      5  N   UNL d   1     -40.431  13.752  18.804  0.00  0.00    -0.101 NA
ENDROOT
BRANCH   2   6
ATOM      6  N   UNL d   1     -39.694  14.473  19.845  0.00  0.00    -0.165 NA
ATOM      7  C   UNL d   1     -40.103  14.513  20.549  0.00  0.00     0.282 C 
ATOM      8  O   UNL d   1     -40.931  14.505  20.559  0.00  0.00    -0.265 OA
BRANCH   7   9
ATOM      9  C   UNL d   1     -39.696  14.563  21.263  0.00  0.00     0.058 A 
ATOM     10  C   UNL d   1     -39.511  15.303  21.572  0.00  0.00     0.005 A 
ATOM     11  C   UNL d   1     -39.102  15.363  22.290  0.00  0.00     0.000 A 
ATOM     12  C   UNL d   1     -38.880  14.675  22.694  0.00  0.00     0.000 A 
ATOM     13  C   UNL d   1     -39.069  13.935  22.378  0.00  0.00     0.000 A 
ATOM     14  C   UNL d   1     -38.473  14.715  23.408  0.00  0.00     0.000 C 
ATOM     15  C   UNL d   1     -39.477  13.877  21.662  0.00  0.00     0.005 A 
ENDBRANCH   7   9
ENDBRANCH   2   6
BRANCH   1  16
ATOM     16  C   UNL d   1     -40.922  15.211  17.325  0.00  0.00     0.143 A 
ATOM     17  O   UNL d   1     -41.681  15.499  17.207  0.00  0.00    -0.301 OA
ATOM     18  C   UNL d   1     -41.688  15.912  16.496  0.00  0.00     0.123 A 
ATOM     19  C   UNL d   1     -40.928  15.879  16.171  0.00  0.00     0.029 A 
ATOM     20  C   UNL d   1     -40.454  15.446  16.681  0.00  0.00     0.030 A 
ENDBRANCH   1  16
TORSDOF 3
ENDMDL
MODEL 5
REMARK VINA RESULT:      -6.2      1.669      4.894
REMARK  3 active torsions:
REMARK  status: ('A' for Active; 'I' for Inactive)
REMARK    1  A    between atoms: C_8  and  C_1 
REMARK    2  A    between atoms: N_5  and  C_2 
REMARK       I    between atoms: C_7  and  N_5 
REMARK    3  A    between atoms: C_9  and  C_7 
ROOT
ATOM      1  C   UNL d   1     -49.355  13.712  23.083  0.00  0.00     0.229 A 
ATOM      2  C   UNL d   1     -48.202  13.111  22.790  0.00  0.00     0.297 A 
ATOM      3  O   UNL d   1     -48.632  13.806  22.693  0.00  0.00    -0.252 OA
ATOM      4  N   UNL d   1     -49.363  12.965  23.415  0.00  0.00    -0.117 NA
ATOM      5  N   UNL d   1     -48.652  12.594  23.234  0.00  0.00    -0.101 NA
ENDROOT
BRANCH   2   6
ATOM      6  N   UNL d   1     -47.449  12.972  22.487  0.00  0.00    -0.165 NA
ATOM      7  C   UNL d   1     -46.789  13.141  22.934  0.00  0.00     0.282 C 
ATOM      8  O   UNL d   1     -46.862  13.454  23.697  0.00  0.00    -0.265 OA
BRANCH   7   9
ATOM      9  C   UNL d   1     -46.036  13.001  22.631  0.00  0.00     0.058 A 
ATOM     10  C   UNL d   1     -45.679  13.572  22.156  0.00  0.00     0.005 A 
ATOM     11  C   UNL d   1     -44.922  13.440  21.847  0.00  0.00     0.000 A 
ATOM     12  C   UNL d   1     -44.527  12.733  22.016  0.00  0.00     0.000 A 
ATOM     13  C   UNL d   1     -44.891  12.164  22.493  0.00  0.00     0.000 A 
ATOM     14  C   UNL d   1     -43.775  12.585  21.718  0.00  0.00     0.000 C 
ATOM     15  C   UNL d   1     -45.646  12.297  22.801  0.00  0.00     0.005 A 
ENDBRANCH   7   9
ENDBRANCH   2   6
BRANCH   1  16
ATOM     16  C   UNL d   1     -49.957  14.279  23.124  0.00  0.00     0.143 A 
ATOM     17  O   UNL d   1     -50.014  14.885  23.674  0.00  0.00    -0.301 OA
ATOM     18  C   UNL d   1     -50.696  15.314  23.509  0.00  0.00     0.123 A 
ATOM     19  C   UNL d   1     -51.064  14.972  22.852  0.00  0.00     0.029 A 
ATOM     20  C   UNL d   1     -50.609  14.332  22.613  0.00  0.00     0.030 A 
ENDBRANCH   1  16
TORSDOF 3
ENDMDL
MODEL 6
REMARK VINA RESULT:      -5.5      2.505      3.076
REMARK  3 active torsions:
REMARK  status: ('A' for Active; 'I' for Inactive)
REMARK    1  A    between atoms: C_8  and  C_1 
REMARK    2  A    between atoms: N_5  and  C_2 
REMARK       I    between atoms: C_7  and  N_5 
REMARK    3  A    between atoms: C_9  and  C_7 
ROOT
ATOM      1  C   UNL d   1     -43.100  13.057  21.547  0.00  0.00     0.229 A 
ATOM      2  C   UNL d   1     -44.411  13.042  21.791  0.00  0.00     0.297 A 
ATOM      3  O   UNL d   1     -43.779  13.528  21.584  0.00  0.00    -0.252 OA
ATOM      4  N   UNL d   1     -43.319  12.291  21.730  0.00  0.00    -0.117 NA
ATOM      5  N   UNL d   1     -44.128  12.282  21.880  0.00  0.00    -0.101 NA
ENDROOT
BRANCH   2   6
ATOM      6  N   UNL d   1     -45.190  13.292  21.888  0.00  0.00    -0.165 NA
ATOM      7  C   UNL d   1     -45.621  13.052  22.537  0.00  0.00     0.282 C 
ATOM      8  O   UNL d   1     -45.285  12.556  23.109  0.00  0.00    -0.265 OA
BRANCH   7   9
ATOM      9  C   UNL d   1     -46.399  13.302  22.633  0.00  0.00     0.058 A 
ATOM     10  C   UNL d   1     -47.014  12.769  22.504  0.00  0.00     0.005 A 
ATOM     11  C   UNL d   1     -47.801  13.011  22.599  0.00  0.00     0.000 A 
ATOM     12  C   UNL d   1     -47.965  13.790  22.822  0.00  0.00     0.000 A 
ATOM     13  C   UNL d   1     -47.344  14.320  22.950  0.00  0.00     0.000 A 
ATOM     14  C   UNL d   1     -48.740  14.049  22.921  0.00  0.00     0.000 C 
ATOM     15  C   UNL d   1     -46.560  14.078  22.855  0.00  0.00     0.005 A 
ENDBRANCH   7   9
ENDBRANCH   2   6
BRANCH   1  16
ATOM     16  C   UNL d   1     -42.340  13.323  21.357  0.00  0.00     0.143 A 
ATOM     17  O   UNL d   1     -41.671  13.252  21.826  0.00  0.00    -0.301 OA
ATOM     18  C   UNL d   1     -41.040  13.591  21.423  0.00  0.00     0.123 A 
ATOM     19  C   UNL d   1     -41.320  13.875  20.698  0.00  0.00     0.029 A 
ATOM     20  C   UNL d   1     -42.123  13.710  20.656  0.00  0.00     0.030 A 
ENDBRANCH   1  16
TORSDOF 3
ENDMDL
MODEL 7
REMARK VINA RESULT:      -5.4      8.079      9.437
REMARK  3 active torsions:
REMARK  status: ('A' for Active; 'I' for Inactive)
REMARK    1  A    between atoms: C_8  and  C_1 
REMARK    2  A    between atoms: N_5  and  C_2 
REMARK       I    between atoms: C_7  and  N_5 
REMARK    3  A    between atoms: C_9  and  C_7 
ROOT
ATOM      1  C   UNL d   1     -39.354  14.477  20.847  0.00  0.00     0.229 A 
ATOM      2  C   UNL d   1     -39.226  14.538  19.522  0.00  0.00     0.297 A 
ATOM      3  O   UNL d   1     -38.834  14.341  20.218  0.00  0.00    -0.252 OA
ATOM      4  N   UNL d   1     -40.056  14.755  20.534  0.00  0.00    -0.117 NA
ATOM      5  N   UNL d   1     -39.977  14.792  19.715  0.00  0.00    -0.101 NA
ENDROOT
BRANCH   2   6
ATOM      6  N   UNL d   1     -38.905  14.483  18.765  0.00  0.00    -0.165 NA
ATOM      7  C   UNL d   1     -39.249  13.999  18.207  0.00  0.00     0.282 C 
ATOM      8  O   UNL d   1     -39.923  13.554  18.389  0.00  0.00    -0.265 OA
BRANCH   7   9
ATOM      9  C   UNL d   1     -38.928  13.945  17.450  0.00  0.00     0.058 A 
ATOM     10  C   UNL d   1     -39.126  14.511  16.886  0.00  0.00     0.005 A 
ATOM     11  C   UNL d   1     -38.808  14.465  16.122  0.00  0.00     0.000 A 
ATOM     12  C   UNL d   1     -38.291  13.848  15.930  0.00  0.00     0.000 A 
ATOM     13  C   UNL d   1     -38.096  13.283  16.501  0.00  0.00     0.000 A 
ATOM     14  C   UNL d   1     -37.966  13.786  15.177  0.00  0.00     0.000 C 
ATOM     15  C   UNL d   1     -38.414  13.330  17.262  0.00  0.00     0.005 A 
ENDBRANCH   7   9
ENDBRANCH   2   6
BRANCH   1  16
ATOM     16  C   UNL d   1     -39.184  14.352  21.647  0.00  0.00     0.143 A 
ATOM     17  O   UNL d   1     -39.046  14.933  22.210  0.00  0.00    -0.301 OA
ATOM     18  C   UNL d   1     -38.900  14.561  22.929  0.00  0.00     0.123 A 
ATOM     19  C   UNL d   1     -38.948  13.743  22.811  0.00  0.00     0.029 A 
ATOM     20  C   UNL d   1     -39.123  13.613  22.020  0.00  0.00     0.030 A 
ENDBRANCH   1  16
TORSDOF 3
ENDMDL
MODEL 8
REMARK VINA RESULT:      -5.3      7.971      8.347
REMARK  3 active torsions:
REMARK  status: ('A' for Active; 'I' for Inactive)
REMARK    1  A    between atoms: C_8  and  C_1 
REMARK    2  A    between atoms: N_5  and  C_2 
REMARK       I    between atoms: C_7  and  N_5 
REMARK    3  A    between atoms: C_9  and  C_7 
ROOT
ATOM      1  C   UNL d   1     -38.657  14.189  21.566  0.00  0.00     0.229 A 
ATOM      2  C   UNL d   1     -38.974  14.359  20.282  0.00  0.00     0.297 A 
ATOM      3  O   UNL d   1     -39.023  14.700  21.029  0.00  0.00    -0.252 OA
ATOM      4  N   UNL d   1     -38.387  13.541  21.146  0.00  0.00    -0.117 NA
ATOM      5  N   UNL d   1     -38.582  13.646  20.354  0.00  0.00    -0.101 NA
ENDROOT
BRANCH   2   6
ATOM      6  N   UNL d   1     -39.271  14.688  19.588  0.00  0.00    -0.165 NA
ATOM      7  C   UNL d   1     -40.025  14.507  19.337  0.00  0.00     0.282 C 
ATOM      8  O   UNL d   1     -40.504  13.990  19.772  0.00  0.00    -0.265 OA
BRANCH   7   9
ATOM      9  C   UNL d   1     -40.322  14.837  18.643  0.00  0.00     0.058 A 
ATOM     10  C   UNL d   1     -40.687  15.574  18.670  0.00  0.00     0.005 A 
ATOM     11  C   UNL d   1     -40.988  15.914  17.977  0.00  0.00     0.000 A 
ATOM     12  C   UNL d   1     -40.920  15.509  17.259  0.00  0.00     0.000 A 
ATOM     13  C   UNL d   1     -40.552  14.769  17.239  0.00  0.00     0.000 A 
ATOM     14  C   UNL d   1     -41.213  15.830  16.561  0.00  0.00     0.000 C 
ATOM     15  C   UNL d   1     -40.252  14.431  17.931  0.00  0.00     0.005 A 
ENDBRANCH   7   9
ENDBRANCH   2   6
BRANCH   1  16
ATOM     16  C   UNL d   1     -38.582  14.318  22.380  0.00  0.00     0.143 A 
ATOM     17  O   UNL d   1     -38.380  15.026  22.741  0.00  0.00    -0.301 OA
ATOM     18  C   UNL d   1     -38.370  14.903  23.554  0.00  0.00     0.123 A 
ATOM     19  C   UNL d   1     -38.569  14.112  23.698  0.00  0.00     0.029 A 
ATOM     20  C   UNL d   1     -38.700  13.750  22.974  0.00  0.00     0.030 A 
ENDBRANCH   1  16
TORSDOF 3
ENDMDL
MODEL 9
REMARK VINA RESULT:      -5.3      8.263      9.364
REMARK  3 active torsions:
REMARK  status: ('A' for Active; 'I' for Inactive)
REMARK    1  A    between atoms: C_8  and  C_1 
REMARK    2  A    between atoms: N_5  and  C_2 
REMARK       I    between atoms: C_7  and  N_5 
REMARK    3  A    between atoms: C_9  and  C_7 
ROOT
ATOM      1  C   UNL d   1     -39.220  14.017  17.552  0.00  0.00     0.229 A 
ATOM      2  C   UNL d   1     -39.569  14.385  18.785  0.00  0.00     0.297 A 
ATOM      3  O   UNL d   1     -38.987  14.464  18.208  0.00  0.00    -0.252 OA
ATOM      4  N   UNL d   1     -39.938  13.670  17.730  0.00  0.00    -0.117 NA
ATOM      5  N   UNL d   1     -40.153  13.896  18.492  0.00  0.00    -0.101 NA
ENDROOT
BRANCH   2   6
ATOM      6  N   UNL d   1     -39.553  14.741  19.527  0.00  0.00    -0.165 NA
ATOM      7  C   UNL d   1     -39.090  14.432  20.123  0.00  0.00     0.282 C 
ATOM      8  O   UNL d   1     -38.629  13.757  19.993  0.00  0.00    -0.265 OA
BRANCH   7   9
ATOM      9  C   UNL d   1     -39.076  14.789  20.864  0.00  0.00     0.058 A 
ATOM     10  C   UNL d   1     -39.314  14.359  21.525  0.00  0.00     0.005 A 
ATOM     11  C   UNL d   1     -39.302  14.710  22.276  0.00  0.00     0.000 A 
ATOM     12  C   UNL d   1     -39.051  15.494  22.357  0.00  0.00     0.000 A 
ATOM     13  C   UNL d   1     -38.813  15.921  21.690  0.00  0.00     0.000 A 
ATOM     14  C   UNL d   1     -39.033  15.859  23.094  0.00  0.00     0.000 C 
ATOM     15  C   UNL d   1     -38.825  15.569  20.942  0.00  0.00     0.005 A 
ENDBRANCH   7   9
ENDBRANCH   2   6
BRANCH   1  16
ATOM     16  C   UNL d   1     -38.795  13.942  16.846  0.00  0.00     0.143 A 
ATOM     17  O   UNL d   1     -38.323  13.308  16.630  0.00  0.00    -0.301 OA
ATOM     18  C   UNL d   1     -38.008  13.466  15.887  0.00  0.00     0.123 A 
ATOM     19  C   UNL d   1     -38.287  14.205  15.641  0.00  0.00     0.029 A 
ATOM     20  C   UNL d   1     -38.773  14.500  16.232  0.00  0.00     0.030 A 
ENDBRANCH   1  16
TORSDOF 3
ENDMDL
