MODEL 1
REMARK VINA RESULT:      -1.7      0.000      0.000
REMARK  8 active torsions:
REMARK  status: ('A' for Active; 'I' for Inactive)
REMARK    1  A    between atoms: C_5  and  C_1 
REMARK    2  A    between atoms: N_6  and  C_2 
REMARK    3  A    between atoms: C_7  and  C_5 
REMARK    4  A    between atoms: C_8  and  C_5 
REMARK    5  A    between atoms: O_12  and  C_7 
REMARK    6  A    between atoms: C_14  and  O_12 
REMARK    7  A    between atoms: C_19  and  C_14 
REMARK    8  A    between atoms: C_20  and  C_19 
ROOT
ATOM      1  C   UNL d   1      58.098  -0.247  30.615  0.00  0.00     0.122 A 
ATOM      2  C   UNL d   1      58.695   0.151  31.017  0.00  0.00     0.166 A 
ATOM      3  N   UNL d   1      58.543   0.461  31.770  0.00  0.00    -0.225 NA
ATOM      4  N   UNL d   1      57.351  -0.337  30.957  0.00  0.00    -0.241 NA
ATOM      5  C   UNL d   1      57.801   0.372  32.111  0.00  0.00     0.101 A 
ATOM      6  C   UNL d   1      57.204  -0.028  31.704  0.00  0.00     0.099 A 
ATOM      7  C   UNL d   1      57.654   0.681  32.858  0.00  0.00     0.021 A 
ATOM      8  C   UNL d   1      56.462  -0.117  32.045  0.00  0.00     0.021 A 
ATOM      9  C   UNL d   1      56.304   0.190  32.794  0.00  0.00     0.002 A 
ATOM     10  C   UNL d   1      56.907   0.591  33.200  0.00  0.00     0.002 A 
ENDROOT
BRANCH   1  11
ATOM     11  C   UNL d   1      58.245  -0.562  29.857  0.00  0.00     0.105 C 
BRANCH  11  12
ATOM     12  C   UNL d   1      58.227  -1.375  29.737  0.00  0.00     0.303 C 
ATOM     13  O   UNL d   1      57.739  -1.852  30.195  0.00  0.00    -0.259 OA
BRANCH  12  14
ATOM     14  O   UNL d   1      58.704  -1.713  29.150  0.00  0.00    -0.271 OA
BRANCH  14  15
ATOM     15  C   UNL d   1      58.783  -2.211  28.504  0.00  0.00     0.126 C 
BRANCH  15  16
ATOM     16  C   UNL d   1      59.255  -2.877  28.560  0.00  0.00     0.025 C 
ATOM     17  C   UNL d   1      58.909  -3.617  28.580  0.00  0.00     0.002 C 
BRANCH  16  18
ATOM     18  C   UNL d   1      60.075  -2.796  28.597  0.00  0.00     0.002 C 
ATOM     19  C   UNL d   1      60.562  -3.448  28.456  0.00  0.00     0.000 C 
ENDBRANCH  16  18
ENDBRANCH  15  16
ENDBRANCH  14  15
ENDBRANCH  12  14
ENDBRANCH  11  12
BRANCH  11  20
ATOM     20  C   UNL d   1      58.410  -0.051  29.220  0.00  0.00     0.129 C 
ATOM     21  N   UNL d   1      57.734   0.251  28.617  0.00  0.00    -0.146 N 
ENDBRANCH  11  20
ENDBRANCH   1  11
BRANCH   2  22
ATOM     22  N   UNL d   1      59.445   0.243  30.677  0.00  0.00    -0.288 N 
ATOM     23  C   UNL d   1      59.511   0.586  29.931  0.00  0.00     0.082 A 
ATOM     24  C   UNL d   1      60.264   0.677  29.593  0.00  0.00     0.019 A 
ATOM     25  C   UNL d   1      60.940   0.425  30.003  0.00  0.00     0.003 A 
ATOM     26  C   UNL d   1      60.863   0.082  30.751  0.00  0.00     0.019 A 
ATOM     27  C   UNL d   1      60.121  -0.009  31.087  0.00  0.00     0.082 A 
ENDBRANCH   2  22
TORSDOF 8
ENDMDL
