MODEL 1
REMARK VINA RESULT:      13.6      0.000      0.000
REMARK  3 active torsions:
REMARK  status: ('A' for Active; 'I' for Inactive)
REMARK    1  A    between atoms: C_8  and  C_2 
REMARK    2  A    between atoms: O_6  and  C_8 
REMARK    3  A    between atoms: C_7  and  O_6 
ROOT
ATOM      1  N   UNL d   1      14.461  12.482  -2.423  0.00  0.00    -0.224 NA
ATOM      2  C   UNL d   1      13.753  12.139  -2.663  0.00  0.00     0.188 A 
ATOM      3  N   UNL d   1      13.400  11.832  -1.984  0.00  0.00    -0.224 NA
ATOM      4  C   UNL d   1      14.542  12.389  -1.625  0.00  0.00     0.101 A 
ATOM      5  C   UNL d   1      13.879  11.983  -1.350  0.00  0.00     0.101 A 
ATOM      6  C   UNL d   1      15.107  12.603  -1.086  0.00  0.00     0.021 A 
ATOM      7  C   UNL d   1      13.805  11.806  -0.548  0.00  0.00     0.021 A 
ATOM      8  C   UNL d   1      14.396  12.036  -0.019  0.00  0.00     0.002 A 
ATOM      9  C   UNL d   1      15.060  12.442  -0.294  0.00  0.00     0.002 A 
ENDROOT
BRANCH   2  10
ATOM     10  C   UNL d   1      13.171  11.911  -3.168  0.00  0.00     0.161 C 
BRANCH  10  11
ATOM     11  O   UNL d   1      12.859  12.432  -3.628  0.00  0.00    -0.302 OA
BRANCH  11  12
ATOM     12  C   UNL d   1      13.095  12.490  -4.443  0.00  0.00     0.100 A 
ATOM     13  C   UNL d   1      13.133  13.205  -4.799  0.00  0.00     0.023 A 
ATOM     14  C   UNL d   1      12.947  13.891  -4.389  0.00  0.00     0.002 C 
ATOM     15  C   UNL d   1      13.365  13.249  -5.594  0.00  0.00     0.002 A 
ATOM     16  C   UNL d   1      13.553  12.559  -6.005  0.00  0.00     0.000 A 
ATOM     17  C   UNL d   1      13.514  11.800  -5.636  0.00  0.00     0.002 A 
ATOM     18  C   UNL d   1      13.277  11.784  -4.831  0.00  0.00     0.025 A 
ENDBRANCH  11  12
ENDBRANCH  10  11
ENDBRANCH   2  10
TORSDOF 3
ENDMDL
MODEL 2
REMARK VINA RESULT:      15.9      9.676     10.492
REMARK  3 active torsions:
REMARK  status: ('A' for Active; 'I' for Inactive)
REMARK    1  A    between atoms: C_8  and  C_2 
REMARK    2  A    between atoms: O_6  and  C_8 
REMARK    3  A    between atoms: C_7  and  O_6 
ROOT
ATOM      1  N   UNL d   1      24.666  12.790  -1.623  0.00  0.00    -0.224 NA
ATOM      2  C   UNL d   1      24.558  12.624  -2.421  0.00  0.00     0.188 A 
ATOM      3  N   UNL d   1      23.745  12.586  -2.544  0.00  0.00    -0.224 NA
ATOM      4  C   UNL d   1      23.944  12.853  -1.266  0.00  0.00     0.101 A 
ATOM      5  C   UNL d   1      23.368  12.726  -1.843  0.00  0.00     0.101 A 
ATOM      6  C   UNL d   1      23.700  13.006  -0.510  0.00  0.00     0.021 A 
ATOM      7  C   UNL d   1      22.569  12.756  -1.641  0.00  0.00     0.021 A 
ATOM      8  C   UNL d   1      22.346  12.914  -0.862  0.00  0.00     0.002 A 
ATOM      9  C   UNL d   1      22.923  13.041  -0.285  0.00  0.00     0.002 A 
ENDROOT
BRANCH   2  10
ATOM     10  C   UNL d   1      24.764  12.469  -3.183  0.00  0.00     0.161 C 
BRANCH  10  11
ATOM     11  O   UNL d   1      24.639  13.003  -3.713  0.00  0.00    -0.302 OA
BRANCH  11  12
ATOM     12  C   UNL d   1      24.675  12.810  -4.540  0.00  0.00     0.100 A 
ATOM     13  C   UNL d   1      24.730  13.393  -5.084  0.00  0.00     0.023 A 
ATOM     14  C   UNL d   1      24.753  14.182  -4.858  0.00  0.00     0.002 C 
ATOM     15  C   UNL d   1      24.765  13.194  -5.889  0.00  0.00     0.002 A 
ATOM     16  C   UNL d   1      24.742  12.401  -6.116  0.00  0.00     0.000 A 
ATOM     17  C   UNL d   1      24.684  11.780  -5.546  0.00  0.00     0.002 A 
ATOM     18  C   UNL d   1      24.651  12.009  -4.739  0.00  0.00     0.025 A 
ENDBRANCH  11  12
ENDBRANCH  10  11
ENDBRANCH   2  10
TORSDOF 3
ENDMDL
