MODEL 1
REMARK VINA RESULT:      12.9      0.000      0.000
REMARK  6 active torsions:
REMARK  status: ('A' for Active; 'I' for Inactive)
REMARK    1  A    between atoms: N_3  and  C_1 
REMARK    2  A    between atoms: C_5  and  C_2 
REMARK    3  A    between atoms: C_7  and  C_5 
REMARK    4  A    between atoms: C_8  and  C_5 
REMARK    5  A    between atoms: O_15  and  C_7 
REMARK    6  A    between atoms: C_19  and  O_15 
ROOT
ATOM      1  C   UNL d   1     -41.606-121.530 -52.976  0.00  0.00     0.166 A 
ATOM      2  C   UNL d   1     -42.021-122.172 -52.665  0.00  0.00     0.122 A 
ATOM      3  N   UNL d   1     -41.305-121.560 -53.749  0.00  0.00    -0.225 NA
ATOM      4  N   UNL d   1     -42.135-122.847 -53.130  0.00  0.00    -0.241 NA
ATOM      5  C   UNL d   1     -41.424-122.239 -54.207  0.00  0.00     0.101 A 
ATOM      6  C   UNL d   1     -41.836-122.878 -53.897  0.00  0.00     0.099 A 
ATOM      7  C   UNL d   1     -41.127-122.267 -54.968  0.00  0.00     0.021 A 
ATOM      8  C   UNL d   1     -41.952-123.553 -54.357  0.00  0.00     0.021 A 
ATOM      9  C   UNL d   1     -41.655-123.583 -55.121  0.00  0.00     0.002 A 
ATOM     10  C   UNL d   1     -41.240-122.941 -55.432  0.00  0.00     0.002 A 
ENDROOT
BRANCH   2  11
ATOM     11  C   UNL d   1     -42.322-122.142 -51.893  0.00  0.00     0.105 C 
BRANCH  11  12
ATOM     12  C   UNL d   1     -41.986-122.608 -51.300  0.00  0.00     0.303 C 
ATOM     13  O   UNL d   1     -41.416-123.169 -51.494  0.00  0.00    -0.259 OA
BRANCH  12  14
ATOM     14  O   UNL d   1     -42.219-122.511 -50.519  0.00  0.00    -0.273 OA
BRANCH  14  15
ATOM     15  C   UNL d   1     -42.308-122.818 -49.763  0.00  0.00     0.103 A 
ATOM     16  C   UNL d   1     -41.912-122.462 -49.133  0.00  0.00     0.025 A 
ATOM     17  C   UNL d   1     -41.999-122.767 -48.374  0.00  0.00     0.002 A 
ATOM     18  C   UNL d   1     -42.475-123.419 -48.248  0.00  0.00     0.000 A 
ATOM     19  C   UNL d   1     -42.866-123.772 -48.872  0.00  0.00     0.002 A 
ATOM     20  C   UNL d   1     -42.784-123.470 -49.638  0.00  0.00     0.025 A 
ENDBRANCH  14  15
ENDBRANCH  12  14
ENDBRANCH  11  12
BRANCH  11  21
ATOM     21  C   UNL d   1     -42.961-121.644 -51.709  0.00  0.00     0.129 C 
ATOM     22  N   UNL d   1     -43.870-121.907 -51.819  0.00  0.00    -0.146 N 
ENDBRANCH  11  21
ENDBRANCH   2  11
BRANCH   1  23
ATOM     23  N   UNL d   1     -41.488-120.852 -52.518  0.00  0.00    -0.284 N 
ATOM     24  C   UNL d   1     -41.388-120.918 -51.697  0.00  0.00     0.106 A 
ATOM     25  C   UNL d   1     -41.271-120.239 -51.246  0.00  0.00     0.118 A 
ATOM     26  C   UNL d   1     -41.171-120.309 -50.426  0.00  0.00     0.028 C 
ATOM     27  O   UNL d   1     -41.253-119.495 -51.599  0.00  0.00    -0.304 OA
ATOM     28  C   UNL d   1     -41.353-119.429 -52.420  0.00  0.00     0.118 A 
ATOM     29  C   UNL d   1     -41.472-120.107 -52.888  0.00  0.00     0.106 A 
ATOM     30  C   UNL d   1     -41.337-118.684 -52.790  0.00  0.00     0.028 C 
ENDBRANCH   1  23
TORSDOF 6
ENDMDL
