MODEL 1
REMARK VINA RESULT:      -2.0      0.000      0.000
REMARK  6 active torsions:
REMARK  status: ('A' for Active; 'I' for Inactive)
REMARK    1  A    between atoms: N_11  and  C_3 
REMARK    2  A    between atoms: C_10  and  C_5 
REMARK    3  A    between atoms: C_17  and  N_11 
REMARK    4  A    between atoms: N_13  and  C_18 
REMARK    5  A    between atoms: C_16  and  C_17 
REMARK    6  A    between atoms: C_18  and  C_16 
ROOT
ATOM      1  N   UNL d   1      58.660  -1.407  29.686  0.00  0.00    -0.184 N 
ATOM      2  C   UNL d   1      59.300  -1.885  29.461  0.00  0.00     0.168 A 
ATOM      3  C   UNL d   1      58.808  -0.653  29.976  0.00  0.00     0.217 A 
ATOM      4  N   UNL d   1      57.770  -2.439  29.329  0.00  0.00    -0.162 NA
ATOM      5  C   UNL d   1      59.177  -2.631  29.174  0.00  0.00     0.055 A 
ATOM      6  N   UNL d   1      60.074  -1.597  29.531  0.00  0.00    -0.227 NA
ATOM      7  C   UNL d   1      59.569  -0.367  30.045  0.00  0.00     0.066 A 
ATOM      8  C   UNL d   1      58.407  -2.914  29.106  0.00  0.00     0.104 A 
ATOM      9  C   UNL d   1      60.205  -0.842  29.821  0.00  0.00     0.087 A 
ATOM     10  C   UNL d   1      59.696   0.397  30.340  0.00  0.00     0.006 A 
ATOM     11  C   UNL d   1      58.270  -3.656  28.820  0.00  0.00     0.023 C 
ATOM     12  C   UNL d   1      60.976  -0.558  29.890  0.00  0.00     0.019 A 
ATOM     13  C   UNL d   1      60.479   0.681  30.407  0.00  0.00     0.000 A 
ATOM     14  C   UNL d   1      61.116   0.206  30.184  0.00  0.00     0.002 A 
ENDROOT
BRANCH   3  15
ATOM     15  N   UNL d   1      58.160  -0.164  30.206  0.00  0.00    -0.380 NA
BRANCH  15  16
ATOM     16  C   UNL d   1      57.521   0.294  30.501  0.00  0.00     0.164 C 
BRANCH  16  17
ATOM     17  C   UNL d   1      57.427   0.369  31.334  0.00  0.00     0.054 C 
BRANCH  17  18
ATOM     18  C   UNL d   1      56.650   0.489  31.663  0.00  0.00     0.083 C 
BRANCH  18  19
ATOM     19  N   UNL d   1      56.361  -0.034  32.255  0.00  0.00    -0.300 N 
ATOM     20  C   UNL d   1      55.979   0.585  32.665  0.00  0.00     0.100 C 
ATOM     21  C   UNL d   1      56.305  -0.820  32.564  0.00  0.00     0.100 C 
ENDBRANCH  18  19
ENDBRANCH  17  18
ENDBRANCH  16  17
ENDBRANCH  15  16
ENDBRANCH   3  15
BRANCH   5  22
ATOM     22  C   UNL d   1      59.813  -3.106  28.950  0.00  0.00     0.004 A 
ATOM     23  C   UNL d   1      59.746  -3.915  29.003  0.00  0.00     0.000 A 
ATOM     24  C   UNL d   1      60.382  -4.390  28.780  0.00  0.00     0.000 A 
ATOM     25  C   UNL d   1      61.075  -4.048  28.506  0.00  0.00     0.000 A 
ATOM     26  C   UNL d   1      61.133  -3.232  28.456  0.00  0.00     0.000 A 
ATOM     27  C   UNL d   1      60.497  -2.757  28.679  0.00  0.00     0.000 A 
ENDBRANCH   5  22
TORSDOF 6
ENDMDL
MODEL 2
REMARK VINA RESULT:      -1.8      8.452      8.880
REMARK  6 active torsions:
REMARK  status: ('A' for Active; 'I' for Inactive)
REMARK    1  A    between atoms: N_11  and  C_3 
REMARK    2  A    between atoms: C_10  and  C_5 
REMARK    3  A    between atoms: C_17  and  N_11 
REMARK    4  A    between atoms: N_13  and  C_18 
REMARK    5  A    between atoms: C_16  and  C_17 
REMARK    6  A    between atoms: C_18  and  C_16 
ROOT
ATOM      1  N   UNL d   1      58.266  -9.789  32.250  0.00  0.00    -0.184 N 
ATOM      2  C   UNL d   1      58.272  -9.789  31.420  0.00  0.00     0.168 A 
ATOM      3  C   UNL d   1      58.981  -9.786  32.654  0.00  0.00     0.217 A 
ATOM      4  N   UNL d   1      56.857  -9.795  32.235  0.00  0.00    -0.162 NA
ATOM      5  C   UNL d   1      57.579  -9.792  31.003  0.00  0.00     0.055 A 
ATOM      6  N   UNL d   1      58.993  -9.787  31.013  0.00  0.00    -0.227 NA
ATOM      7  C   UNL d   1      59.693  -9.784  32.255  0.00  0.00     0.066 A 
ATOM      8  C   UNL d   1      56.863  -9.795  31.410  0.00  0.00     0.104 A 
ATOM      9  C   UNL d   1      59.699  -9.784  31.430  0.00  0.00     0.087 A 
ATOM     10  C   UNL d   1      60.403  -9.781  32.682  0.00  0.00     0.006 A 
ATOM     11  C   UNL d   1      56.165  -9.798  31.006  0.00  0.00     0.023 C 
ATOM     12  C   UNL d   1      60.414  -9.781  31.023  0.00  0.00     0.019 A 
ATOM     13  C   UNL d   1      61.128  -9.778  32.265  0.00  0.00     0.000 A 
ATOM     14  C   UNL d   1      61.133  -9.779  31.440  0.00  0.00     0.002 A 
ENDROOT
BRANCH   3  15
ATOM     15  N   UNL d   1      58.979  -9.786  33.497  0.00  0.00    -0.380 NA
BRANCH  15  16
ATOM     16  C   UNL d   1      58.915  -9.746  34.333  0.00  0.00     0.164 C 
BRANCH  16  17
ATOM     17  C   UNL d   1      59.182  -9.053  34.728  0.00  0.00     0.054 C 
BRANCH  17  18
ATOM     18  C   UNL d   1      59.528  -9.115  35.504  0.00  0.00     0.083 C 
BRANCH  18  19
ATOM     19  N   UNL d   1      59.778  -8.420  35.908  0.00  0.00    -0.300 N 
ATOM     20  C   UNL d   1      60.402  -8.823  36.289  0.00  0.00     0.100 C 
ATOM     21  C   UNL d   1      59.673  -7.595  36.065  0.00  0.00     0.100 C 
ENDBRANCH  18  19
ENDBRANCH  17  18
ENDBRANCH  16  17
ENDBRANCH  15  16
ENDBRANCH   3  15
BRANCH   5  22
ATOM     22  C   UNL d   1      57.584  -9.793  30.178  0.00  0.00     0.004 A 
ATOM     23  C   UNL d   1      56.879  -9.818  29.773  0.00  0.00     0.000 A 
ATOM     24  C   UNL d   1      56.885  -9.818  28.948  0.00  0.00     0.000 A 
ATOM     25  C   UNL d   1      57.596  -9.793  28.541  0.00  0.00     0.000 A 
ATOM     26  C   UNL d   1      58.302  -9.768  28.958  0.00  0.00     0.000 A 
ATOM     27  C   UNL d   1      58.296  -9.768  29.783  0.00  0.00     0.000 A 
ENDBRANCH   5  22
TORSDOF 6
ENDMDL
MODEL 3
REMARK VINA RESULT:       0.3      8.302      8.982
REMARK  6 active torsions:
REMARK  status: ('A' for Active; 'I' for Inactive)
REMARK    1  A    between atoms: N_11  and  C_3 
REMARK    2  A    between atoms: C_10  and  C_5 
REMARK    3  A    between atoms: C_17  and  N_11 
REMARK    4  A    between atoms: N_13  and  C_18 
REMARK    5  A    between atoms: C_16  and  C_17 
REMARK    6  A    between atoms: C_18  and  C_16 
ROOT
ATOM      1  N   UNL d   1      58.345  -9.703  31.130  0.00  0.00    -0.184 N 
ATOM      2  C   UNL d   1      58.842  -9.648  31.792  0.00  0.00     0.168 A 
ATOM      3  C   UNL d   1      58.680  -9.752  30.382  0.00  0.00     0.217 A 
ATOM      4  N   UNL d   1      57.220  -9.658  31.977  0.00  0.00    -0.162 NA
ATOM      5  C   UNL d   1      58.532  -9.598  32.537  0.00  0.00     0.055 A 
ATOM      6  N   UNL d   1      59.664  -9.643  31.691  0.00  0.00    -0.227 NA
ATOM      7  C   UNL d   1      59.490  -9.748  30.280  0.00  0.00     0.066 A 
ATOM      8  C   UNL d   1      57.714  -9.603  32.635  0.00  0.00     0.104 A 
ATOM      9  C   UNL d   1      59.984  -9.693  30.938  0.00  0.00     0.087 A 
ATOM     10  C   UNL d   1      59.808  -9.799  29.516  0.00  0.00     0.006 A 
ATOM     11  C   UNL d   1      57.392  -9.554  33.373  0.00  0.00     0.023 C 
ATOM     12  C   UNL d   1      60.802  -9.688  30.840  0.00  0.00     0.019 A 
ATOM     13  C   UNL d   1      60.639  -9.793  29.421  0.00  0.00     0.000 A 
ATOM     14  C   UNL d   1      61.133  -9.738  30.079  0.00  0.00     0.002 A 
ENDROOT
BRANCH   3  15
ATOM     15  N   UNL d   1      58.179  -9.809  29.707  0.00  0.00    -0.380 NA
BRANCH  15  16
ATOM     16  C   UNL d   1      57.708  -9.802  29.011  0.00  0.00     0.164 C 
BRANCH  16  17
ATOM     17  C   UNL d   1      56.966  -9.404  29.027  0.00  0.00     0.054 C 
BRANCH  17  18
ATOM     18  C   UNL d   1      56.365  -9.607  28.458  0.00  0.00     0.083 C 
BRANCH  18  19
ATOM     19  N   UNL d   1      55.570  -9.361  28.583  0.00  0.00    -0.300 N 
ATOM     20  C   UNL d   1      55.773  -8.553  28.521  0.00  0.00     0.100 C 
ATOM     21  C   UNL d   1      54.762  -9.566  28.727  0.00  0.00     0.100 C 
ENDBRANCH  18  19
ENDBRANCH  17  18
ENDBRANCH  16  17
ENDBRANCH  15  16
ENDBRANCH   3  15
BRANCH   5  22
ATOM     22  C   UNL d   1      59.026  -9.543  33.195  0.00  0.00     0.004 A 
ATOM     23  C   UNL d   1      59.768  -9.219  33.113  0.00  0.00     0.000 A 
ATOM     24  C   UNL d   1      60.262  -9.164  33.771  0.00  0.00     0.000 A 
ATOM     25  C   UNL d   1      60.007  -9.434  34.502  0.00  0.00     0.000 A 
ATOM     26  C   UNL d   1      59.257  -9.759  34.575  0.00  0.00     0.000 A 
ATOM     27  C   UNL d   1      58.763  -9.814  33.917  0.00  0.00     0.000 A 
ENDBRANCH   5  22
TORSDOF 6
ENDMDL
