MODEL 1
REMARK VINA RESULT:      86.1      0.000      0.000
REMARK  6 active torsions:
REMARK  status: ('A' for Active; 'I' for Inactive)
REMARK       I    between atoms: N_6  and  C_1 
REMARK       I    between atoms: N_9  and  C_1 
REMARK    1  A    between atoms: N_2  and  C_3 
REMARK    2  A    between atoms: C_3  and  C_5 
REMARK    3  A    between atoms: C_7  and  C_3 
REMARK    4  A    between atoms: C_16  and  N_4 
REMARK    5  A    between atoms: C_5  and  N_6 
REMARK    6  A    between atoms: C_19  and  N_9 
ROOT
ATOM      1  C   UNL d   1     -52.772  24.179  34.238  0.00  0.00     0.088 C 
ENDROOT
BRANCH   1   2
ATOM      2  N   UNL d   1     -52.685  24.492  35.000  0.00  0.00    -0.300 N 
ATOM      3  C   UNL d   1     -52.498  25.287  35.098  0.00  0.00     0.100 A 
ATOM      4  C   UNL d   1     -52.411  25.597  35.852  0.00  0.00     0.100 A 
ATOM      5  N   UNL d   1     -52.509  25.119  36.524  0.00  0.00    -0.301 N 
ATOM      6  C   UNL d   1     -52.701  24.304  36.412  0.00  0.00     0.100 A 
ATOM      7  C   UNL d   1     -52.784  24.009  35.655  0.00  0.00     0.100 A 
BRANCH   5   8
ATOM      8  C   UNL d   1     -52.426  25.412  37.277  0.00  0.00     0.064 A 
ATOM      9  C   UNL d   1     -53.015  25.314  37.842  0.00  0.00     0.018 A 
ATOM     10  C   UNL d   1     -52.921  25.616  38.606  0.00  0.00     0.002 A 
ATOM     11  C   UNL d   1     -52.226  26.022  38.805  0.00  0.00     0.000 A 
ATOM     12  C   UNL d   1     -51.630  26.123  38.236  0.00  0.00     0.002 A 
ATOM     13  C   UNL d   1     -51.731  25.819  37.477  0.00  0.00     0.018 A 
ENDBRANCH   5   8
ENDBRANCH   1   2
BRANCH   1  14
ATOM     14  C   UNL d   1     -52.126  24.136  33.730  0.00  0.00     0.103 C 
ATOM     15  C   UNL d   1     -51.962  23.437  33.339  0.00  0.00     0.022 C 
BRANCH  14  16
ATOM     16  N   UNL d   1     -51.653  24.798  33.622  0.00  0.00    -0.190 NA
ATOM     17  C   UNL d   1     -50.851  24.705  33.436  0.00  0.00     0.369 C 
ATOM     18  N   UNL d   1     -50.378  25.367  33.328  0.00  0.00    -0.191 NA
ATOM     19  O   UNL d   1     -50.538  23.950  33.361  0.00  0.00    -0.242 OA
BRANCH  18  20
ATOM     20  C   UNL d   1     -50.694  26.126  33.404  0.00  0.00     0.086 A 
ATOM     21  C   UNL d   1     -50.188  26.763  33.580  0.00  0.00     0.019 A 
ATOM     22  C   UNL d   1     -50.499  27.518  33.655  0.00  0.00     0.002 A 
ATOM     23  C   UNL d   1     -51.308  27.646  33.558  0.00  0.00     0.000 A 
ATOM     24  C   UNL d   1     -51.805  27.011  33.384  0.00  0.00     0.002 A 
ATOM     25  C   UNL d   1     -51.497  26.246  33.306  0.00  0.00     0.019 A 
ENDBRANCH  18  20
ENDBRANCH  14  16
ENDBRANCH   1  14
BRANCH   1  26
ATOM     26  C   UNL d   1     -53.509  23.912  33.990  0.00  0.00     0.047 A 
ATOM     27  S   UNL d   1     -53.936  23.279  34.306  0.00  0.00    -0.085 SA
ATOM     28  C   UNL d   1     -54.641  23.209  33.890  0.00  0.00     0.035 A 
ATOM     29  C   UNL d   1     -54.658  23.800  33.311  0.00  0.00     0.007 A 
ATOM     30  C   UNL d   1     -53.959  24.232  33.375  0.00  0.00     0.009 A 
ENDBRANCH   1  26
TORSDOF 6
ENDMDL
MODEL 2
REMARK VINA RESULT:      87.4      2.247      4.455
REMARK  6 active torsions:
REMARK  status: ('A' for Active; 'I' for Inactive)
REMARK       I    between atoms: N_6  and  C_1 
REMARK       I    between atoms: N_9  and  C_1 
REMARK    1  A    between atoms: N_2  and  C_3 
REMARK    2  A    between atoms: C_3  and  C_5 
REMARK    3  A    between atoms: C_7  and  C_3 
REMARK    4  A    between atoms: C_16  and  N_4 
REMARK    5  A    between atoms: C_5  and  N_6 
REMARK    6  A    between atoms: C_19  and  N_9 
ROOT
ATOM      1  C   UNL d   1     -50.352  26.165  33.828  0.00  0.00     0.088 C 
ENDROOT
BRANCH   1   2
ATOM      2  N   UNL d   1     -49.877  26.763  34.148  0.00  0.00    -0.300 N 
ATOM      3  C   UNL d   1     -49.259  27.078  33.704  0.00  0.00     0.100 A 
ATOM      4  C   UNL d   1     -48.788  27.671  34.020  0.00  0.00     0.100 A 
ATOM      5  N   UNL d   1     -48.924  27.961  34.786  0.00  0.00    -0.301 N 
ATOM      6  C   UNL d   1     -49.561  27.631  35.234  0.00  0.00     0.100 A 
ATOM      7  C   UNL d   1     -50.021  27.041  34.905  0.00  0.00     0.100 A 
BRANCH   5   8
ATOM      8  C   UNL d   1     -48.466  28.547  35.113  0.00  0.00     0.064 A 
ATOM      9  C   UNL d   1     -48.046  29.073  34.643  0.00  0.00     0.018 A 
ATOM     10  C   UNL d   1     -47.582  29.667  34.985  0.00  0.00     0.002 A 
ATOM     11  C   UNL d   1     -47.541  29.731  35.811  0.00  0.00     0.000 A 
ATOM     12  C   UNL d   1     -47.965  29.201  36.288  0.00  0.00     0.002 A 
ATOM     13  C   UNL d   1     -48.425  28.612  35.939  0.00  0.00     0.018 A 
ENDBRANCH   5   8
ENDBRANCH   1   2
BRANCH   1  14
ATOM     14  C   UNL d   1     -51.154  26.297  33.698  0.00  0.00     0.103 C 
ATOM     15  C   UNL d   1     -51.397  26.971  33.306  0.00  0.00     0.022 C 
BRANCH  14  16
ATOM     16  N   UNL d   1     -51.701  25.747  33.965  0.00  0.00    -0.190 NA
ATOM     17  C   UNL d   1     -52.161  25.913  34.634  0.00  0.00     0.369 C 
ATOM     18  N   UNL d   1     -52.709  25.363  34.901  0.00  0.00    -0.191 NA
ATOM     19  O   UNL d   1     -52.064  26.630  35.023  0.00  0.00    -0.242 OA
BRANCH  18  20
ATOM     20  C   UNL d   1     -52.806  24.643  34.508  0.00  0.00     0.086 A 
ATOM     21  C   UNL d   1     -52.864  23.942  34.952  0.00  0.00     0.019 A 
ATOM     22  C   UNL d   1     -52.960  23.225  34.565  0.00  0.00     0.002 A 
ATOM     23  C   UNL d   1     -53.000  23.199  33.741  0.00  0.00     0.000 A 
ATOM     24  C   UNL d   1     -52.943  23.898  33.306  0.00  0.00     0.002 A 
ATOM     25  C   UNL d   1     -52.845  24.625  33.691  0.00  0.00     0.019 A 
ENDBRANCH  18  20
ENDBRANCH  14  16
ENDBRANCH   1  14
BRANCH   1  26
ATOM     26  C   UNL d   1     -50.018  25.438  33.641  0.00  0.00     0.047 A 
ATOM     27  S   UNL d   1     -49.212  25.262  33.595  0.00  0.00    -0.085 SA
ATOM     28  C   UNL d   1     -49.132  24.470  33.391  0.00  0.00     0.035 A 
ATOM     29  C   UNL d   1     -49.889  24.147  33.308  0.00  0.00     0.007 A 
ATOM     30  C   UNL d   1     -50.434  24.745  33.463  0.00  0.00     0.009 A 
ENDBRANCH   1  26
TORSDOF 6
ENDMDL
