MODEL 1
REMARK VINA RESULT:      -5.6      0.000      0.000
REMARK  6 active torsions:
REMARK  status: ('A' for Active; 'I' for Inactive)
REMARK    1  A    between atoms: C_2  and  C_1 
REMARK       I    between atoms: N_10  and  C_1 
REMARK    2  A    between atoms: C_3  and  C_4 
REMARK    3  A    between atoms: C_16  and  N_10 
REMARK    4  A    between atoms: C_11  and  O_12 
REMARK    5  A    between atoms: O_12  and  C_17 
REMARK    6  A    between atoms: C_17  and  C_16 
ROOT
ATOM      1  C   UNL d   1     -45.334  12.982  22.446  0.00  0.00     0.279 C 
ATOM      2  O   UNL d   1     -45.121  12.368  22.954  0.00  0.00    -0.265 OA
ATOM      3  N   UNL d   1     -44.804  13.242  21.869  0.00  0.00    -0.204 NA
ENDROOT
BRANCH   1   4
ATOM      4  C   UNL d   1     -46.073  13.334  22.513  0.00  0.00     0.058 A 
ATOM      5  C   UNL d   1     -46.146  14.081  22.856  0.00  0.00     0.004 A 
ATOM      6  C   UNL d   1     -46.880  14.435  22.924  0.00  0.00    -0.004 A 
ATOM      7  C   UNL d   1     -47.560  14.040  22.647  0.00  0.00    -0.023 A 
ATOM      8  C   UNL d   1     -47.487  13.294  22.304  0.00  0.00    -0.004 A 
ATOM      9  C   UNL d   1     -46.744  12.941  22.237  0.00  0.00     0.004 A 
BRANCH   7  10
ATOM     10  C   UNL d   1     -48.307  14.394  22.713  0.00  0.00     0.019 C 
ATOM     11  C   UNL d   1     -49.063  14.746  22.783  0.00  0.00     0.004 C 
ATOM     12  C   UNL d   1     -48.013  15.094  22.363  0.00  0.00     0.004 C 
ATOM     13  C   UNL d   1     -48.603  13.701  23.061  0.00  0.00     0.004 C 
ENDBRANCH   7  10
ENDBRANCH   1   4
BRANCH   3  14
ATOM     14  C   UNL d   1     -44.062  12.889  21.800  0.00  0.00     0.129 C 
BRANCH  14  15
ATOM     15  C   UNL d   1     -43.466  13.260  21.365  0.00  0.00     0.143 C 
BRANCH  15  16
ATOM     16  O   UNL d   1     -42.697  12.962  21.379  0.00  0.00    -0.303 OA
BRANCH  16  17
ATOM     17  C   UNL d   1     -42.056  13.427  21.109  0.00  0.00     0.100 A 
ATOM     18  C   UNL d   1     -42.016  13.657  20.326  0.00  0.00     0.025 A 
ATOM     19  C   UNL d   1     -41.383  14.114  20.069  0.00  0.00     0.002 A 
ATOM     20  C   UNL d   1     -40.792  14.338  20.599  0.00  0.00     0.000 A 
ATOM     21  C   UNL d   1     -40.834  14.105  21.386  0.00  0.00     0.002 A 
ATOM     22  C   UNL d   1     -41.465  13.651  21.639  0.00  0.00     0.025 A 
ENDBRANCH  16  17
ENDBRANCH  15  16
ENDBRANCH  14  15
ENDBRANCH   3  14
TORSDOF 6
ENDMDL
MODEL 2
REMARK VINA RESULT:      -5.3      6.229      8.034
REMARK  6 active torsions:
REMARK  status: ('A' for Active; 'I' for Inactive)
REMARK    1  A    between atoms: C_2  and  C_1 
REMARK       I    between atoms: N_10  and  C_1 
REMARK    2  A    between atoms: C_3  and  C_4 
REMARK    3  A    between atoms: C_16  and  N_10 
REMARK    4  A    between atoms: C_11  and  O_12 
REMARK    5  A    between atoms: O_12  and  C_17 
REMARK    6  A    between atoms: C_17  and  C_16 
ROOT
ATOM      1  C   UNL d   1     -39.827  14.101  18.693  0.00  0.00     0.279 C 
ATOM      2  O   UNL d   1     -40.618  13.872  18.733  0.00  0.00    -0.265 OA
ATOM      3  N   UNL d   1     -39.409  14.261  19.386  0.00  0.00    -0.204 NA
ENDROOT
BRANCH   1   4
ATOM      4  C   UNL d   1     -39.454  14.170  17.964  0.00  0.00     0.058 A 
ATOM      5  C   UNL d   1     -39.825  14.570  17.346  0.00  0.00     0.004 A 
ATOM      6  C   UNL d   1     -39.456  14.640  16.619  0.00  0.00    -0.004 A 
ATOM      7  C   UNL d   1     -38.702  14.306  16.500  0.00  0.00    -0.023 A 
ATOM      8  C   UNL d   1     -38.331  13.905  17.119  0.00  0.00    -0.004 A 
ATOM      9  C   UNL d   1     -38.707  13.837  17.850  0.00  0.00     0.004 A 
BRANCH   7  10
ATOM     10  C   UNL d   1     -38.323  14.373  15.766  0.00  0.00     0.019 C 
ATOM     11  C   UNL d   1     -37.941  14.436  15.023  0.00  0.00     0.004 C 
ATOM     12  C   UNL d   1     -38.257  15.201  15.870  0.00  0.00     0.004 C 
ATOM     13  C   UNL d   1     -38.387  13.553  15.658  0.00  0.00     0.004 C 
ENDBRANCH   7  10
ENDBRANCH   1   4
BRANCH   3  14
ATOM     14  C   UNL d   1     -39.782  14.193  20.119  0.00  0.00     0.129 C 
BRANCH  14  15
ATOM     15  C   UNL d   1     -39.344  14.272  20.815  0.00  0.00     0.143 C 
BRANCH  15  16
ATOM     16  O   UNL d   1     -39.707  14.155  21.547  0.00  0.00    -0.303 OA
BRANCH  16  17
ATOM     17  C   UNL d   1     -39.253  14.148  22.250  0.00  0.00     0.100 A 
ATOM     18  C   UNL d   1     -39.050  14.850  22.616  0.00  0.00     0.025 A 
ATOM     19  C   UNL d   1     -38.604  14.834  23.306  0.00  0.00     0.002 A 
ATOM     20  C   UNL d   1     -38.363  14.113  23.626  0.00  0.00     0.000 A 
ATOM     21  C   UNL d   1     -38.568  13.408  23.257  0.00  0.00     0.002 A 
ATOM     22  C   UNL d   1     -39.012  13.427  22.570  0.00  0.00     0.025 A 
ENDBRANCH  16  17
ENDBRANCH  15  16
ENDBRANCH  14  15
ENDBRANCH   3  14
TORSDOF 6
ENDMDL
MODEL 3
REMARK VINA RESULT:      -5.3      1.648      2.813
REMARK  6 active torsions:
REMARK  status: ('A' for Active; 'I' for Inactive)
REMARK    1  A    between atoms: C_2  and  C_1 
REMARK       I    between atoms: N_10  and  C_1 
REMARK    2  A    between atoms: C_3  and  C_4 
REMARK    3  A    between atoms: C_16  and  N_10 
REMARK    4  A    between atoms: C_11  and  O_12 
REMARK    5  A    between atoms: O_12  and  C_17 
REMARK    6  A    between atoms: C_17  and  C_16 
ROOT
ATOM      1  C   UNL d   1     -48.045  13.036  23.069  0.00  0.00     0.279 C 
ATOM      2  O   UNL d   1     -48.218  12.240  23.202  0.00  0.00    -0.265 OA
ATOM      3  N   UNL d   1     -47.269  13.268  22.913  0.00  0.00    -0.204 NA
ENDROOT
BRANCH   1   4
ATOM      4  C   UNL d   1     -48.645  13.597  23.090  0.00  0.00     0.058 A 
ATOM      5  C   UNL d   1     -49.406  13.380  23.324  0.00  0.00     0.004 A 
ATOM      6  C   UNL d   1     -50.005  13.936  23.346  0.00  0.00    -0.004 A 
ATOM      7  C   UNL d   1     -49.848  14.726  23.132  0.00  0.00    -0.023 A 
ATOM      8  C   UNL d   1     -49.087  14.943  22.899  0.00  0.00    -0.004 A 
ATOM      9  C   UNL d   1     -48.486  14.378  22.878  0.00  0.00     0.004 A 
BRANCH   7  10
ATOM     10  C   UNL d   1     -50.452  15.294  23.153  0.00  0.00     0.019 C 
ATOM     11  C   UNL d   1     -51.064  15.865  23.170  0.00  0.00     0.004 C 
ATOM     12  C   UNL d   1     -50.010  15.751  23.697  0.00  0.00     0.004 C 
ATOM     13  C   UNL d   1     -50.893  14.844  22.613  0.00  0.00     0.004 C 
ENDBRANCH   7  10
ENDBRANCH   1   4
BRANCH   3  14
ATOM     14  C   UNL d   1     -46.665  12.707  22.892  0.00  0.00     0.129 C 
BRANCH  14  15
ATOM     15  C   UNL d   1     -45.924  12.907  22.589  0.00  0.00     0.143 C 
BRANCH  15  16
ATOM     16  O   UNL d   1     -45.259  12.464  22.795  0.00  0.00    -0.303 OA
BRANCH  16  17
ATOM     17  C   UNL d   1     -44.561  12.506  22.336  0.00  0.00     0.100 A 
ATOM     18  C   UNL d   1     -44.492  13.063  21.742  0.00  0.00     0.025 A 
ATOM     19  C   UNL d   1     -43.803  13.098  21.295  0.00  0.00     0.002 A 
ATOM     20  C   UNL d   1     -43.185  12.572  21.446  0.00  0.00     0.000 A 
ATOM     21  C   UNL d   1     -43.256  12.012  22.043  0.00  0.00     0.002 A 
ATOM     22  C   UNL d   1     -43.943  11.980  22.487  0.00  0.00     0.025 A 
ENDBRANCH  16  17
ENDBRANCH  15  16
ENDBRANCH  14  15
ENDBRANCH   3  14
TORSDOF 6
ENDMDL
MODEL 4
REMARK VINA RESULT:      -5.0      0.947      5.864
REMARK  6 active torsions:
REMARK  status: ('A' for Active; 'I' for Inactive)
REMARK    1  A    between atoms: C_2  and  C_1 
REMARK       I    between atoms: N_10  and  C_1 
REMARK    2  A    between atoms: C_3  and  C_4 
REMARK    3  A    between atoms: C_16  and  N_10 
REMARK    4  A    between atoms: C_11  and  O_12 
REMARK    5  A    between atoms: O_12  and  C_17 
REMARK    6  A    between atoms: C_17  and  C_16 
ROOT
ATOM      1  C   UNL d   1     -42.613  13.260  21.118  0.00  0.00     0.279 C 
ATOM      2  O   UNL d   1     -42.614  12.548  20.702  0.00  0.00    -0.265 OA
ATOM      3  N   UNL d   1     -43.262  13.467  21.584  0.00  0.00    -0.204 NA
ENDROOT
BRANCH   1   4
ATOM      4  C   UNL d   1     -41.966  13.765  21.069  0.00  0.00     0.058 A 
ATOM      5  C   UNL d   1     -41.245  13.547  21.407  0.00  0.00     0.004 A 
ATOM      6  C   UNL d   1     -40.599  14.047  21.360  0.00  0.00    -0.004 A 
ATOM      7  C   UNL d   1     -40.668  14.780  20.969  0.00  0.00    -0.023 A 
ATOM      8  C   UNL d   1     -41.388  14.997  20.631  0.00  0.00    -0.004 A 
ATOM      9  C   UNL d   1     -42.037  14.490  20.681  0.00  0.00     0.004 A 
BRANCH   7  10
ATOM     10  C   UNL d   1     -40.017  15.291  20.917  0.00  0.00     0.019 C 
ATOM     11  C   UNL d   1     -39.357  15.803  20.862  0.00  0.00     0.004 C 
ATOM     12  C   UNL d   1     -40.400  15.838  21.422  0.00  0.00     0.004 C 
ATOM     13  C   UNL d   1     -39.633  14.751  20.417  0.00  0.00     0.004 C 
ENDBRANCH   7  10
ENDBRANCH   1   4
BRANCH   3  14
ATOM     14  C   UNL d   1     -43.912  12.962  21.634  0.00  0.00     0.129 C 
BRANCH  14  15
ATOM     15  C   UNL d   1     -44.647  13.255  21.869  0.00  0.00     0.143 C 
BRANCH  15  16
ATOM     16  O   UNL d   1     -45.038  12.923  22.515  0.00  0.00    -0.303 OA
BRANCH  16  17
ATOM     17  C   UNL d   1     -45.823  13.148  22.698  0.00  0.00     0.100 A 
ATOM     18  C   UNL d   1     -46.049  13.932  22.646  0.00  0.00     0.025 A 
ATOM     19  C   UNL d   1     -46.821  14.145  22.828  0.00  0.00     0.002 A 
ATOM     20  C   UNL d   1     -47.365  13.570  23.062  0.00  0.00     0.000 A 
ATOM     21  C   UNL d   1     -47.136  12.782  23.114  0.00  0.00     0.002 A 
ATOM     22  C   UNL d   1     -46.367  12.573  22.932  0.00  0.00     0.025 A 
ENDBRANCH  16  17
ENDBRANCH  15  16
ENDBRANCH  14  15
ENDBRANCH   3  14
TORSDOF 6
ENDMDL
MODEL 5
REMARK VINA RESULT:      -4.8      5.944      7.292
REMARK  6 active torsions:
REMARK  status: ('A' for Active; 'I' for Inactive)
REMARK    1  A    between atoms: C_2  and  C_1 
REMARK       I    between atoms: N_10  and  C_1 
REMARK    2  A    between atoms: C_3  and  C_4 
REMARK    3  A    between atoms: C_16  and  N_10 
REMARK    4  A    between atoms: C_11  and  O_12 
REMARK    5  A    between atoms: O_12  and  C_17 
REMARK    6  A    between atoms: C_17  and  C_16 
ROOT
ATOM      1  C   UNL d   1     -39.902  15.198  19.977  0.00  0.00     0.279 C 
ATOM      2  O   UNL d   1     -40.623  15.593  19.906  0.00  0.00    -0.265 OA
ATOM      3  N   UNL d   1     -39.446  15.049  19.305  0.00  0.00    -0.204 NA
ENDROOT
BRANCH   1   4
ATOM      4  C   UNL d   1     -39.638  14.952  20.715  0.00  0.00     0.058 A 
ATOM      5  C   UNL d   1     -39.981  14.297  21.080  0.00  0.00     0.004 A 
ATOM      6  C   UNL d   1     -39.721  14.050  21.815  0.00  0.00    -0.004 A 
ATOM      7  C   UNL d   1     -39.105  14.460  22.198  0.00  0.00    -0.023 A 
ATOM      8  C   UNL d   1     -38.761  15.115  21.833  0.00  0.00    -0.004 A 
ATOM      9  C   UNL d   1     -39.028  15.361  21.091  0.00  0.00     0.004 A 
BRANCH   7  10
ATOM     10  C   UNL d   1     -38.836  14.215  22.943  0.00  0.00     0.019 C 
ATOM     11  C   UNL d   1     -38.564  13.972  23.697  0.00  0.00     0.004 C 
ATOM     12  C   UNL d   1     -38.821  13.420  22.681  0.00  0.00     0.004 C 
ATOM     13  C   UNL d   1     -38.849  15.002  23.207  0.00  0.00     0.004 C 
ENDBRANCH   7  10
ENDBRANCH   1   4
BRANCH   3  14
ATOM     14  C   UNL d   1     -39.710  15.295  18.563  0.00  0.00     0.129 C 
BRANCH  14  15
ATOM     15  C   UNL d   1     -39.206  15.257  17.911  0.00  0.00     0.143 C 
BRANCH  15  16
ATOM     16  O   UNL d   1     -39.495  15.010  17.179  0.00  0.00    -0.303 OA
BRANCH  16  17
ATOM     17  C   UNL d   1     -38.969  14.798  16.564  0.00  0.00     0.100 A 
ATOM     18  C   UNL d   1     -38.648  15.373  16.080  0.00  0.00     0.025 A 
ATOM     19  C   UNL d   1     -38.132  15.156  15.478  0.00  0.00     0.002 A 
ATOM     20  C   UNL d   1     -37.940  14.362  15.364  0.00  0.00     0.000 A 
ATOM     21  C   UNL d   1     -38.263  13.785  15.852  0.00  0.00     0.002 A 
ATOM     22  C   UNL d   1     -38.777  14.004  16.450  0.00  0.00     0.025 A 
ENDBRANCH  16  17
ENDBRANCH  15  16
ENDBRANCH  14  15
ENDBRANCH   3  14
TORSDOF 6
ENDMDL
MODEL 6
REMARK VINA RESULT:      -4.0      5.943      7.713
REMARK  6 active torsions:
REMARK  status: ('A' for Active; 'I' for Inactive)
REMARK    1  A    between atoms: C_2  and  C_1 
REMARK       I    between atoms: N_10  and  C_1 
REMARK    2  A    between atoms: C_3  and  C_4 
REMARK    3  A    between atoms: C_16  and  N_10 
REMARK    4  A    between atoms: C_11  and  O_12 
REMARK    5  A    between atoms: O_12  and  C_17 
REMARK    6  A    between atoms: C_17  and  C_16 
ROOT
ATOM      1  C   UNL d   1     -39.786  15.356  18.161  0.00  0.00     0.279 C 
ATOM      2  O   UNL d   1     -40.399  15.790  17.819  0.00  0.00    -0.265 OA
ATOM      3  N   UNL d   1     -39.165  15.081  17.693  0.00  0.00    -0.204 NA
ENDROOT
BRANCH   1   4
ATOM      4  C   UNL d   1     -39.794  15.197  18.967  0.00  0.00     0.058 A 
ATOM      5  C   UNL d   1     -39.271  15.587  19.471  0.00  0.00     0.004 A 
ATOM      6  C   UNL d   1     -39.276  15.431  20.274  0.00  0.00    -0.004 A 
ATOM      7  C   UNL d   1     -39.812  14.875  20.586  0.00  0.00    -0.023 A 
ATOM      8  C   UNL d   1     -40.336  14.485  20.082  0.00  0.00    -0.004 A 
ATOM      9  C   UNL d   1     -40.327  14.646  19.273  0.00  0.00     0.004 A 
BRANCH   7  10
ATOM     10  C   UNL d   1     -39.823  14.713  21.399  0.00  0.00     0.019 C 
ATOM     11  C   UNL d   1     -39.830  14.544  22.219  0.00  0.00     0.004 C 
ATOM     12  C   UNL d   1     -40.324  15.370  21.530  0.00  0.00     0.004 C 
ATOM     13  C   UNL d   1     -39.326  14.060  21.274  0.00  0.00     0.004 C 
ENDBRANCH   7  10
ENDBRANCH   1   4
BRANCH   3  14
ATOM     14  C   UNL d   1     -39.155  15.240  16.883  0.00  0.00     0.129 C 
BRANCH  14  15
ATOM     15  C   UNL d   1     -38.910  14.659  16.350  0.00  0.00     0.143 C 
BRANCH  15  16
ATOM     16  O   UNL d   1     -38.362  14.843  15.761  0.00  0.00    -0.303 OA
BRANCH  16  17
ATOM     17  C   UNL d   1     -38.219  14.310  15.133  0.00  0.00     0.100 A 
ATOM     18  C   UNL d   1     -38.095  13.516  15.286  0.00  0.00     0.025 A 
ATOM     19  C   UNL d   1     -37.955  12.999  14.663  0.00  0.00     0.002 A 
ATOM     20  C   UNL d   1     -37.940  13.280  13.888  0.00  0.00     0.000 A 
ATOM     21  C   UNL d   1     -38.064  14.078  13.735  0.00  0.00     0.002 A 
ATOM     22  C   UNL d   1     -38.203  14.591  14.357  0.00  0.00     0.025 A 
ENDBRANCH  16  17
ENDBRANCH  15  16
ENDBRANCH  14  15
ENDBRANCH   3  14
TORSDOF 6
ENDMDL
