MODEL 1
REMARK VINA RESULT:      33.2      0.000      0.000
REMARK  5 active torsions:
REMARK  status: ('A' for Active; 'I' for Inactive)
REMARK    1  A    between atoms: C_2  and  S_1 
REMARK    2  A    between atoms: N_3  and  S_1 
REMARK    3  A    between atoms: C_6  and  C_7 
REMARK    4  A    between atoms: C_7  and  C_8 
REMARK    5  A    between atoms: C_8  and  C_12 
ROOT
ATOM      1  C   UNL d   1      59.343  49.652  50.335  0.00  0.00     0.104 A 
ATOM      2  C   UNL d   1      59.742  49.664  49.632  0.00  0.00     0.012 A 
ATOM      3  C   UNL d   1      59.739  49.665  51.043  0.00  0.00     0.013 A 
ATOM      4  C   UNL d   1      60.579  49.693  51.045  0.00  0.00     0.001 A 
ATOM      5  C   UNL d   1      60.582  49.691  49.634  0.00  0.00     0.001 A 
ATOM      6  C   UNL d   1      60.977  49.705  50.339  0.00  0.00     0.000 A 
ATOM      7  C   UNL d   1      59.324  49.649  48.904  0.00  0.00     0.001 C 
ENDROOT
BRANCH   1   8
ATOM      8  S   UNL d   1      58.503  49.624  50.333  0.00  0.00     0.271 S 
ATOM      9  O   UNL d   1      58.499  49.706  51.147  0.00  0.00    -0.200 OA
ATOM     10  O   UNL d   1      58.508  49.540  49.497  0.00  0.00    -0.200 OA
BRANCH   8  11
ATOM     11  N   UNL d   1      57.687  49.598  50.339  0.00  0.00    -0.229 N 
ATOM     12  C   UNL d   1      57.274  49.684  49.634  0.00  0.00     0.092 A 
ATOM     13  C   UNL d   1      56.446  49.658  49.642  0.00  0.00     0.020 A 
ATOM     14  C   UNL d   1      56.034  49.545  50.357  0.00  0.00     0.003 A 
ATOM     15  C   UNL d   1      56.468  49.463  51.043  0.00  0.00     0.020 A 
ATOM     16  C   UNL d   1      57.293  49.489  51.040  0.00  0.00     0.092 A 
ENDBRANCH   8  11
ENDBRANCH   1   8
BRANCH   4  17
ATOM     17  C   UNL d   1      60.989  49.707  51.792  0.00  0.00     0.006 C 
BRANCH  17  18
ATOM     18  C   UNL d   1      60.781  49.190  52.414  0.00  0.00     0.070 C 
BRANCH  18  19
ATOM     19  C   UNL d   1      60.785  49.455  53.188  0.00  0.00     0.211 C 
ATOM     20  O   UNL d   1      61.501  49.672  53.554  0.00  0.00    -0.644 OA
ATOM     21  O   UNL d   1      60.087  49.508  53.610  0.00  0.00    -0.644 OA
ENDBRANCH  18  19
ENDBRANCH  17  18
ENDBRANCH   4  17
TORSDOF 5
ENDMDL
