MODEL 1
REMARK VINA RESULT:      -5.7      0.000      0.000
REMARK  6 active torsions:
REMARK  status: ('A' for Active; 'I' for Inactive)
REMARK    1  A    between atoms: C_9  and  N_1 
REMARK    2  A    between atoms: S_11  and  C_6 
REMARK    3  A    between atoms: C_24  and  S_11 
REMARK    4  A    between atoms: C_13  and  C_24 
REMARK       I    between atoms: N_18  and  C_13 
REMARK    5  A    between atoms: C_26  and  N_18 
REMARK    6  A    between atoms: C_25  and  C_26 
ROOT
ATOM      1  N   UNL d   1     -47.717  13.354  22.339  0.00  0.00    -0.212 N 
ATOM      2  C   UNL d   1     -46.984  13.703  22.465  0.00  0.00     0.169 A 
ATOM      3  N   UNL d   1     -47.605  12.611  22.036  0.00  0.00    -0.162 NA
ATOM      4  C   UNL d   1     -46.406  13.161  22.235  0.00  0.00     0.081 A 
ATOM      5  C   UNL d   1     -46.789  12.483  21.968  0.00  0.00     0.126 A 
ATOM      6  C   UNL d   1     -45.610  13.356  22.297  0.00  0.00     0.117 A 
ATOM      7  N   UNL d   1     -46.766  14.440  22.758  0.00  0.00    -0.205 NA
ATOM      8  N   UNL d   1     -45.389  14.094  22.591  0.00  0.00    -0.217 NA
ATOM      9  C   UNL d   1     -45.966  14.636  22.822  0.00  0.00     0.201 A 
ENDROOT
BRANCH   6  10
ATOM     10  S   UNL d   1     -45.033  12.814  22.066  0.00  0.00    -0.062 SA
BRANCH  10  11
ATOM     11  C   UNL d   1     -44.294  13.076  21.841  0.00  0.00     0.099 C 
BRANCH  11  12
ATOM     12  C   UNL d   1     -43.660  12.549  21.812  0.00  0.00     0.286 C 
ATOM     13  N   UNL d   1     -42.948  12.778  21.463  0.00  0.00    -0.206 NA
ATOM     14  O   UNL d   1     -43.738  11.792  22.133  0.00  0.00    -0.265 OA
BRANCH  13  15
ATOM     15  C   UNL d   1     -42.871  13.535  21.142  0.00  0.00     0.102 C 
BRANCH  15  16
ATOM     16  C   UNL d   1     -42.139  13.789  20.856  0.00  0.00     0.021 A 
ATOM     17  C   UNL d   1     -41.977  13.755  20.048  0.00  0.00     0.028 A 
ATOM     18  C   UNL d   1     -41.246  14.009  19.763  0.00  0.00     0.119 A 
ATOM     19  O   UNL d   1     -40.936  14.038  18.995  0.00  0.00    -0.300 OA
ATOM     20  C   UNL d   1     -40.676  14.298  20.285  0.00  0.00     0.119 A 
ATOM     21  C   UNL d   1     -40.181  14.343  19.049  0.00  0.00     0.304 A 
ATOM     22  O   UNL d   1     -40.015  14.504  19.833  0.00  0.00    -0.300 OA
ATOM     23  C   UNL d   1     -40.838  14.332  21.094  0.00  0.00     0.026 A 
ATOM     24  C   UNL d   1     -41.569  14.078  21.379  0.00  0.00     0.004 A 
ENDBRANCH  15  16
ENDBRANCH  13  15
ENDBRANCH  11  12
ENDBRANCH  10  11
ENDBRANCH   6  10
BRANCH   1  25
ATOM     25  C   UNL d   1     -48.412  13.770  22.521  0.00  0.00     0.085 A 
ATOM     26  C   UNL d   1     -48.756  14.261  21.958  0.00  0.00     0.020 A 
ATOM     27  C   UNL d   1     -49.441  14.671  22.135  0.00  0.00     0.013 A 
ATOM     28  C   UNL d   1     -49.791  14.591  22.887  0.00  0.00     0.058 A 
ATOM     29  C   UNL d   1     -49.435  14.094  23.444  0.00  0.00     0.013 A 
ATOM     30 CL   UNL d   1     -50.493  15.008  23.077  0.00  0.00    -0.082 Cl
ATOM     31  C   UNL d   1     -48.753  13.689  23.260  0.00  0.00     0.020 A 
ENDBRANCH   1  25
TORSDOF 6
ENDMDL
MODEL 2
REMARK VINA RESULT:      -4.0      4.013      8.137
REMARK  6 active torsions:
REMARK  status: ('A' for Active; 'I' for Inactive)
REMARK    1  A    between atoms: C_9  and  N_1 
REMARK    2  A    between atoms: S_11  and  C_6 
REMARK    3  A    between atoms: C_24  and  S_11 
REMARK    4  A    between atoms: C_13  and  C_24 
REMARK       I    between atoms: N_18  and  C_13 
REMARK    5  A    between atoms: C_26  and  N_18 
REMARK    6  A    between atoms: C_25  and  C_26 
ROOT
ATOM      1  N   UNL d   1     -38.789  14.151  17.613  0.00  0.00    -0.212 N 
ATOM      2  C   UNL d   1     -39.570  14.291  17.824  0.00  0.00     0.169 A 
ATOM      3  N   UNL d   1     -38.344  14.077  18.286  0.00  0.00    -0.162 NA
ATOM      4  C   UNL d   1     -39.608  14.303  18.648  0.00  0.00     0.081 A 
ATOM      5  C   UNL d   1     -38.849  14.171  18.937  0.00  0.00     0.126 A 
ATOM      6  C   UNL d   1     -40.326  14.433  19.026  0.00  0.00     0.117 A 
ATOM      7  N   UNL d   1     -40.251  14.409  17.378  0.00  0.00    -0.205 NA
ATOM      8  N   UNL d   1     -41.010  14.552  18.581  0.00  0.00    -0.217 NA
ATOM      9  C   UNL d   1     -40.973  14.539  17.757  0.00  0.00     0.201 A 
ENDROOT
BRANCH   6  10
ATOM     10  S   UNL d   1     -40.363  14.445  19.850  0.00  0.00    -0.062 SA
BRANCH  10  11
ATOM     11  C   UNL d   1     -40.990  14.094  20.235  0.00  0.00     0.099 C 
BRANCH  11  12
ATOM     12  C   UNL d   1     -41.065  14.168  21.054  0.00  0.00     0.286 C 
ATOM     13  N   UNL d   1     -41.705  13.819  21.442  0.00  0.00    -0.206 NA
ATOM     14  O   UNL d   1     -40.501  14.590  21.484  0.00  0.00    -0.265 OA
BRANCH  13  15
ATOM     15  C   UNL d   1     -42.269  13.396  21.012  0.00  0.00     0.102 C 
BRANCH  15  16
ATOM     16  C   UNL d   1     -42.928  13.080  21.395  0.00  0.00     0.021 A 
ATOM     17  C   UNL d   1     -43.631  13.510  21.431  0.00  0.00     0.028 A 
ATOM     18  C   UNL d   1     -44.289  13.193  21.815  0.00  0.00     0.119 A 
ATOM     19  O   UNL d   1     -45.052  13.494  21.934  0.00  0.00    -0.300 OA
ATOM     20  C   UNL d   1     -44.245  12.445  22.162  0.00  0.00     0.119 A 
ATOM     21  C   UNL d   1     -45.471  12.932  22.353  0.00  0.00     0.304 A 
ATOM     22  O   UNL d   1     -44.986  12.289  22.496  0.00  0.00    -0.300 OA
ATOM     23  C   UNL d   1     -43.542  12.015  22.126  0.00  0.00     0.026 A 
ATOM     24  C   UNL d   1     -42.883  12.332  21.743  0.00  0.00     0.004 A 
ENDBRANCH  15  16
ENDBRANCH  13  15
ENDBRANCH  11  12
ENDBRANCH  10  11
ENDBRANCH   6  10
BRANCH   1  25
ATOM     25  C   UNL d   1     -38.576  14.108  16.812  0.00  0.00     0.085 A 
ATOM     26  C   UNL d   1     -38.432  14.797  16.388  0.00  0.00     0.020 A 
ATOM     27  C   UNL d   1     -38.223  14.758  15.598  0.00  0.00     0.013 A 
ATOM     28  C   UNL d   1     -38.154  14.016  15.223  0.00  0.00     0.058 A 
ATOM     29  C   UNL d   1     -38.301  13.331  15.661  0.00  0.00     0.013 A 
ATOM     30 CL   UNL d   1     -37.940  13.966  14.414  0.00  0.00    -0.082 Cl
ATOM     31  C   UNL d   1     -38.510  13.379  16.447  0.00  0.00     0.020 A 
ENDBRANCH   1  25
TORSDOF 6
ENDMDL
MODEL 3
REMARK VINA RESULT:      -3.5      3.064      7.147
REMARK  6 active torsions:
REMARK  status: ('A' for Active; 'I' for Inactive)
REMARK    1  A    between atoms: C_9  and  N_1 
REMARK    2  A    between atoms: S_11  and  C_6 
REMARK    3  A    between atoms: C_24  and  S_11 
REMARK    4  A    between atoms: C_13  and  C_24 
REMARK       I    between atoms: N_18  and  C_13 
REMARK    5  A    between atoms: C_26  and  N_18 
REMARK    6  A    between atoms: C_25  and  C_26 
ROOT
ATOM      1  N   UNL d   1     -40.079  14.289  20.682  0.00  0.00    -0.212 N 
ATOM      2  C   UNL d   1     -40.818  14.079  20.392  0.00  0.00     0.169 A 
ATOM      3  N   UNL d   1     -40.016  14.037  21.449  0.00  0.00    -0.162 NA
ATOM      4  C   UNL d   1     -41.220  13.688  20.996  0.00  0.00     0.081 A 
ATOM      5  C   UNL d   1     -40.725  13.660  21.652  0.00  0.00     0.126 A 
ATOM      6  C   UNL d   1     -41.983  13.408  20.870  0.00  0.00     0.117 A 
ATOM      7  N   UNL d   1     -41.178  14.191  19.661  0.00  0.00    -0.205 NA
ATOM      8  N   UNL d   1     -42.346  13.519  20.137  0.00  0.00    -0.217 NA
ATOM      9  C   UNL d   1     -41.944  13.911  19.533  0.00  0.00     0.201 A 
ENDROOT
BRANCH   6  10
ATOM     10  S   UNL d   1     -42.385  13.017  21.474  0.00  0.00    -0.062 SA
BRANCH  10  11
ATOM     11  C   UNL d   1     -43.191  12.906  21.423  0.00  0.00     0.099 C 
BRANCH  11  12
ATOM     12  C   UNL d   1     -43.566  12.364  21.919  0.00  0.00     0.286 C 
ATOM     13  N   UNL d   1     -44.364  12.461  22.109  0.00  0.00    -0.206 NA
ATOM     14  O   UNL d   1     -43.144  11.724  22.225  0.00  0.00    -0.265 OA
BRANCH  13  15
ATOM     15  C   UNL d   1     -44.786  13.102  21.803  0.00  0.00     0.102 C 
BRANCH  15  16
ATOM     16  C   UNL d   1     -45.516  13.308  22.128  0.00  0.00     0.021 A 
ATOM     17  C   UNL d   1     -46.156  12.791  22.067  0.00  0.00     0.028 A 
ATOM     18  C   UNL d   1     -46.886  12.998  22.393  0.00  0.00     0.119 A 
ATOM     19  O   UNL d   1     -47.610  12.597  22.415  0.00  0.00    -0.300 OA
ATOM     20  C   UNL d   1     -46.976  13.721  22.780  0.00  0.00     0.119 A 
ATOM     21  C   UNL d   1     -48.139  13.073  22.813  0.00  0.00     0.304 A 
ATOM     22  O   UNL d   1     -47.760  13.761  23.039  0.00  0.00    -0.300 OA
ATOM     23  C   UNL d   1     -46.336  14.238  22.841  0.00  0.00     0.026 A 
ATOM     24  C   UNL d   1     -45.606  14.032  22.515  0.00  0.00     0.004 A 
ENDBRANCH  15  16
ENDBRANCH  13  15
ENDBRANCH  11  12
ENDBRANCH  10  11
ENDBRANCH   6  10
BRANCH   1  25
ATOM     25  C   UNL d   1     -39.541  14.695  20.196  0.00  0.00     0.085 A 
ATOM     26  C   UNL d   1     -39.010  14.275  19.730  0.00  0.00     0.020 A 
ATOM     27  C   UNL d   1     -38.480  14.672  19.251  0.00  0.00     0.013 A 
ATOM     28  C   UNL d   1     -38.479  15.506  19.233  0.00  0.00     0.058 A 
ATOM     29  C   UNL d   1     -39.019  15.916  19.706  0.00  0.00     0.013 A 
ATOM     30 CL   UNL d   1     -37.940  15.921  18.745  0.00  0.00    -0.082 Cl
ATOM     31  C   UNL d   1     -39.543  15.513  20.182  0.00  0.00     0.020 A 
ENDBRANCH   1  25
TORSDOF 6
ENDMDL
