MODEL 1
REMARK VINA RESULT:      73.9      0.000      0.000
REMARK  9 active torsions:
REMARK  status: ('A' for Active; 'I' for Inactive)
REMARK    1  A    between atoms: C_12  and  C_1 
REMARK       I    between atoms: C_4  and  N_11 
REMARK    2  A    between atoms: C_5  and  C_4 
REMARK    3  A    between atoms: O_18  and  C_6 
REMARK    4  A    between atoms: O_19  and  C_7 
REMARK    5  A    between atoms: O_20  and  C_8 
REMARK    6  A    between atoms: N_11  and  C_15 
REMARK    7  A    between atoms: C_26  and  O_18 
REMARK    8  A    between atoms: C_28  and  O_19 
REMARK    9  A    between atoms: C_27  and  O_20 
ROOT
ATOM      1  C   UNL d   1     -55.397-101.654 -41.181  0.00  0.00     0.279 C 
ATOM      2  N   UNL d   1     -54.715-101.624 -40.712  0.00  0.00    -0.208 NA
ATOM      3  O   UNL d   1     -56.110-101.915 -40.859  0.00  0.00    -0.265 OA
ENDROOT
BRANCH   1   4
ATOM      4  C   UNL d   1     -55.360-101.422 -41.970  0.00  0.00     0.062 A 
ATOM      5  C   UNL d   1     -55.609-100.666 -42.190  0.00  0.00     0.032 A 
ATOM      6  C   UNL d   1     -55.572-100.436 -42.978  0.00  0.00     0.125 A 
ATOM      7  C   UNL d   1     -55.287-100.957 -43.549  0.00  0.00     0.145 A 
ATOM      8  C   UNL d   1     -55.039-101.708 -43.330  0.00  0.00     0.125 A 
ATOM      9  C   UNL d   1     -55.076-101.936 -42.545  0.00  0.00     0.032 A 
BRANCH   6  10
ATOM     10  O   UNL d   1     -55.824 -99.674 -43.198  0.00  0.00    -0.303 OA
BRANCH  10  11
ATOM     11  C   UNL d   1     -56.632 -99.526 -43.305  0.00  0.00     0.123 C 
ATOM     12  C   UNL d   1     -56.930 -98.761 -43.171  0.00  0.00     0.029 C 
ENDBRANCH  10  11
ENDBRANCH   6  10
BRANCH   7  13
ATOM     13  O   UNL d   1     -55.250-100.723 -44.340  0.00  0.00    -0.301 OA
BRANCH  13  14
ATOM     14  C   UNL d   1     -55.535 -99.985 -44.562  0.00  0.00     0.123 C 
ATOM     15  C   UNL d   1     -55.016 -99.416 -44.861  0.00  0.00     0.029 C 
ENDBRANCH  13  14
ENDBRANCH   7  13
BRANCH   8  16
ATOM     16  O   UNL d   1     -54.750-102.236 -43.906  0.00  0.00    -0.303 OA
BRANCH  16  17
ATOM     17  C   UNL d   1     -55.281-102.622 -44.408  0.00  0.00     0.123 C 
ATOM     18  C   UNL d   1     -55.088-102.721 -45.209  0.00  0.00     0.029 C 
ENDBRANCH  16  17
ENDBRANCH   8  16
ENDBRANCH   1   4
BRANCH   2  19
ATOM     19  C   UNL d   1     -54.747-101.857 -39.912  0.00  0.00     0.085 A 
ATOM     20  C   UNL d   1     -54.738-101.278 -39.319  0.00  0.00     0.022 A 
ATOM     21  C   UNL d   1     -54.770-101.504 -38.529  0.00  0.00     0.037 A 
ATOM     22  C   UNL d   1     -54.810-102.303 -38.324  0.00  0.00     0.003 A 
ATOM     23  C   UNL d   1     -54.819-102.879 -38.921  0.00  0.00     0.002 A 
ATOM     24  C   UNL d   1     -54.787-102.660 -39.710  0.00  0.00     0.019 A 
BRANCH  21  25
ATOM     25  C   UNL d   1     -54.761-100.931 -37.935  0.00  0.00     0.162 A 
ATOM     26  N   UNL d   1     -54.738-100.108 -37.966  0.00  0.00    -0.225 NA
ATOM     27  C   UNL d   1     -54.740 -99.826 -37.190  0.00  0.00     0.101 A 
ATOM     28  C   UNL d   1     -54.722 -99.057 -36.881  0.00  0.00     0.021 A 
ATOM     29  C   UNL d   1     -54.764-100.473 -36.691  0.00  0.00     0.101 A 
ATOM     30  C   UNL d   1     -54.730 -98.950 -36.067  0.00  0.00     0.002 A 
ATOM     31  C   UNL d   1     -54.755 -99.609 -35.560  0.00  0.00     0.002 A 
ATOM     32  C   UNL d   1     -54.772-100.363 -35.869  0.00  0.00     0.021 A 
ATOM     33  N   UNL d   1     -54.778-101.155 -37.149  0.00  0.00    -0.225 NA
ENDBRANCH  21  25
ENDBRANCH   2  19
TORSDOF 9
ENDMDL
