MODEL 1
REMARK VINA RESULT:      -2.6      0.000      0.000
REMARK  4 active torsions:
REMARK  status: ('A' for Active; 'I' for Inactive)
REMARK    1  A    between atoms: N_2  and  C_1 
REMARK    2  A    between atoms: N_3  and  C_1 
REMARK       I    between atoms: C_4  and  N_2 
REMARK    3  A    between atoms: C_5  and  N_3 
REMARK    4  A    between atoms: C_9  and  C_4 
ROOT
ATOM      1  C   UNL d   1      30.923  16.200 -23.817  0.00  0.00     0.276 C 
ATOM      2  S   UNL d   1      31.199  15.455 -23.594  0.00  0.00    -0.023 SA
ENDROOT
BRANCH   1   3
ATOM      3  N   UNL d   1      30.125  16.299 -23.999  0.00  0.00    -0.168 NA
ATOM      4  C   UNL d   1      29.539  15.959 -23.524  0.00  0.00     0.282 C 
ATOM      5  O   UNL d   1      29.761  15.517 -22.863  0.00  0.00    -0.265 OA
BRANCH   4   6
ATOM      6  C   UNL d   1      28.740  16.061 -23.709  0.00  0.00     0.058 C 
ATOM      7  C   UNL d   1      28.369  16.760 -23.521  0.00  0.00     0.005 C 
ATOM      8  C   UNL d   1      28.328  15.453 -24.081  0.00  0.00     0.005 C 
ENDBRANCH   4   6
ENDBRANCH   1   3
BRANCH   1   9
ATOM      9  N   UNL d   1      31.440  16.844 -23.860  0.00  0.00    -0.353 NA
BRANCH   9  10
ATOM     10  C   UNL d   1      31.954  17.484 -23.904  0.00  0.00     0.216 A 
ATOM     11  N   UNL d   1      32.350  17.738 -23.222  0.00  0.00    -0.215 NA
ATOM     12  C   UNL d   1      32.865  18.379 -23.268  0.00  0.00     0.102 A 
ATOM     13  C   UNL d   1      32.983  18.763 -23.990  0.00  0.00     0.021 A 
ATOM     14  C   UNL d   1      32.592  18.511 -24.661  0.00  0.00     0.006 A 
ATOM     15  C   UNL d   1      32.073  17.870 -24.629  0.00  0.00     0.052 A 
ENDBRANCH   9  10
ENDBRANCH   1   9
TORSDOF 4
ENDMDL
MODEL 2
REMARK VINA RESULT:      -2.4      4.081      5.658
REMARK  4 active torsions:
REMARK  status: ('A' for Active; 'I' for Inactive)
REMARK    1  A    between atoms: N_2  and  C_1 
REMARK    2  A    between atoms: N_3  and  C_1 
REMARK       I    between atoms: C_4  and  N_2 
REMARK    3  A    between atoms: C_5  and  N_3 
REMARK    4  A    between atoms: C_9  and  C_4 
ROOT
ATOM      1  C   UNL d   1      33.138  20.934 -21.465  0.00  0.00     0.276 C 
ATOM      2  S   UNL d   1      33.208  20.709 -20.674  0.00  0.00    -0.023 SA
ENDROOT
BRANCH   1   3
ATOM      3  N   UNL d   1      33.067  21.733 -21.655  0.00  0.00    -0.168 NA
ATOM      4  C   UNL d   1      32.485  22.201 -21.299  0.00  0.00     0.282 C 
ATOM      5  O   UNL d   1      31.972  21.859 -20.749  0.00  0.00    -0.265 OA
BRANCH   4   6
ATOM      6  C   UNL d   1      32.416  23.001 -21.492  0.00  0.00     0.058 C 
ATOM      7  C   UNL d   1      31.748  23.412 -21.275  0.00  0.00     0.005 C 
ATOM      8  C   UNL d   1      33.025  23.375 -21.902  0.00  0.00     0.005 C 
ENDBRANCH   4   6
ENDBRANCH   1   3
BRANCH   1   9
ATOM      9  N   UNL d   1      33.140  20.365 -22.065  0.00  0.00    -0.353 NA
BRANCH   9  10
ATOM     10  C   UNL d   1      33.140  19.799 -22.661  0.00  0.00     0.216 A 
ATOM     11  N   UNL d   1      33.241  20.034 -23.449  0.00  0.00    -0.215 NA
ATOM     12  C   UNL d   1      33.241  19.465 -24.044  0.00  0.00     0.102 A 
ATOM     13  C   UNL d   1      33.141  18.668 -23.853  0.00  0.00     0.021 A 
ATOM     14  C   UNL d   1      33.041  18.438 -23.076  0.00  0.00     0.006 A 
ATOM     15  C   UNL d   1      33.039  18.998 -22.470  0.00  0.00     0.052 A 
ENDBRANCH   9  10
ENDBRANCH   1   9
TORSDOF 4
ENDMDL
MODEL 3
REMARK VINA RESULT:      -2.3      2.813      4.568
REMARK  4 active torsions:
REMARK  status: ('A' for Active; 'I' for Inactive)
REMARK    1  A    between atoms: N_2  and  C_1 
REMARK    2  A    between atoms: N_3  and  C_1 
REMARK       I    between atoms: C_4  and  N_2 
REMARK    3  A    between atoms: C_5  and  N_3 
REMARK    4  A    between atoms: C_9  and  C_4 
ROOT
ATOM      1  C   UNL d   1      32.931  19.363 -22.947  0.00  0.00     0.276 C 
ATOM      2  S   UNL d   1      33.228  19.870 -23.526  0.00  0.00    -0.023 SA
ENDROOT
BRANCH   1   3
ATOM      3  N   UNL d   1      32.839  19.636 -22.176  0.00  0.00    -0.168 NA
ATOM      4  C   UNL d   1      32.946  20.437 -21.996  0.00  0.00     0.282 C 
ATOM      5  O   UNL d   1      33.147  20.962 -22.600  0.00  0.00    -0.265 OA
BRANCH   4   6
ATOM      6  C   UNL d   1      32.853  20.708 -21.221  0.00  0.00     0.058 C 
ATOM      7  C   UNL d   1      33.231  20.324 -20.612  0.00  0.00     0.005 C 
ATOM      8  C   UNL d   1      32.377  21.364 -21.074  0.00  0.00     0.005 C 
ENDBRANCH   4   6
ENDBRANCH   1   3
BRANCH   1   9
ATOM      9  N   UNL d   1      32.727  18.584 -23.137  0.00  0.00    -0.353 NA
BRANCH   9  10
ATOM     10  C   UNL d   1      32.523  17.810 -23.324  0.00  0.00     0.216 A 
ATOM     11  N   UNL d   1      31.801  17.656 -23.700  0.00  0.00    -0.215 NA
ATOM     12  C   UNL d   1      31.599  16.880 -23.886  0.00  0.00     0.102 A 
ATOM     13  C   UNL d   1      32.114  16.263 -23.699  0.00  0.00     0.021 A 
ATOM     14  C   UNL d   1      32.826  16.416 -23.330  0.00  0.00     0.006 A 
ATOM     15  C   UNL d   1      33.041  17.189 -23.137  0.00  0.00     0.052 A 
ENDBRANCH   9  10
ENDBRANCH   1   9
TORSDOF 4
ENDMDL
MODEL 4
REMARK VINA RESULT:      -2.3      2.726      3.914
REMARK  4 active torsions:
REMARK  status: ('A' for Active; 'I' for Inactive)
REMARK    1  A    between atoms: N_2  and  C_1 
REMARK    2  A    between atoms: N_3  and  C_1 
REMARK       I    between atoms: C_4  and  N_2 
REMARK    3  A    between atoms: C_5  and  N_3 
REMARK    4  A    between atoms: C_9  and  C_4 
ROOT
ATOM      1  C   UNL d   1      32.872  19.059 -22.683  0.00  0.00     0.276 C 
ATOM      2  S   UNL d   1      33.241  18.436 -22.289  0.00  0.00    -0.023 SA
ENDROOT
BRANCH   1   3
ATOM      3  N   UNL d   1      32.499  18.920 -23.405  0.00  0.00    -0.168 NA
ATOM      4  C   UNL d   1      32.387  18.148 -23.680  0.00  0.00     0.282 C 
ATOM      5  O   UNL d   1      32.653  17.514 -23.222  0.00  0.00    -0.265 OA
BRANCH   4   6
ATOM      6  C   UNL d   1      32.013  18.012 -24.404  0.00  0.00     0.058 C 
ATOM      7  C   UNL d   1      32.375  18.243 -25.094  0.00  0.00     0.005 C 
ATOM      8  C   UNL d   1      31.276  17.644 -24.418  0.00  0.00     0.005 C 
ENDBRANCH   4   6
ENDBRANCH   1   3
BRANCH   1   9
ATOM      9  N   UNL d   1      32.874  19.821 -22.359  0.00  0.00    -0.353 NA
BRANCH   9  10
ATOM     10  C   UNL d   1      32.878  20.577 -22.037  0.00  0.00     0.216 A 
ATOM     11  N   UNL d   1      33.239  21.196 -22.452  0.00  0.00    -0.215 NA
ATOM     12  C   UNL d   1      33.241  21.953 -22.128  0.00  0.00     0.102 A 
ATOM     13  C   UNL d   1      32.885  22.090 -21.395  0.00  0.00     0.021 A 
ATOM     14  C   UNL d   1      32.530  21.479 -20.988  0.00  0.00     0.006 A 
ATOM     15  C   UNL d   1      32.520  20.715 -21.301  0.00  0.00     0.052 A 
ENDBRANCH   9  10
ENDBRANCH   1   9
TORSDOF 4
ENDMDL
MODEL 5
REMARK VINA RESULT:      -2.1      1.469      2.145
REMARK  4 active torsions:
REMARK  status: ('A' for Active; 'I' for Inactive)
REMARK    1  A    between atoms: N_2  and  C_1 
REMARK    2  A    between atoms: N_3  and  C_1 
REMARK       I    between atoms: C_4  and  N_2 
REMARK    3  A    between atoms: C_5  and  N_3 
REMARK    4  A    between atoms: C_9  and  C_4 
ROOT
ATOM      1  C   UNL d   1      32.474  17.524 -23.702  0.00  0.00     0.276 C 
ATOM      2  S   UNL d   1      33.067  17.010 -23.956  0.00  0.00    -0.023 SA
ENDROOT
BRANCH   1   3
ATOM      3  N   UNL d   1      31.684  17.329 -23.834  0.00  0.00    -0.168 NA
ATOM      4  C   UNL d   1      31.427  16.544 -23.777  0.00  0.00     0.282 C 
ATOM      5  O   UNL d   1      31.973  15.955 -23.585  0.00  0.00    -0.265 OA
BRANCH   4   6
ATOM      6  C   UNL d   1      30.635  16.352 -23.910  0.00  0.00     0.058 C 
ATOM      7  C   UNL d   1      30.238  15.889 -23.373  0.00  0.00     0.005 C 
ATOM      8  C   UNL d   1      30.256  16.633 -24.586  0.00  0.00     0.005 C 
ENDBRANCH   4   6
ENDBRANCH   1   3
BRANCH   1   9
ATOM      9  N   UNL d   1      32.666  18.230 -23.317  0.00  0.00    -0.353 NA
BRANCH   9  10
ATOM     10  C   UNL d   1      32.858  18.933 -22.936  0.00  0.00     0.216 A 
ATOM     11  N   UNL d   1      32.997  18.931 -22.120  0.00  0.00    -0.215 NA
ATOM     12  C   UNL d   1      33.189  19.636 -21.740  0.00  0.00     0.102 A 
ATOM     13  C   UNL d   1      33.241  20.337 -22.173  0.00  0.00     0.021 A 
ATOM     14  C   UNL d   1      33.103  20.337 -22.977  0.00  0.00     0.006 A 
ATOM     15  C   UNL d   1      32.910  19.638 -23.371  0.00  0.00     0.052 A 
ENDBRANCH   9  10
ENDBRANCH   1   9
TORSDOF 4
ENDMDL
MODEL 6
REMARK VINA RESULT:       0.1      1.301      3.763
REMARK  4 active torsions:
REMARK  status: ('A' for Active; 'I' for Inactive)
REMARK    1  A    between atoms: N_2  and  C_1 
REMARK    2  A    between atoms: N_3  and  C_1 
REMARK       I    between atoms: C_4  and  N_2 
REMARK    3  A    between atoms: C_5  and  N_3 
REMARK    4  A    between atoms: C_9  and  C_4 
ROOT
ATOM      1  C   UNL d   1      31.883  16.637 -23.689  0.00  0.00     0.276 C 
ATOM      2  S   UNL d   1      32.470  16.068 -23.802  0.00  0.00    -0.023 SA
ENDROOT
BRANCH   1   3
ATOM      3  N   UNL d   1      32.092  17.434 -23.652  0.00  0.00    -0.168 NA
ATOM      4  C   UNL d   1      32.768  17.675 -23.242  0.00  0.00     0.282 C 
ATOM      5  O   UNL d   1      33.236  17.107 -22.866  0.00  0.00    -0.265 OA
BRANCH   4   6
ATOM      6  C   UNL d   1      32.974  18.474 -23.207  0.00  0.00     0.058 C 
ATOM      7  C   UNL d   1      33.102  18.826 -22.485  0.00  0.00     0.005 C 
ATOM      8  C   UNL d   1      33.048  18.906 -23.905  0.00  0.00     0.005 C 
ENDBRANCH   4   6
ENDBRANCH   1   3
BRANCH   1   9
ATOM      9  N   UNL d   1      31.090  16.413 -23.613  0.00  0.00    -0.353 NA
BRANCH   9  10
ATOM     10  C   UNL d   1      30.303  16.191 -23.536  0.00  0.00     0.216 A 
ATOM     11  N   UNL d   1      30.081  15.673 -22.929  0.00  0.00    -0.215 NA
ATOM     12  C   UNL d   1      29.292  15.452 -22.854  0.00  0.00     0.102 A 
ATOM     13  C   UNL d   1      28.728  15.747 -23.381  0.00  0.00     0.021 A 
ATOM     14  C   UNL d   1      28.949  16.258 -23.978  0.00  0.00     0.006 A 
ATOM     15  C   UNL d   1      29.737  16.487 -24.065  0.00  0.00     0.052 A 
ENDBRANCH   9  10
ENDBRANCH   1   9
TORSDOF 4
ENDMDL
