MODEL 1
REMARK VINA RESULT:      -2.3      0.000      0.000
REMARK  4 active torsions:
REMARK  status: ('A' for Active; 'I' for Inactive)
REMARK    1  A    between atoms: C_6  and  C_1 
REMARK    2  A    between atoms: S_7  and  C_3 
REMARK    3  A    between atoms: C_17  and  S_7 
REMARK    4  A    between atoms: C_18  and  C_17 
ROOT
ATOM      1  C   UNL d   1     -41.728-123.264 -51.429  0.00  0.00     0.087 A 
ATOM      2  N   UNL d   1     -41.918-123.811 -52.007  0.00  0.00    -0.245 NA
ATOM      3  C   UNL d   1     -41.405-122.592 -51.783  0.00  0.00     0.049 A 
ATOM      4  C   UNL d   1     -41.390-122.717 -52.590  0.00  0.00     0.025 A 
ATOM      5  C   UNL d   1     -41.708-123.470 -52.730  0.00  0.00     0.082 A 
ATOM      6  C   UNL d   1     -41.129-122.239 -53.207  0.00  0.00     0.002 A 
ATOM      7  C   UNL d   1     -41.769-123.759 -53.486  0.00  0.00     0.019 A 
ATOM      8  C   UNL d   1     -41.191-122.530 -53.979  0.00  0.00     0.000 A 
ATOM      9  C   UNL d   1     -41.508-123.282 -54.109  0.00  0.00     0.002 A 
ENDROOT
BRANCH   1  10
ATOM     10  C   UNL d   1     -41.825-123.330 -50.620  0.00  0.00     0.018 A 
ATOM     11  C   UNL d   1     -41.227-123.686 -50.160  0.00  0.00     0.002 A 
ATOM     12  C   UNL d   1     -41.314-123.757 -49.353  0.00  0.00     0.011 A 
ATOM     13  C   UNL d   1     -41.999-123.471 -49.002  0.00  0.00     0.058 A 
ATOM     14  C   UNL d   1     -42.596-123.113 -49.478  0.00  0.00     0.011 A 
ATOM     15 CL   UNL d   1     -42.088-123.541 -48.190  0.00  0.00    -0.082 Cl
ATOM     16  C   UNL d   1     -42.510-123.044 -50.274  0.00  0.00     0.002 A 
ENDBRANCH   1  10
BRANCH   3  17
ATOM     17  S   UNL d   1     -41.136-121.904 -51.409  0.00  0.00    -0.083 SA
BRANCH  17  18
ATOM     18  C   UNL d   1     -41.249-121.149 -51.752  0.00  0.00     0.058 C 
BRANCH  18  19
ATOM     19  C   UNL d   1     -41.174-120.457 -51.309  0.00  0.00     0.129 C 
ATOM     20  N   UNL d   1     -41.132-119.715 -51.674  0.00  0.00    -0.146 N 
ENDBRANCH  18  19
ENDBRANCH  17  18
ENDBRANCH   3  17
TORSDOF 4
ENDMDL
MODEL 2
REMARK VINA RESULT:      -0.8      1.934      3.573
REMARK  4 active torsions:
REMARK  status: ('A' for Active; 'I' for Inactive)
REMARK    1  A    between atoms: C_6  and  C_1 
REMARK    2  A    between atoms: S_7  and  C_3 
REMARK    3  A    between atoms: C_17  and  S_7 
REMARK    4  A    between atoms: C_18  and  C_17 
ROOT
ATOM      1  C   UNL d   1     -41.673-122.663 -52.696  0.00  0.00     0.087 A 
ATOM      2  N   UNL d   1     -41.808-123.382 -52.331  0.00  0.00    -0.245 NA
ATOM      3  C   UNL d   1     -41.399-122.119 -52.138  0.00  0.00     0.049 A 
ATOM      4  C   UNL d   1     -41.361-122.499 -51.416  0.00  0.00     0.025 A 
ATOM      5  C   UNL d   1     -41.613-123.280 -51.534  0.00  0.00     0.082 A 
ATOM      6  C   UNL d   1     -41.129-122.230 -50.674  0.00  0.00     0.002 A 
ATOM      7  C   UNL d   1     -41.638-123.804 -50.915  0.00  0.00     0.019 A 
ATOM      8  C   UNL d   1     -41.153-122.761 -50.040  0.00  0.00     0.000 A 
ATOM      9  C   UNL d   1     -41.405-123.538 -50.167  0.00  0.00     0.002 A 
ENDROOT
BRANCH   1  10
ATOM     10  C   UNL d   1     -41.779-122.468 -53.482  0.00  0.00     0.018 A 
ATOM     11  C   UNL d   1     -42.508-122.149 -53.734  0.00  0.00     0.002 A 
ATOM     12  C   UNL d   1     -42.625-121.951 -54.516  0.00  0.00     0.011 A 
ATOM     13  C   UNL d   1     -42.012-122.072 -55.050  0.00  0.00     0.058 A 
ATOM     14  C   UNL d   1     -41.280-122.395 -54.783  0.00  0.00     0.011 A 
ATOM     15 CL   UNL d   1     -42.129-121.873 -55.837  0.00  0.00    -0.082 Cl
ATOM     16  C   UNL d   1     -41.167-122.589 -54.012  0.00  0.00     0.002 A 
ENDBRANCH   1  10
BRANCH   3  17
ATOM     17  S   UNL d   1     -41.194-121.327 -52.263  0.00  0.00    -0.083 SA
BRANCH  17  18
ATOM     18  C   UNL d   1     -41.142-120.785 -51.628  0.00  0.00     0.058 C 
BRANCH  18  19
ATOM     19  C   UNL d   1     -41.133-119.969 -51.754  0.00  0.00     0.129 C 
ATOM     20  N   UNL d   1     -41.251-119.436 -51.132  0.00  0.00    -0.146 N 
ENDBRANCH  18  19
ENDBRANCH  17  18
ENDBRANCH   3  17
TORSDOF 4
ENDMDL
