MODEL 1
REMARK VINA RESULT:      -8.2      0.000      0.000
REMARK  8 active torsions:
REMARK  status: ('A' for Active; 'I' for Inactive)
REMARK    1  A    between atoms: S_10  and  C_2 
REMARK    2  A    between atoms: C_7  and  C_4 
REMARK    3  A    between atoms: C_17  and  S_10 
REMARK    4  A    between atoms: C_14  and  C_17 
REMARK    5  A    between atoms: O_18  and  C_14 
REMARK    6  A    between atoms: O_19  and  C_15 
REMARK    7  A    between atoms: C_22  and  O_18 
REMARK    8  A    between atoms: C_24  and  C_22 
ROOT
ATOM      1  C   UNL d   1      52.572  33.403  53.626  0.00  0.00     0.093 A 
ATOM      2  C   UNL d   1      51.907  33.208  53.163  0.00  0.00     0.124 A 
ATOM      3  N   UNL d   1      51.802  32.433  52.902  0.00  0.00    -0.200 NA
ATOM      4  C   UNL d   1      53.121  32.820  53.821  0.00  0.00     0.028 A 
ATOM      5  C   UNL d   1      53.014  32.048  53.560  0.00  0.00     0.127 A 
ATOM      6  C   UNL d   1      52.350  31.853  53.097  0.00  0.00     0.289 A 
ATOM      7  C   UNL d   1      52.680  34.171  53.887  0.00  0.00     0.103 C 
ATOM      8  C   UNL d   1      53.564  31.465  53.756  0.00  0.00     0.106 C 
ATOM      9  N   UNL d   1      52.784  34.934  54.143  0.00  0.00    -0.191 NA
ATOM     10  N   UNL d   1      54.104  30.890  53.947  0.00  0.00    -0.191 NA
ATOM     11  O   UNL d   1      52.280  30.997  52.839  0.00  0.00    -0.264 OA
ENDROOT
BRANCH   2  12
ATOM     12  S   UNL d   1      51.364  33.862  52.989  0.00  0.00    -0.061 SA
BRANCH  12  13
ATOM     13  C   UNL d   1      50.496  33.844  52.928  0.00  0.00     0.105 C 
BRANCH  13  14
ATOM     14  C   UNL d   1      50.086  34.490  52.517  0.00  0.00     0.307 C 
ATOM     15  O   UNL d   1      50.139  34.582  52.000  0.00  0.00    -0.258 OA
BRANCH  14  16
ATOM     16  O   UNL d   1      49.567  34.985  53.039  0.00  0.00    -0.271 OA
BRANCH  16  17
ATOM     17  C   UNL d   1      48.817  35.304  52.648  0.00  0.00     0.126 C 
BRANCH  17  18
ATOM     18  C   UNL d   1      48.389  35.856  53.272  0.00  0.00     0.027 C 
ATOM     19  C   UNL d   1      47.645  36.182  52.882  0.00  0.00     0.002 C 
ENDBRANCH  17  18
ENDBRANCH  16  17
ENDBRANCH  14  16
ENDBRANCH  13  14
ENDBRANCH  12  13
ENDBRANCH   2  12
BRANCH   4  20
ATOM     20  C   UNL d   1      53.777  33.012  54.277  0.00  0.00     0.024 A 
ATOM     21  C   UNL d   1      54.490  33.200  53.914  0.00  0.00     0.094 A 
ATOM     22  C   UNL d   1      55.148  33.393  54.372  0.00  0.00     0.024 A 
ATOM     23  C   UNL d   1      55.094  33.397  55.195  0.00  0.00     0.002 A 
ATOM     24  C   UNL d   1      54.376  33.207  55.558  0.00  0.00     0.000 A 
ATOM     25  C   UNL d   1      53.718  33.015  55.100  0.00  0.00     0.002 A 
BRANCH  21  26
ATOM     26  O   UNL d   1      54.617  33.219  53.228  0.00  0.00    -0.328 OA
ATOM     27  C   UNL d   1      55.402  33.378  52.935  0.00  0.00     0.181 C 
ENDBRANCH  21  26
ENDBRANCH   4  20
TORSDOF 8
ENDMDL
MODEL 2
REMARK VINA RESULT:      -6.5      1.243      2.059
REMARK  8 active torsions:
REMARK  status: ('A' for Active; 'I' for Inactive)
REMARK    1  A    between atoms: S_10  and  C_2 
REMARK    2  A    between atoms: C_7  and  C_4 
REMARK    3  A    between atoms: C_17  and  S_10 
REMARK    4  A    between atoms: C_14  and  C_17 
REMARK    5  A    between atoms: O_18  and  C_14 
REMARK    6  A    between atoms: O_19  and  C_15 
REMARK    7  A    between atoms: C_22  and  O_18 
REMARK    8  A    between atoms: C_24  and  C_22 
ROOT
ATOM      1  C   UNL d   1      52.245  33.638  53.378  0.00  0.00     0.093 A 
ATOM      2  C   UNL d   1      51.782  34.312  53.219  0.00  0.00     0.124 A 
ATOM      3  N   UNL d   1      51.964  35.029  53.581  0.00  0.00    -0.200 NA
ATOM      4  C   UNL d   1      52.883  33.691  53.897  0.00  0.00     0.028 A 
ATOM      5  C   UNL d   1      53.063  34.407  54.257  0.00  0.00     0.127 A 
ATOM      6  C   UNL d   1      52.601  35.082  54.098  0.00  0.00     0.289 A 
ATOM      7  C   UNL d   1      52.067  32.923  53.020  0.00  0.00     0.103 C 
ATOM      8  C   UNL d   1      53.702  34.460  54.777  0.00  0.00     0.106 C 
ATOM      9  N   UNL d   1      51.887  32.218  52.663  0.00  0.00    -0.191 NA
ATOM     10  N   UNL d   1      54.330  34.514  55.287  0.00  0.00    -0.191 NA
ATOM     11  O   UNL d   1      52.840  35.837  54.517  0.00  0.00    -0.264 OA
ENDROOT
BRANCH   2  12
ATOM     12  S   UNL d   1      51.124  34.196  52.665  0.00  0.00    -0.061 SA
BRANCH  12  13
ATOM     13  C   UNL d   1      50.346  34.586  52.657  0.00  0.00     0.105 C 
BRANCH  13  14
ATOM     14  C   UNL d   1      49.845  34.521  51.951  0.00  0.00     0.307 C 
ATOM     15  O   UNL d   1      50.037  34.416  51.470  0.00  0.00    -0.258 OA
BRANCH  14  16
ATOM     16  O   UNL d   1      48.980  34.645  52.103  0.00  0.00    -0.271 OA
BRANCH  16  17
ATOM     17  C   UNL d   1      48.507  34.969  51.405  0.00  0.00     0.126 C 
BRANCH  17  18
ATOM     18  C   UNL d   1      47.791  35.460  51.755  0.00  0.00     0.027 C 
ATOM     19  C   UNL d   1      47.118  35.424  51.156  0.00  0.00     0.002 C 
ENDBRANCH  17  18
ENDBRANCH  16  17
ENDBRANCH  14  16
ENDBRANCH  13  14
ENDBRANCH  12  13
ENDBRANCH   2  12
BRANCH   4  20
ATOM     20  C   UNL d   1      53.339  33.026  54.054  0.00  0.00     0.024 A 
ATOM     21  C   UNL d   1      54.017  32.879  53.612  0.00  0.00     0.094 A 
ATOM     22  C   UNL d   1      54.475  32.212  53.769  0.00  0.00     0.024 A 
ATOM     23  C   UNL d   1      54.257  31.690  54.369  0.00  0.00     0.002 A 
ATOM     24  C   UNL d   1      53.575  31.840  54.812  0.00  0.00     0.000 A 
ATOM     25  C   UNL d   1      53.117  32.508  54.655  0.00  0.00     0.002 A 
BRANCH  21  26
ATOM     26  O   UNL d   1      54.269  33.269  53.090  0.00  0.00    -0.328 OA
ATOM     27  C   UNL d   1      55.031  33.099  52.747  0.00  0.00     0.181 C 
ENDBRANCH  21  26
ENDBRANCH   4  20
TORSDOF 8
ENDMDL
MODEL 3
REMARK VINA RESULT:      -5.7      1.880      4.338
REMARK  8 active torsions:
REMARK  status: ('A' for Active; 'I' for Inactive)
REMARK    1  A    between atoms: S_10  and  C_2 
REMARK    2  A    between atoms: C_7  and  C_4 
REMARK    3  A    between atoms: C_17  and  S_10 
REMARK    4  A    between atoms: C_14  and  C_17 
REMARK    5  A    between atoms: O_18  and  C_14 
REMARK    6  A    between atoms: O_19  and  C_15 
REMARK    7  A    between atoms: C_22  and  O_18 
REMARK    8  A    between atoms: C_24  and  C_22 
ROOT
ATOM      1  C   UNL d   1      52.798  32.856  53.271  0.00  0.00     0.093 A 
ATOM      2  C   UNL d   1      52.389  32.145  53.124  0.00  0.00     0.124 A 
ATOM      3  N   UNL d   1      51.566  32.151  53.064  0.00  0.00    -0.200 NA
ATOM      4  C   UNL d   1      52.379  33.561  53.357  0.00  0.00     0.028 A 
ATOM      5  C   UNL d   1      51.559  33.564  53.297  0.00  0.00     0.127 A 
ATOM      6  C   UNL d   1      51.150  32.853  53.150  0.00  0.00     0.289 A 
ATOM      7  C   UNL d   1      53.614  32.855  53.330  0.00  0.00     0.103 C 
ATOM      8  C   UNL d   1      51.140  34.269  53.383  0.00  0.00     0.106 C 
ATOM      9  N   UNL d   1      54.423  32.850  53.389  0.00  0.00    -0.191 NA
ATOM     10  N   UNL d   1      50.727  34.962  53.467  0.00  0.00    -0.191 NA
ATOM     11  O   UNL d   1      50.257  32.912  53.094  0.00  0.00    -0.264 OA
ENDROOT
BRANCH   2  12
ATOM     12  S   UNL d   1      52.881  31.436  53.043  0.00  0.00    -0.061 SA
BRANCH  12  13
ATOM     13  C   UNL d   1      52.630  30.606  52.971  0.00  0.00     0.105 C 
BRANCH  13  14
ATOM     14  C   UNL d   1      53.190  29.973  53.171  0.00  0.00     0.307 C 
ATOM     15  O   UNL d   1      53.647  29.901  52.915  0.00  0.00    -0.258 OA
BRANCH  14  16
ATOM     16  O   UNL d   1      52.932  29.454  53.841  0.00  0.00    -0.271 OA
BRANCH  16  17
ATOM     17  C   UNL d   1      53.593  29.173  54.390  0.00  0.00     0.126 C 
BRANCH  17  18
ATOM     18  C   UNL d   1      53.262  28.447  54.880  0.00  0.00     0.027 C 
ATOM     19  C   UNL d   1      53.349  28.647  55.755  0.00  0.00     0.002 C 
ENDBRANCH  17  18
ENDBRANCH  16  17
ENDBRANCH  14  16
ENDBRANCH  13  14
ENDBRANCH  12  13
ENDBRANCH   2  12
BRANCH   4  20
ATOM     20  C   UNL d   1      52.782  34.261  53.502  0.00  0.00     0.024 A 
ATOM     21  C   UNL d   1      52.973  34.474  54.273  0.00  0.00     0.094 A 
ATOM     22  C   UNL d   1      53.378  35.178  54.418  0.00  0.00     0.024 A 
ATOM     23  C   UNL d   1      53.594  35.670  53.793  0.00  0.00     0.002 A 
ATOM     24  C   UNL d   1      53.401  35.454  53.019  0.00  0.00     0.000 A 
ATOM     25  C   UNL d   1      52.996  34.751  52.873  0.00  0.00     0.002 A 
BRANCH  21  26
ATOM     26  O   UNL d   1      52.827  34.115  54.854  0.00  0.00    -0.328 OA
ATOM     27  C   UNL d   1      53.126  34.370  55.610  0.00  0.00     0.181 C 
ENDBRANCH  21  26
ENDBRANCH   4  20
TORSDOF 8
ENDMDL
MODEL 4
REMARK VINA RESULT:      -5.2      1.644      4.774
REMARK  8 active torsions:
REMARK  status: ('A' for Active; 'I' for Inactive)
REMARK    1  A    between atoms: S_10  and  C_2 
REMARK    2  A    between atoms: C_7  and  C_4 
REMARK    3  A    between atoms: C_17  and  S_10 
REMARK    4  A    between atoms: C_14  and  C_17 
REMARK    5  A    between atoms: O_18  and  C_14 
REMARK    6  A    between atoms: O_19  and  C_15 
REMARK    7  A    between atoms: C_22  and  O_18 
REMARK    8  A    between atoms: C_24  and  C_22 
ROOT
ATOM      1  C   UNL d   1      52.459  32.815  53.428  0.00  0.00     0.093 A 
ATOM      2  C   UNL d   1      53.186  32.481  53.660  0.00  0.00     0.124 A 
ATOM      3  N   UNL d   1      53.752  32.950  54.034  0.00  0.00    -0.200 NA
ATOM      4  C   UNL d   1      52.309  33.613  53.573  0.00  0.00     0.028 A 
ATOM      5  C   UNL d   1      52.874  34.078  53.946  0.00  0.00     0.127 A 
ATOM      6  C   UNL d   1      53.601  33.744  54.178  0.00  0.00     0.289 A 
ATOM      7  C   UNL d   1      51.895  32.353  53.057  0.00  0.00     0.103 C 
ATOM      8  C   UNL d   1      52.723  34.876  54.091  0.00  0.00     0.106 C 
ATOM      9  N   UNL d   1      51.339  31.891  52.689  0.00  0.00    -0.191 NA
ATOM     10  N   UNL d   1      52.576  35.661  54.234  0.00  0.00    -0.191 NA
ATOM     11  O   UNL d   1      54.183  34.295  54.581  0.00  0.00    -0.264 OA
ENDROOT
BRANCH   2  12
ATOM     12  S   UNL d   1      53.289  31.638  53.482  0.00  0.00    -0.061 SA
BRANCH  12  13
ATOM     13  C   UNL d   1      53.847  31.072  53.836  0.00  0.00     0.105 C 
BRANCH  13  14
ATOM     14  C   UNL d   1      53.807  30.236  53.608  0.00  0.00     0.307 C 
ATOM     15  O   UNL d   1      54.049  30.042  53.180  0.00  0.00    -0.258 OA
BRANCH  14  16
ATOM     16  O   UNL d   1      53.325  29.730  54.153  0.00  0.00    -0.271 OA
BRANCH  16  17
ATOM     17  C   UNL d   1      53.773  29.054  54.551  0.00  0.00     0.126 C 
BRANCH  17  18
ATOM     18  C   UNL d   1      53.143  28.526  55.002  0.00  0.00     0.027 C 
ATOM     19  C   UNL d   1      53.388  28.490  55.868  0.00  0.00     0.002 C 
ENDBRANCH  17  18
ENDBRANCH  16  17
ENDBRANCH  14  16
ENDBRANCH  13  14
ENDBRANCH  12  13
ENDBRANCH   2  12
BRANCH   4  20
ATOM     20  C   UNL d   1      51.592  33.942  53.344  0.00  0.00     0.024 A 
ATOM     21  C   UNL d   1      51.500  34.236  52.582  0.00  0.00     0.094 A 
ATOM     22  C   UNL d   1      50.780  34.567  52.352  0.00  0.00     0.024 A 
ATOM     23  C   UNL d   1      50.151  34.603  52.884  0.00  0.00     0.002 A 
ATOM     24  C   UNL d   1      50.246  34.306  53.650  0.00  0.00     0.000 A 
ATOM     25  C   UNL d   1      50.966  33.976  53.880  0.00  0.00     0.002 A 
BRANCH  21  26
ATOM     26  O   UNL d   1      51.980  34.243  52.075  0.00  0.00    -0.328 OA
ATOM     27  C   UNL d   1      51.788  34.532  51.297  0.00  0.00     0.181 C 
ENDBRANCH  21  26
ENDBRANCH   4  20
TORSDOF 8
ENDMDL
