MODEL 1
REMARK VINA RESULT:      29.0      0.000      0.000
REMARK  4 active torsions:
REMARK  status: ('A' for Active; 'I' for Inactive)
REMARK    1  A    between atoms: C_2  and  N_1 
REMARK       I    between atoms: C_3  and  N_1 
REMARK    2  A    between atoms: C_6  and  C_3 
REMARK    3  A    between atoms: O_7  and  C_6 
REMARK    4  A    between atoms: C_9  and  O_7 
ROOT
ATOM      1  C   UNL d   1     -51.301  25.889  33.363  0.00  0.00     0.158 C 
ATOM      2  C   UNL d   1     -51.691  26.603  33.306  0.00  0.00     0.032 C 
ENDROOT
BRANCH   1   3
ATOM      3  C   UNL d   1     -51.728  25.184  33.358  0.00  0.00     0.304 C 
ATOM      4  N   UNL d   1     -52.546  25.195  33.402  0.00  0.00    -0.181 NA
ATOM      5  O   UNL d   1     -51.329  24.464  33.308  0.00  0.00    -0.263 OA
BRANCH   4   6
ATOM      6  C   UNL d   1     -52.973  24.491  33.397  0.00  0.00     0.197 A 
ATOM      7  N   UNL d   1     -52.655  23.730  33.483  0.00  0.00    -0.219 NA
ATOM      8  C   UNL d   1     -53.274  23.190  33.445  0.00  0.00     0.108 A 
ATOM      9  C   UNL d   1     -53.982  23.615  33.335  0.00  0.00     0.059 A 
ATOM     10  S   UNL d   1     -53.792  24.416  33.306  0.00  0.00    -0.046 SA
ENDBRANCH   4   6
ENDBRANCH   1   3
BRANCH   1  11
ATOM     11  O   UNL d   1     -50.478  25.876  33.427  0.00  0.00    -0.302 OA
BRANCH  11  12
ATOM     12  C   UNL d   1     -50.053  26.580  33.432  0.00  0.00     0.100 A 
ATOM     13  C   UNL d   1     -49.226  26.568  33.345  0.00  0.00     0.025 A 
ATOM     14  C   UNL d   1     -48.804  27.279  33.352  0.00  0.00     0.002 A 
ATOM     15  C   UNL d   1     -49.196  27.999  33.444  0.00  0.00     0.000 A 
ATOM     16  C   UNL d   1     -50.015  28.016  33.531  0.00  0.00     0.002 A 
ATOM     17  C   UNL d   1     -50.448  27.307  33.526  0.00  0.00     0.025 A 
ENDBRANCH  11  12
ENDBRANCH   1  11
TORSDOF 4
ENDMDL
MODEL 2
REMARK VINA RESULT:      30.1      1.735      4.213
REMARK  4 active torsions:
REMARK  status: ('A' for Active; 'I' for Inactive)
REMARK    1  A    between atoms: C_2  and  N_1 
REMARK       I    between atoms: C_3  and  N_1 
REMARK    2  A    between atoms: C_6  and  C_3 
REMARK    3  A    between atoms: O_7  and  C_6 
REMARK    4  A    between atoms: C_9  and  O_7 
ROOT
ATOM      1  C   UNL d   1     -50.960  25.324  33.579  0.00  0.00     0.158 C 
ATOM      2  C   UNL d   1     -50.599  24.621  33.783  0.00  0.00     0.032 C 
ENDROOT
BRANCH   1   3
ATOM      3  C   UNL d   1     -50.545  26.034  33.637  0.00  0.00     0.304 C 
ATOM      4  N   UNL d   1     -50.934  26.749  33.550  0.00  0.00    -0.181 NA
ATOM      5  O   UNL d   1     -49.733  26.022  33.784  0.00  0.00    -0.263 OA
BRANCH   4   6
ATOM      6  C   UNL d   1     -50.521  27.458  33.608  0.00  0.00     0.197 A 
ATOM      7  N   UNL d   1     -49.788  27.563  33.982  0.00  0.00    -0.219 NA
ATOM      8  C   UNL d   1     -49.576  28.355  33.911  0.00  0.00     0.108 A 
ATOM      9  C   UNL d   1     -50.181  28.747  33.490  0.00  0.00     0.059 A 
ATOM     10  S   UNL d   1     -50.760  28.191  33.306  0.00  0.00    -0.046 SA
ENDBRANCH   4   6
ENDBRANCH   1   3
BRANCH   1  11
ATOM     11  O   UNL d   1     -51.742  25.321  33.314  0.00  0.00    -0.302 OA
BRANCH  11  12
ATOM     12  C   UNL d   1     -52.197  24.637  33.377  0.00  0.00     0.100 A 
ATOM     13  C   UNL d   1     -53.021  24.693  33.466  0.00  0.00     0.025 A 
ATOM     14  C   UNL d   1     -53.472  24.003  33.529  0.00  0.00     0.002 A 
ATOM     15  C   UNL d   1     -53.112  23.261  33.503  0.00  0.00     0.000 A 
ATOM     16  C   UNL d   1     -52.295  23.202  33.415  0.00  0.00     0.002 A 
ATOM     17  C   UNL d   1     -51.832  23.889  33.351  0.00  0.00     0.025 A 
ENDBRANCH  11  12
ENDBRANCH   1  11
TORSDOF 4
ENDMDL
