MODEL 1
REMARK VINA RESULT:      -9.2      0.000      0.000
REMARK  4 active torsions:
REMARK  status: ('A' for Active; 'I' for Inactive)
REMARK       I    between atoms: N_2  and  C_1 
REMARK    1  A    between atoms: C_4  and  C_1 
REMARK    2  A    between atoms: C_14  and  N_3 
REMARK    3  A    between atoms: C_5  and  C_6 
REMARK    4  A    between atoms: C_17  and  C_14 
ROOT
ATOM      1  C   UNL d   1      52.509  33.782  53.584  0.00  0.00     0.265 C 
ATOM      2  N   UNL d   1      52.840  33.042  53.482  0.00  0.00    -0.269 N 
ATOM      3  N   UNL d   1      53.510  31.555  53.280  0.00  0.00    -0.300 N 
ATOM      4  O   UNL d   1      52.885  34.331  54.067  0.00  0.00    -0.267 OA
ATOM      5  C   UNL d   1      52.474  32.487  53.003  0.00  0.00     0.102 A 
ATOM      6  C   UNL d   1      53.554  32.849  53.866  0.00  0.00     0.102 A 
ATOM      7  C   UNL d   1      53.884  32.107  53.762  0.00  0.00     0.100 A 
ATOM      8  C   UNL d   1      52.814  31.742  52.905  0.00  0.00     0.100 A 
ENDROOT
BRANCH   1   9
ATOM      9  C   UNL d   1      51.795  33.974  53.200  0.00  0.00     0.057 A 
ATOM     10  C   UNL d   1      51.083  33.801  53.556  0.00  0.00     0.004 A 
ATOM     11  C   UNL d   1      50.368  33.993  53.171  0.00  0.00    -0.004 A 
ATOM     12  C   UNL d   1      50.384  34.354  52.441  0.00  0.00    -0.023 A 
ATOM     13  C   UNL d   1      51.101  34.531  52.078  0.00  0.00    -0.004 A 
ATOM     14  C   UNL d   1      51.816  34.339  52.462  0.00  0.00     0.004 A 
BRANCH  12  15
ATOM     15  C   UNL d   1      49.680  34.543  52.062  0.00  0.00     0.019 C 
ATOM     16  C   UNL d   1      49.948  34.170  51.378  0.00  0.00     0.004 C 
ATOM     17  C   UNL d   1      48.971  34.734  51.681  0.00  0.00     0.004 C 
ATOM     18  C   UNL d   1      49.409  34.921  52.754  0.00  0.00     0.004 C 
ENDBRANCH  12  15
ENDBRANCH   1   9
BRANCH   3  19
ATOM     19  C   UNL d   1      53.835  30.809  53.171  0.00  0.00     0.080 C 
BRANCH  19  20
ATOM     20  C   UNL d   1      53.509  30.154  53.543  0.00  0.00     0.018 A 
ATOM     21  C   UNL d   1      52.858  29.742  53.202  0.00  0.00     0.002 A 
ATOM     22  C   UNL d   1      52.543  29.088  53.586  0.00  0.00     0.000 A 
ATOM     23  C   UNL d   1      52.865  28.830  54.313  0.00  0.00     0.000 A 
ATOM     24  C   UNL d   1      53.507  29.238  54.646  0.00  0.00     0.000 A 
ATOM     25  C   UNL d   1      53.828  29.898  54.262  0.00  0.00     0.002 A 
ENDBRANCH  19  20
ENDBRANCH   3  19
TORSDOF 4
ENDMDL
MODEL 2
REMARK VINA RESULT:      -7.9      0.819      4.851
REMARK  4 active torsions:
REMARK  status: ('A' for Active; 'I' for Inactive)
REMARK       I    between atoms: N_2  and  C_1 
REMARK    1  A    between atoms: C_4  and  C_1 
REMARK    2  A    between atoms: C_14  and  N_3 
REMARK    3  A    between atoms: C_5  and  C_6 
REMARK    4  A    between atoms: C_17  and  C_14 
ROOT
ATOM      1  C   UNL d   1      53.895  32.496  53.559  0.00  0.00     0.265 C 
ATOM      2  N   UNL d   1      53.283  33.034  53.490  0.00  0.00    -0.269 N 
ATOM      3  N   UNL d   1      52.058  34.120  53.350  0.00  0.00    -0.300 N 
ATOM      4  O   UNL d   1      54.671  32.750  53.467  0.00  0.00    -0.267 OA
ATOM      5  C   UNL d   1      52.506  32.792  53.580  0.00  0.00     0.102 A 
ATOM      6  C   UNL d   1      53.451  33.834  53.327  0.00  0.00     0.102 A 
ATOM      7  C   UNL d   1      52.837  34.372  53.258  0.00  0.00     0.100 A 
ATOM      8  C   UNL d   1      51.895  33.341  53.509  0.00  0.00     0.100 A 
ENDROOT
BRANCH   1   9
ATOM      9  C   UNL d   1      53.727  31.696  53.722  0.00  0.00     0.057 A 
ATOM     10  C   UNL d   1      53.633  31.450  54.493  0.00  0.00     0.004 A 
ATOM     11  C   UNL d   1      53.465  30.649  54.656  0.00  0.00    -0.004 A 
ATOM     12  C   UNL d   1      53.396  30.116  54.044  0.00  0.00    -0.023 A 
ATOM     13  C   UNL d   1      53.490  30.360  53.264  0.00  0.00    -0.004 A 
ATOM     14  C   UNL d   1      53.658  31.161  53.101  0.00  0.00     0.004 A 
BRANCH  12  15
ATOM     15  C   UNL d   1      53.231  29.327  54.205  0.00  0.00     0.019 C 
ATOM     16  C   UNL d   1      53.689  29.370  54.888  0.00  0.00     0.004 C 
ATOM     17  C   UNL d   1      53.064  28.533  54.367  0.00  0.00     0.004 C 
ATOM     18  C   UNL d   1      52.766  29.283  53.513  0.00  0.00     0.004 C 
ENDBRANCH  12  15
ENDBRANCH   1   9
BRANCH   3  19
ATOM     19  C   UNL d   1      51.438  34.654  53.282  0.00  0.00     0.080 C 
BRANCH  19  20
ATOM     20  C   UNL d   1      50.853  34.543  52.719  0.00  0.00     0.018 A 
ATOM     21  C   UNL d   1      51.048  34.430  51.907  0.00  0.00     0.002 A 
ATOM     22  C   UNL d   1      50.450  34.321  51.355  0.00  0.00     0.000 A 
ATOM     23  C   UNL d   1      49.649  34.321  51.594  0.00  0.00     0.000 A 
ATOM     24  C   UNL d   1      49.460  34.432  52.396  0.00  0.00     0.000 A 
ATOM     25  C   UNL d   1      50.060  34.543  52.955  0.00  0.00     0.002 A 
ENDBRANCH  19  20
ENDBRANCH   3  19
TORSDOF 4
ENDMDL
MODEL 3
REMARK VINA RESULT:      -7.7      2.078      5.420
REMARK  4 active torsions:
REMARK  status: ('A' for Active; 'I' for Inactive)
REMARK       I    between atoms: N_2  and  C_1 
REMARK    1  A    between atoms: C_4  and  C_1 
REMARK    2  A    between atoms: C_14  and  N_3 
REMARK    3  A    between atoms: C_5  and  C_6 
REMARK    4  A    between atoms: C_17  and  C_14 
ROOT
ATOM      1  C   UNL d   1      51.996  34.170  52.167  0.00  0.00     0.265 C 
ATOM      2  N   UNL d   1      51.187  34.247  52.258  0.00  0.00    -0.269 N 
ATOM      3  N   UNL d   1      49.561  34.404  52.433  0.00  0.00    -0.300 N 
ATOM      4  O   UNL d   1      52.336  34.299  51.430  0.00  0.00    -0.267 OA
ATOM      5  C   UNL d   1      50.838  34.121  52.987  0.00  0.00     0.102 A 
ATOM      6  C   UNL d   1      50.715  34.456  51.603  0.00  0.00     0.102 A 
ATOM      7  C   UNL d   1      49.905  34.533  51.696  0.00  0.00     0.100 A 
ATOM      8  C   UNL d   1      50.021  34.201  53.070  0.00  0.00     0.100 A 
ENDROOT
BRANCH   1   9
ATOM      9  C   UNL d   1      52.468  33.961  52.821  0.00  0.00     0.057 A 
ATOM     10  C   UNL d   1      52.610  33.176  52.986  0.00  0.00     0.004 A 
ATOM     11  C   UNL d   1      53.083  32.967  53.640  0.00  0.00    -0.004 A 
ATOM     12  C   UNL d   1      53.401  33.549  54.113  0.00  0.00    -0.023 A 
ATOM     13  C   UNL d   1      53.260  34.343  53.951  0.00  0.00    -0.004 A 
ATOM     14  C   UNL d   1      52.788  34.552  53.297  0.00  0.00     0.004 A 
BRANCH  12  15
ATOM     15  C   UNL d   1      53.867  33.343  54.758  0.00  0.00     0.019 C 
ATOM     16  C   UNL d   1      53.681  34.058  55.122  0.00  0.00     0.004 C 
ATOM     17  C   UNL d   1      54.336  33.136  55.408  0.00  0.00     0.004 C 
ATOM     18  C   UNL d   1      54.056  32.618  54.391  0.00  0.00     0.004 C 
ENDBRANCH  12  15
ENDBRANCH   1   9
BRANCH   3  19
ATOM     19  C   UNL d   1      48.750  34.480  52.532  0.00  0.00     0.080 C 
BRANCH  19  20
ATOM     20  C   UNL d   1      48.413  35.217  52.661  0.00  0.00     0.018 A 
ATOM     21  C   UNL d   1      48.466  35.592  53.413  0.00  0.00     0.002 A 
ATOM     22  C   UNL d   1      48.123  36.330  53.526  0.00  0.00     0.000 A 
ATOM     23  C   UNL d   1      47.722  36.709  52.900  0.00  0.00     0.000 A 
ATOM     24  C   UNL d   1      47.671  36.336  52.158  0.00  0.00     0.000 A 
ATOM     25  C   UNL d   1      48.015  35.593  52.040  0.00  0.00     0.002 A 
ENDBRANCH  19  20
ENDBRANCH   3  19
TORSDOF 4
ENDMDL
MODEL 4
REMARK VINA RESULT:      -7.6      2.564      6.081
REMARK  4 active torsions:
REMARK  status: ('A' for Active; 'I' for Inactive)
REMARK       I    between atoms: N_2  and  C_1 
REMARK    1  A    between atoms: C_4  and  C_1 
REMARK    2  A    between atoms: C_14  and  N_3 
REMARK    3  A    between atoms: C_5  and  C_6 
REMARK    4  A    between atoms: C_17  and  C_14 
ROOT
ATOM      1  C   UNL d   1      49.695  34.415  51.891  0.00  0.00     0.265 C 
ATOM      2  N   UNL d   1      49.149  34.931  52.211  0.00  0.00    -0.269 N 
ATOM      3  N   UNL d   1      48.046  35.970  52.849  0.00  0.00    -0.300 N 
ATOM      4  O   UNL d   1      49.570  34.106  51.139  0.00  0.00    -0.267 OA
ATOM      5  C   UNL d   1      49.263  35.245  52.959  0.00  0.00     0.102 A 
ATOM      6  C   UNL d   1      48.471  35.141  51.774  0.00  0.00     0.102 A 
ATOM      7  C   UNL d   1      47.924  35.659  52.096  0.00  0.00     0.100 A 
ATOM      8  C   UNL d   1      48.706  35.765  53.275  0.00  0.00     0.100 A 
ENDROOT
BRANCH   1   9
ATOM      9  C   UNL d   1      50.373  34.205  52.328  0.00  0.00     0.057 A 
ATOM     10  C   UNL d   1      50.313  33.666  52.936  0.00  0.00     0.004 A 
ATOM     11  C   UNL d   1      50.991  33.456  53.374  0.00  0.00    -0.004 A 
ATOM     12  C   UNL d   1      51.712  33.790  53.192  0.00  0.00    -0.023 A 
ATOM     13  C   UNL d   1      51.777  34.335  52.579  0.00  0.00    -0.004 A 
ATOM     14  C   UNL d   1      51.099  34.545  52.141  0.00  0.00     0.004 A 
BRANCH  12  15
ATOM     15  C   UNL d   1      52.380  33.583  53.623  0.00  0.00     0.019 C 
ATOM     16  C   UNL d   1      52.435  34.354  53.909  0.00  0.00     0.004 C 
ATOM     17  C   UNL d   1      53.053  33.374  54.057  0.00  0.00     0.004 C 
ATOM     18  C   UNL d   1      52.325  32.802  53.334  0.00  0.00     0.004 C 
ENDBRANCH  12  15
ENDBRANCH   1   9
BRANCH   3  19
ATOM     19  C   UNL d   1      47.502  36.489  53.177  0.00  0.00     0.080 C 
BRANCH  19  20
ATOM     20  C   UNL d   1      46.827  36.206  53.548  0.00  0.00     0.018 A 
ATOM     21  C   UNL d   1      46.135  36.019  53.106  0.00  0.00     0.002 A 
ATOM     22  C   UNL d   1      45.468  35.737  53.492  0.00  0.00     0.000 A 
ATOM     23  C   UNL d   1      45.471  35.635  54.321  0.00  0.00     0.000 A 
ATOM     24  C   UNL d   1      46.156  35.820  54.755  0.00  0.00     0.000 A 
ATOM     25  C   UNL d   1      46.831  36.105  54.369  0.00  0.00     0.002 A 
ENDBRANCH  19  20
ENDBRANCH   3  19
TORSDOF 4
ENDMDL
