MODEL 1
REMARK VINA RESULT:      -3.1      0.000      0.000
REMARK  5 active torsions:
REMARK  status: ('A' for Active; 'I' for Inactive)
REMARK    1  A    between atoms: S_2  and  C_1 
REMARK    2  A    between atoms: N_8  and  S_2 
REMARK    3  A    between atoms: C_11  and  C_16 
REMARK    4  A    between atoms: O_22  and  C_11 
REMARK    5  A    between atoms: C_23  and  O_22 
ROOT
ATOM      1  S   UNL d   1     -41.775-122.898 -52.111  0.00  0.00     0.277 S 
ATOM      2  O   UNL d   1     -41.122-122.390 -52.055  0.00  0.00    -0.199 OA
ATOM      3  O   UNL d   1     -42.421-123.403 -52.153  0.00  0.00    -0.199 OA
ENDROOT
BRANCH   1   4
ATOM      4  C   UNL d   1     -41.799-122.789 -52.927  0.00  0.00     0.178 A 
ATOM      5  C   UNL d   1     -42.180-122.124 -53.234  0.00  0.00     0.282 A 
ATOM      6  N   UNL d   1     -42.203-122.018 -54.047  0.00  0.00    -0.224 N 
ATOM      7  O   UNL d   1     -42.524-121.586 -52.739  0.00  0.00    -0.266 OA
ATOM      8  C   UNL d   1     -42.584-121.352 -54.349  0.00  0.00     0.107 C 
ATOM      9  C   UNL d   1     -41.854-122.564 -54.550  0.00  0.00     0.342 A 
ATOM     10  N   UNL d   1     -41.479-123.220 -54.242  0.00  0.00    -0.255 N 
ATOM     11  O   UNL d   1     -41.876-122.459 -55.367  0.00  0.00    -0.245 OA
ATOM     12  C   UNL d   1     -41.450-123.336 -53.430  0.00  0.00     0.102 A 
ATOM     13  C   UNL d   1     -41.131-123.764 -54.743  0.00  0.00     0.104 C 
ENDBRANCH   1   4
BRANCH   1  14
ATOM     14  N   UNL d   1     -41.759-123.014 -51.293  0.00  0.00    -0.229 N 
ATOM     15  C   UNL d   1     -42.210-122.508 -50.786  0.00  0.00     0.092 A 
ATOM     16  C   UNL d   1     -42.183-122.639 -49.960  0.00  0.00     0.025 A 
ATOM     17  C   UNL d   1     -41.720-123.259 -49.639  0.00  0.00     0.067 A 
ATOM     18  C   UNL d   1     -41.277-123.756 -50.138  0.00  0.00     0.025 A 
ATOM     19  C   UNL d   1     -41.296-123.634 -50.972  0.00  0.00     0.092 A 
BRANCH  17  20
ATOM     20  C   UNL d   1     -41.703-123.376 -48.835  0.00  0.00     0.300 C 
ATOM     21  O   UNL d   1     -41.123-123.814 -48.511  0.00  0.00    -0.259 OA
BRANCH  20  22
ATOM     22  O   UNL d   1     -42.279-123.041 -48.376  0.00  0.00    -0.271 OA
BRANCH  22  23
ATOM     23  C   UNL d   1     -42.219-123.033 -47.590  0.00  0.00     0.126 C 
ATOM     24  C   UNL d   1     -42.880-123.019 -47.135  0.00  0.00     0.029 C 
ENDBRANCH  22  23
ENDBRANCH  20  22
ENDBRANCH  17  20
ENDBRANCH   1  14
TORSDOF 5
ENDMDL
