MODEL 1
REMARK VINA RESULT:      -9.3      0.000      0.000
REMARK  4 active torsions:
REMARK  status: ('A' for Active; 'I' for Inactive)
REMARK    1  A    between atoms: N_2  and  S_1 
REMARK    2  A    between atoms: C_3  and  S_1 
REMARK    3  A    between atoms: C_11  and  N_2 
REMARK    4  A    between atoms: C_6  and  C_7 
ROOT
ATOM      1  S   UNL d   1      52.970  32.865  53.051  0.00  0.00     0.285 S 
ATOM      2  O   UNL d   1      52.151  32.805  53.131  0.00  0.00    -0.198 OA
ATOM      3  O   UNL d   1      53.789  32.924  52.970  0.00  0.00    -0.198 OA
ENDROOT
BRANCH   1   4
ATOM      4  N   UNL d   1      52.979  32.161  52.621  0.00  0.00    -0.158 NA
BRANCH   4   5
ATOM      5  C   UNL d   1      53.033  31.434  53.008  0.00  0.00     0.094 A 
ATOM      6  C   UNL d   1      53.750  31.185  53.333  0.00  0.00     0.020 A 
ATOM      7  C   UNL d   1      53.800  30.460  53.719  0.00  0.00     0.005 A 
ATOM      8  C   UNL d   1      53.126  29.975  53.782  0.00  0.00     0.039 A 
ATOM      9  C   UNL d   1      52.409  30.223  53.457  0.00  0.00     0.005 A 
ATOM     10  C   UNL d   1      52.354  30.949  53.069  0.00  0.00     0.020 A 
BRANCH   8  11
ATOM     11  C   UNL d   1      53.170  29.238  54.171  0.00  0.00     0.196 C 
ATOM     12  O   UNL d   1      52.987  28.546  53.766  0.00  0.00    -0.287 OA
ATOM     13  C   UNL d   1      53.400  29.194  54.976  0.00  0.00     0.045 C 
ENDBRANCH   8  11
ENDBRANCH   4   5
ENDBRANCH   1   4
BRANCH   1  14
ATOM     14  C   UNL d   1      52.961  33.569  53.480  0.00  0.00     0.105 A 
ATOM     15  C   UNL d   1      53.381  33.622  54.181  0.00  0.00     0.013 A 
ATOM     16  C   UNL d   1      53.372  34.337  54.618  0.00  0.00     0.001 A 
ATOM     17  C   UNL d   1      52.944  34.981  54.342  0.00  0.00     0.000 A 
ATOM     18  C   UNL d   1      52.520  34.928  53.633  0.00  0.00     0.001 A 
ATOM     19  C   UNL d   1      52.935  35.685  54.772  0.00  0.00     0.000 C 
ATOM     20  C   UNL d   1      52.529  34.213  53.197  0.00  0.00     0.013 A 
ENDBRANCH   1  14
TORSDOF 4
ENDMDL
MODEL 2
REMARK VINA RESULT:      -9.1      1.619      4.333
REMARK  4 active torsions:
REMARK  status: ('A' for Active; 'I' for Inactive)
REMARK    1  A    between atoms: N_2  and  S_1 
REMARK    2  A    between atoms: C_3  and  S_1 
REMARK    3  A    between atoms: C_11  and  N_2 
REMARK    4  A    between atoms: C_6  and  C_7 
ROOT
ATOM      1  S   UNL d   1      52.948  32.574  53.165  0.00  0.00     0.285 S 
ATOM      2  O   UNL d   1      52.864  32.409  52.361  0.00  0.00    -0.198 OA
ATOM      3  O   UNL d   1      53.032  32.739  53.969  0.00  0.00    -0.198 OA
ENDROOT
BRANCH   1   4
ATOM      4  N   UNL d   1      52.841  33.378  53.012  0.00  0.00    -0.158 NA
BRANCH   4   5
ATOM      5  C   UNL d   1      52.083  33.687  52.908  0.00  0.00     0.094 A 
ATOM      6  C   UNL d   1      51.560  33.736  53.544  0.00  0.00     0.020 A 
ATOM      7  C   UNL d   1      50.805  34.045  53.436  0.00  0.00     0.005 A 
ATOM      8  C   UNL d   1      50.566  34.309  52.683  0.00  0.00     0.039 A 
ATOM      9  C   UNL d   1      51.089  34.260  52.047  0.00  0.00     0.005 A 
ATOM     10  C   UNL d   1      51.847  33.951  52.150  0.00  0.00     0.020 A 
BRANCH   8  11
ATOM     11  C   UNL d   1      49.803  34.623  52.567  0.00  0.00     0.196 C 
ATOM     12  O   UNL d   1      49.432  35.039  53.173  0.00  0.00    -0.287 OA
ATOM     13  C   UNL d   1      49.404  34.520  51.837  0.00  0.00     0.045 C 
ENDBRANCH   8  11
ENDBRANCH   4   5
ENDBRANCH   1   4
BRANCH   1  14
ATOM     14  C   UNL d   1      53.055  31.771  53.319  0.00  0.00     0.105 A 
ATOM     15  C   UNL d   1      52.663  31.215  52.864  0.00  0.00     0.013 A 
ATOM     16  C   UNL d   1      52.772  30.399  53.020  0.00  0.00     0.001 A 
ATOM     17  C   UNL d   1      53.270  30.160  53.627  0.00  0.00     0.000 A 
ATOM     18  C   UNL d   1      53.667  30.722  54.087  0.00  0.00     0.001 A 
ATOM     19  C   UNL d   1      53.377  29.357  53.781  0.00  0.00     0.000 C 
ATOM     20  C   UNL d   1      53.558  31.538  53.931  0.00  0.00     0.013 A 
ENDBRANCH   1  14
TORSDOF 4
ENDMDL
MODEL 3
REMARK VINA RESULT:      -8.8      1.046      4.231
REMARK  4 active torsions:
REMARK  status: ('A' for Active; 'I' for Inactive)
REMARK    1  A    between atoms: N_2  and  S_1 
REMARK    2  A    between atoms: C_3  and  S_1 
REMARK    3  A    between atoms: C_11  and  N_2 
REMARK    4  A    between atoms: C_6  and  C_7 
ROOT
ATOM      1  S   UNL d   1      52.936  31.369  52.962  0.00  0.00     0.285 S 
ATOM      2  O   UNL d   1      52.123  31.228  52.947  0.00  0.00    -0.198 OA
ATOM      3  O   UNL d   1      53.749  31.511  52.976  0.00  0.00    -0.198 OA
ENDROOT
BRANCH   1   4
ATOM      4  N   UNL d   1      52.822  32.069  52.540  0.00  0.00    -0.158 NA
BRANCH   4   5
ATOM      5  C   UNL d   1      52.762  32.791  52.936  0.00  0.00     0.094 A 
ATOM      6  C   UNL d   1      52.030  33.064  53.202  0.00  0.00     0.020 A 
ATOM      7  C   UNL d   1      51.975  33.784  53.596  0.00  0.00     0.005 A 
ATOM      8  C   UNL d   1      52.659  34.241  53.727  0.00  0.00     0.039 A 
ATOM      9  C   UNL d   1      53.391  33.968  53.460  0.00  0.00     0.005 A 
ATOM     10  C   UNL d   1      53.451  33.247  53.065  0.00  0.00     0.020 A 
BRANCH   8  11
ATOM     11  C   UNL d   1      52.609  34.972  54.125  0.00  0.00     0.196 C 
ATOM     12  O   UNL d   1      52.083  35.548  53.865  0.00  0.00    -0.287 OA
ATOM     13  C   UNL d   1      53.092  35.129  54.792  0.00  0.00     0.045 C 
ENDBRANCH   8  11
ENDBRANCH   4   5
ENDBRANCH   1   4
BRANCH   1  14
ATOM     14  C   UNL d   1      53.050  30.669  53.383  0.00  0.00     0.105 A 
ATOM     15  C   UNL d   1      53.615  30.639  53.975  0.00  0.00     0.013 A 
ATOM     16  C   UNL d   1      53.731  29.928  54.403  0.00  0.00     0.001 A 
ATOM     17  C   UNL d   1      53.279  29.266  54.228  0.00  0.00     0.000 A 
ATOM     18  C   UNL d   1      52.708  29.295  53.629  0.00  0.00     0.001 A 
ATOM     19  C   UNL d   1      53.393  28.566  54.649  0.00  0.00     0.000 C 
ATOM     20  C   UNL d   1      52.592  30.007  53.201  0.00  0.00     0.013 A 
ENDBRANCH   1  14
TORSDOF 4
ENDMDL
MODEL 4
REMARK VINA RESULT:      -8.7      2.094      3.838
REMARK  4 active torsions:
REMARK  status: ('A' for Active; 'I' for Inactive)
REMARK    1  A    between atoms: N_2  and  S_1 
REMARK    2  A    between atoms: C_3  and  S_1 
REMARK    3  A    between atoms: C_11  and  N_2 
REMARK    4  A    between atoms: C_6  and  C_7 
ROOT
ATOM      1  S   UNL d   1      52.958  33.080  53.336  0.00  0.00     0.285 S 
ATOM      2  O   UNL d   1      52.603  32.505  53.809  0.00  0.00    -0.198 OA
ATOM      3  O   UNL d   1      53.314  33.655  52.864  0.00  0.00    -0.198 OA
ENDROOT
BRANCH   1   4
ATOM      4  N   UNL d   1      52.409  32.930  52.740  0.00  0.00    -0.158 NA
BRANCH   4   5
ATOM      5  C   UNL d   1      51.711  33.368  52.692  0.00  0.00     0.094 A 
ATOM      6  C   UNL d   1      51.091  33.227  53.218  0.00  0.00     0.020 A 
ATOM      7  C   UNL d   1      50.398  33.666  53.168  0.00  0.00     0.005 A 
ATOM      8  C   UNL d   1      50.319  34.256  52.584  0.00  0.00     0.039 A 
ATOM      9  C   UNL d   1      50.939  34.397  52.059  0.00  0.00     0.005 A 
ATOM     10  C   UNL d   1      51.636  33.960  52.105  0.00  0.00     0.020 A 
BRANCH   8  11
ATOM     11  C   UNL d   1      49.619  34.704  52.528  0.00  0.00     0.196 C 
ATOM     12  O   UNL d   1      49.370  35.162  53.165  0.00  0.00    -0.287 OA
ATOM     13  C   UNL d   1      49.160  34.695  51.826  0.00  0.00     0.045 C 
ENDBRANCH   8  11
ENDBRANCH   4   5
ENDBRANCH   1   4
BRANCH   1  14
ATOM     14  C   UNL d   1      53.508  33.231  53.933  0.00  0.00     0.105 A 
ATOM     15  C   UNL d   1      53.710  34.003  54.114  0.00  0.00     0.013 A 
ATOM     16  C   UNL d   1      54.268  34.156  54.720  0.00  0.00     0.001 A 
ATOM     17  C   UNL d   1      54.610  33.532  55.129  0.00  0.00     0.000 A 
ATOM     18  C   UNL d   1      54.407  32.751  54.946  0.00  0.00     0.001 A 
ATOM     19  C   UNL d   1      55.159  33.682  55.726  0.00  0.00     0.000 C 
ATOM     20  C   UNL d   1      53.848  32.598  54.340  0.00  0.00     0.013 A 
ENDBRANCH   1  14
TORSDOF 4
ENDMDL
