MODEL 1
REMARK VINA RESULT:     119.0      0.000      0.000
REMARK  8 active torsions:
REMARK  status: ('A' for Active; 'I' for Inactive)
REMARK    1  A    between atoms: C_5  and  C_1 
REMARK    2  A    between atoms: N_6  and  C_2 
REMARK    3  A    between atoms: C_7  and  C_5 
REMARK    4  A    between atoms: C_8  and  C_5 
REMARK    5  A    between atoms: O_13  and  C_7 
REMARK    6  A    between atoms: C_21  and  N_12 
REMARK    7  A    between atoms: C_19  and  O_13 
REMARK    8  A    between atoms: C_20  and  C_19 
ROOT
ATOM      1  C   UNL d   1     -55.467-100.535 -43.297  0.00  0.00     0.122 A 
ATOM      2  C   UNL d   1     -56.252-100.426 -43.079  0.00  0.00     0.166 A 
ATOM      3  N   UNL d   1     -56.515-100.742 -42.369  0.00  0.00    -0.225 NA
ATOM      4  N   UNL d   1     -54.950-100.955 -42.811  0.00  0.00    -0.241 NA
ATOM      5  C   UNL d   1     -56.012-101.159 -41.882  0.00  0.00     0.101 A 
ATOM      6  C   UNL d   1     -55.222-101.266 -42.105  0.00  0.00     0.099 A 
ATOM      7  C   UNL d   1     -54.714-101.683 -41.620  0.00  0.00     0.021 A 
ATOM      8  C   UNL d   1     -56.282-101.474 -41.170  0.00  0.00     0.021 A 
ATOM      9  C   UNL d   1     -55.766-101.894 -40.683  0.00  0.00     0.002 A 
ATOM     10  C   UNL d   1     -54.985-101.999 -40.907  0.00  0.00     0.002 A 
ENDROOT
BRANCH   1  11
ATOM     11  C   UNL d   1     -55.183-100.221 -44.013  0.00  0.00     0.105 C 
BRANCH  11  12
ATOM     12  C   UNL d   1     -54.880-100.716 -44.602  0.00  0.00     0.303 C 
ATOM     13  O   UNL d   1     -54.713-100.405 -45.341  0.00  0.00    -0.259 OA
BRANCH  12  14
ATOM     14  O   UNL d   1     -54.752-101.503 -44.437  0.00  0.00    -0.271 OA
BRANCH  14  15
ATOM     15  C   UNL d   1     -54.789-102.284 -44.679  0.00  0.00     0.126 C 
BRANCH  15  16
ATOM     16  C   UNL d   1     -55.166-102.482 -45.379  0.00  0.00     0.025 A 
ATOM     17  C   UNL d   1     -54.716-102.619 -46.053  0.00  0.00     0.002 A 
ATOM     18  C   UNL d   1     -55.093-102.819 -46.761  0.00  0.00     0.000 A 
ATOM     19  C   UNL d   1     -55.913-102.880 -46.785  0.00  0.00     0.000 A 
ATOM     20  C   UNL d   1     -56.357-102.740 -46.100  0.00  0.00     0.000 A 
ATOM     21  C   UNL d   1     -55.982-102.543 -45.404  0.00  0.00     0.002 A 
ENDBRANCH  15  16
ENDBRANCH  14  15
ENDBRANCH  12  14
ENDBRANCH  11  12
BRANCH  11  22
ATOM     22  C   UNL d   1     -55.206 -99.399 -44.136  0.00  0.00     0.129 C 
ATOM     23  N   UNL d   1     -54.715 -98.971 -44.830  0.00  0.00    -0.146 N 
ENDBRANCH  11  22
ENDBRANCH   1  11
BRANCH   2  24
ATOM     24  N   UNL d   1     -56.761-100.007 -43.568  0.00  0.00    -0.285 N 
ATOM     25  C   UNL d   1     -56.878 -99.206 -43.448  0.00  0.00     0.101 A 
ATOM     26  C   UNL d   1     -57.391 -98.791 -43.943  0.00  0.00     0.100 A 
ATOM     27  N   UNL d   1     -57.783 -99.183 -44.556  0.00  0.00    -0.300 N 
ATOM     28  C   UNL d   1     -57.662 -99.990 -44.674  0.00  0.00     0.100 A 
ATOM     29  C   UNL d   1     -57.153-100.399 -44.181  0.00  0.00     0.101 A 
BRANCH  27  30
ATOM     30  C   UNL d   1     -58.300 -98.761 -45.053  0.00  0.00     0.080 C 
ATOM     31  C   UNL d   1     -58.666 -99.153 -45.682  0.00  0.00     0.021 C 
ENDBRANCH  27  30
ENDBRANCH   2  24
TORSDOF 8
ENDMDL
MODEL 2
REMARK VINA RESULT:     120.5      3.844      6.658
REMARK  8 active torsions:
REMARK  status: ('A' for Active; 'I' for Inactive)
REMARK    1  A    between atoms: C_5  and  C_1 
REMARK    2  A    between atoms: N_6  and  C_2 
REMARK    3  A    between atoms: C_7  and  C_5 
REMARK    4  A    between atoms: C_8  and  C_5 
REMARK    5  A    between atoms: O_13  and  C_7 
REMARK    6  A    between atoms: C_21  and  N_12 
REMARK    7  A    between atoms: C_19  and  O_13 
REMARK    8  A    between atoms: C_20  and  C_19 
ROOT
ATOM      1  C   UNL d   1     -56.646-102.707 -39.581  0.00  0.00     0.122 A 
ATOM      2  C   UNL d   1     -55.874-102.722 -39.297  0.00  0.00     0.166 A 
ATOM      3  N   UNL d   1     -55.253-102.720 -39.834  0.00  0.00    -0.225 NA
ATOM      4  N   UNL d   1     -56.795-102.690 -40.392  0.00  0.00    -0.241 NA
ATOM      5  C   UNL d   1     -55.391-102.703 -40.637  0.00  0.00     0.101 A 
ATOM      6  C   UNL d   1     -56.169-102.688 -40.918  0.00  0.00     0.099 A 
ATOM      7  C   UNL d   1     -56.311-102.671 -41.723  0.00  0.00     0.021 A 
ATOM      8  C   UNL d   1     -54.762-102.702 -41.171  0.00  0.00     0.021 A 
ATOM      9  C   UNL d   1     -54.911-102.684 -41.982  0.00  0.00     0.002 A 
ATOM     10  C   UNL d   1     -55.683-102.669 -42.257  0.00  0.00     0.002 A 
ENDROOT
BRANCH   1  11
ATOM     11  C   UNL d   1     -57.287-102.709 -39.052  0.00  0.00     0.105 C 
BRANCH  11  12
ATOM     12  C   UNL d   1     -58.061-102.598 -39.323  0.00  0.00     0.303 C 
ATOM     13  O   UNL d   1     -58.257-102.833 -40.082  0.00  0.00    -0.259 OA
BRANCH  12  14
ATOM     14  O   UNL d   1     -58.613-102.258 -38.830  0.00  0.00    -0.271 OA
BRANCH  14  15
ATOM     15  C   UNL d   1     -59.324-101.862 -38.743  0.00  0.00     0.126 C 
BRANCH  15  16
ATOM     16  C   UNL d   1     -59.530-101.264 -39.263  0.00  0.00     0.025 A 
ATOM     17  C   UNL d   1     -59.631-101.440 -40.059  0.00  0.00     0.002 A 
ATOM     18  C   UNL d   1     -59.839-100.838 -40.587  0.00  0.00     0.000 A 
ATOM     19  C   UNL d   1     -59.942-100.070 -40.311  0.00  0.00     0.000 A 
ATOM     20  C   UNL d   1     -59.837 -99.903 -39.507  0.00  0.00     0.000 A 
ATOM     21  C   UNL d   1     -59.632-100.499 -38.990  0.00  0.00     0.002 A 
ENDBRANCH  15  16
ENDBRANCH  14  15
ENDBRANCH  12  14
ENDBRANCH  11  12
BRANCH  11  22
ATOM     22  C   UNL d   1     -57.146-102.823 -38.240  0.00  0.00     0.129 C 
ATOM     23  N   UNL d   1     -57.846-102.833 -37.595  0.00  0.00    -0.146 N 
ENDBRANCH  11  22
ENDBRANCH   1  11
BRANCH   2  24
ATOM     24  N   UNL d   1     -55.733-102.740 -38.489  0.00  0.00    -0.285 N 
ATOM     25  C   UNL d   1     -56.359-102.780 -37.964  0.00  0.00     0.101 A 
ATOM     26  C   UNL d   1     -56.210-102.797 -37.153  0.00  0.00     0.100 A 
ATOM     27  N   UNL d   1     -55.431-102.773 -36.874  0.00  0.00    -0.300 N 
ATOM     28  C   UNL d   1     -54.803-102.732 -37.407  0.00  0.00     0.100 A 
ATOM     29  C   UNL d   1     -54.955-102.715 -38.210  0.00  0.00     0.101 A 
BRANCH  27  30
ATOM     30  C   UNL d   1     -55.285-102.790 -36.055  0.00  0.00     0.080 C 
ATOM     31  C   UNL d   1     -54.725-102.273 -35.735  0.00  0.00     0.021 C 
ENDBRANCH  27  30
ENDBRANCH   2  24
TORSDOF 8
ENDMDL
MODEL 3
REMARK VINA RESULT:     121.1      1.485      3.696
REMARK  8 active torsions:
REMARK  status: ('A' for Active; 'I' for Inactive)
REMARK    1  A    between atoms: C_5  and  C_1 
REMARK    2  A    between atoms: N_6  and  C_2 
REMARK    3  A    between atoms: C_7  and  C_5 
REMARK    4  A    between atoms: C_8  and  C_5 
REMARK    5  A    between atoms: O_13  and  C_7 
REMARK    6  A    between atoms: C_21  and  N_12 
REMARK    7  A    between atoms: C_19  and  O_13 
REMARK    8  A    between atoms: C_20  and  C_19 
ROOT
ATOM      1  C   UNL d   1     -56.637 -99.764 -44.034  0.00  0.00     0.122 A 
ATOM      2  C   UNL d   1     -56.848 -99.295 -43.392  0.00  0.00     0.166 A 
ATOM      3  N   UNL d   1     -57.600 -98.965 -43.371  0.00  0.00    -0.225 NA
ATOM      4  N   UNL d   1     -57.171 -99.902 -44.647  0.00  0.00    -0.241 NA
ATOM      5  C   UNL d   1     -58.133 -99.096 -43.973  0.00  0.00     0.101 A 
ATOM      6  C   UNL d   1     -57.917 -99.568 -44.616  0.00  0.00     0.099 A 
ATOM      7  C   UNL d   1     -58.449 -99.702 -45.222  0.00  0.00     0.021 A 
ATOM      8  C   UNL d   1     -58.887 -98.762 -43.945  0.00  0.00     0.021 A 
ATOM      9  C   UNL d   1     -59.421 -98.899 -44.559  0.00  0.00     0.002 A 
ATOM     10  C   UNL d   1     -59.203 -99.367 -45.194  0.00  0.00     0.002 A 
ENDROOT
BRANCH   1  11
ATOM     11  C   UNL d   1     -55.880-100.106 -44.071  0.00  0.00     0.105 C 
BRANCH  11  12
ATOM     12  C   UNL d   1     -55.771-100.858 -44.397  0.00  0.00     0.303 C 
ATOM     13  O   UNL d   1     -55.921-100.976 -45.194  0.00  0.00    -0.259 OA
BRANCH  12  14
ATOM     14  O   UNL d   1     -55.516-101.468 -43.922  0.00  0.00    -0.271 OA
BRANCH  14  15
ATOM     15  C   UNL d   1     -55.673-102.183 -43.556  0.00  0.00     0.126 C 
BRANCH  15  16
ATOM     16  C   UNL d   1     -55.576-102.263 -42.746  0.00  0.00     0.025 A 
ATOM     17  C   UNL d   1     -54.821-102.368 -42.440  0.00  0.00     0.002 A 
ATOM     18  C   UNL d   1     -54.720-102.449 -41.624  0.00  0.00     0.000 A 
ATOM     19  C   UNL d   1     -55.374-102.423 -41.126  0.00  0.00     0.000 A 
ATOM     20  C   UNL d   1     -56.130-102.316 -41.445  0.00  0.00     0.000 A 
ATOM     21  C   UNL d   1     -56.226-102.237 -42.250  0.00  0.00     0.002 A 
ENDBRANCH  15  16
ENDBRANCH  14  15
ENDBRANCH  12  14
ENDBRANCH  11  12
BRANCH  11  22
ATOM     22  C   UNL d   1     -55.226 -99.685 -43.777  0.00  0.00     0.129 C 
ATOM     23  N   UNL d   1     -55.097 -98.757 -43.944  0.00  0.00    -0.146 N 
ENDBRANCH  11  22
ENDBRANCH   1  11
BRANCH   2  24
ATOM     24  N   UNL d   1     -56.312 -99.162 -42.785  0.00  0.00    -0.285 N 
ATOM     25  C   UNL d   1     -55.514 -99.093 -42.950  0.00  0.00     0.101 A 
ATOM     26  C   UNL d   1     -54.981 -98.959 -42.335  0.00  0.00     0.100 A 
ATOM     27  N   UNL d   1     -55.254 -98.896 -41.557  0.00  0.00    -0.300 N 
ATOM     28  C   UNL d   1     -56.059 -98.967 -41.394  0.00  0.00     0.100 A 
ATOM     29  C   UNL d   1     -56.585 -99.099 -42.007  0.00  0.00     0.101 A 
BRANCH  27  30
ATOM     30  C   UNL d   1     -54.713 -98.761 -40.939  0.00  0.00     0.080 C 
ATOM     31  C   UNL d   1     -54.829 -99.137 -40.212  0.00  0.00     0.021 C 
ENDBRANCH  27  30
ENDBRANCH   2  24
TORSDOF 8
ENDMDL
