MODEL 1
REMARK VINA RESULT:      95.3      0.000      0.000
REMARK  5 active torsions:
REMARK  status: ('A' for Active; 'I' for Inactive)
REMARK    1  A    between atoms: S_2  and  C_1 
REMARK    2  A    between atoms: C_8  and  S_2 
REMARK    3  A    between atoms: C_23  and  N_7 
REMARK    4  A    between atoms: N_13  and  C_10 
REMARK    5  A    between atoms: C_31  and  C_23 
ROOT
ATOM      1  C   UNL d   1     -50.264  27.221  33.947  0.00  0.00     0.144 A 
ATOM      2  C   UNL d   1     -49.221  27.893  34.672  0.00  0.00     0.058 A 
ATOM      3  C   UNL d   1     -49.653  27.209  34.513  0.00  0.00     0.209 A 
ATOM      4  C   UNL d   1     -50.436  27.923  33.545  0.00  0.00     0.095 A 
ATOM      5  C   UNL d   1     -49.392  28.594  34.270  0.00  0.00     0.069 A 
ATOM      6  N   UNL d   1     -49.997  28.612  33.708  0.00  0.00    -0.303 N 
ATOM      7  C   UNL d   1     -48.960  29.279  34.429  0.00  0.00     0.037 A 
ATOM      8  C   UNL d   1     -48.355  29.262  34.990  0.00  0.00     0.093 A 
ATOM      9  C   UNL d   1     -48.616  27.876  35.234  0.00  0.00     0.036 A 
ATOM     10  C   UNL d   1     -48.184  28.560  35.393  0.00  0.00     0.156 A 
ATOM     11  O   UNL d   1     -49.482  26.508  34.915  0.00  0.00    -0.286 OA
ATOM     12  F   UNL d   1     -47.571  28.549  35.960  0.00  0.00    -0.203 F 
ENDROOT
BRANCH   1  13
ATOM     13  S   UNL d   1     -50.700  26.536  33.786  0.00  0.00     0.214 S 
ATOM     14  O   UNL d   1     -50.014  26.075  33.917  0.00  0.00    -0.217 OA
ATOM     15  O   UNL d   1     -51.384  26.997  33.655  0.00  0.00    -0.217 OA
BRANCH  13  16
ATOM     16  C   UNL d   1     -51.135  25.842  33.624  0.00  0.00     0.088 A 
ATOM     17  C   UNL d   1     -51.944  25.885  33.469  0.00  0.00     0.011 A 
ATOM     18  C   UNL d   1     -52.370  25.197  33.310  0.00  0.00     0.001 A 
ATOM     19  C   UNL d   1     -52.328  26.618  33.473  0.00  0.00     0.001 C 
ATOM     20  C   UNL d   1     -51.984  24.461  33.306  0.00  0.00     0.000 A 
ATOM     21  C   UNL d   1     -51.177  24.421  33.461  0.00  0.00     0.001 A 
ATOM     22  C   UNL d   1     -50.750  25.106  33.620  0.00  0.00     0.011 A 
ATOM     23  C   UNL d   1     -50.790  23.690  33.458  0.00  0.00     0.000 C 
ENDBRANCH  13  16
ENDBRANCH   1  13
BRANCH   6  24
ATOM     24  C   UNL d   1     -50.168  29.313  33.306  0.00  0.00     0.080 C 
BRANCH  24  25
ATOM     25  C   UNL d   1     -50.780  29.802  33.568  0.00  0.00     0.019 C 
ATOM     26  C   UNL d   1     -51.555  29.665  33.318  0.00  0.00     0.002 C 
ENDBRANCH  24  25
ENDBRANCH   6  24
BRANCH   8  27
ATOM     27  N   UNL d   1     -47.920  29.948  35.151  0.00  0.00    -0.298 N 
ATOM     28  C   UNL d   1     -47.898  30.558  34.595  0.00  0.00     0.107 A 
ATOM     29  C   UNL d   1     -47.465  31.243  34.753  0.00  0.00     0.142 A 
ATOM     30  O   UNL d   1     -47.055  31.307  35.477  0.00  0.00    -0.300 OA
ATOM     31  C   UNL d   1     -47.081  30.692  36.029  0.00  0.00     0.142 A 
ATOM     32  C   UNL d   1     -47.514  30.017  35.862  0.00  0.00     0.107 A 
ENDBRANCH   8  27
TORSDOF 5
ENDMDL
MODEL 2
REMARK VINA RESULT:      97.0      1.244      2.267
REMARK  5 active torsions:
REMARK  status: ('A' for Active; 'I' for Inactive)
REMARK    1  A    between atoms: S_2  and  C_1 
REMARK    2  A    between atoms: C_8  and  S_2 
REMARK    3  A    between atoms: C_23  and  N_7 
REMARK    4  A    between atoms: N_13  and  C_10 
REMARK    5  A    between atoms: C_31  and  C_23 
ROOT
ATOM      1  C   UNL d   1     -49.677  27.747  34.023  0.00  0.00     0.144 A 
ATOM      2  C   UNL d   1     -49.521  29.172  33.923  0.00  0.00     0.058 A 
ATOM      3  C   UNL d   1     -49.946  28.487  33.750  0.00  0.00     0.209 A 
ATOM      4  C   UNL d   1     -48.981  27.702  34.468  0.00  0.00     0.095 A 
ATOM      5  C   UNL d   1     -48.825  29.127  34.368  0.00  0.00     0.069 A 
ATOM      6  N   UNL d   1     -48.554  28.397  34.640  0.00  0.00    -0.303 N 
ATOM      7  C   UNL d   1     -48.399  29.813  34.540  0.00  0.00     0.037 A 
ATOM      8  C   UNL d   1     -48.670  30.543  34.268  0.00  0.00     0.093 A 
ATOM      9  C   UNL d   1     -49.791  29.903  33.651  0.00  0.00     0.036 A 
ATOM     10  C   UNL d   1     -49.365  30.588  33.823  0.00  0.00     0.156 A 
ATOM     11  O   UNL d   1     -50.641  28.532  33.306  0.00  0.00    -0.286 OA
ATOM     12  F   UNL d   1     -49.634  31.331  33.550  0.00  0.00    -0.203 F 
ENDROOT
BRANCH   1  13
ATOM     13  S   UNL d   1     -50.103  27.058  33.851  0.00  0.00     0.214 S 
ATOM     14  O   UNL d   1     -49.510  26.833  33.306  0.00  0.00    -0.217 OA
ATOM     15  O   UNL d   1     -50.694  27.283  34.397  0.00  0.00    -0.217 OA
BRANCH  13  16
ATOM     16  C   UNL d   1     -50.529  26.361  33.675  0.00  0.00     0.088 A 
ATOM     17  C   UNL d   1     -50.135  25.640  33.599  0.00  0.00     0.011 A 
ATOM     18  C   UNL d   1     -50.561  24.956  33.425  0.00  0.00     0.001 A 
ATOM     19  C   UNL d   1     -49.315  25.604  33.697  0.00  0.00     0.001 C 
ATOM     20  C   UNL d   1     -51.386  24.992  33.326  0.00  0.00     0.000 A 
ATOM     21  C   UNL d   1     -51.775  25.713  33.403  0.00  0.00     0.001 A 
ATOM     22  C   UNL d   1     -51.353  26.398  33.577  0.00  0.00     0.011 A 
ATOM     23  C   UNL d   1     -52.595  25.754  33.306  0.00  0.00     0.000 C 
ENDBRANCH  13  16
ENDBRANCH   1  13
BRANCH   6  24
ATOM     24  C   UNL d   1     -47.859  28.352  35.084  0.00  0.00     0.080 C 
BRANCH  24  25
ATOM     25  C   UNL d   1     -47.891  28.397  35.908  0.00  0.00     0.019 C 
ATOM     26  C   UNL d   1     -47.278  28.758  36.327  0.00  0.00     0.002 C 
ENDBRANCH  24  25
ENDBRANCH   6  24
BRANCH   8  27
ATOM     27  N   UNL d   1     -48.243  31.233  34.440  0.00  0.00    -0.298 N 
ATOM     28  C   UNL d   1     -47.859  31.305  35.168  0.00  0.00     0.107 A 
ATOM     29  C   UNL d   1     -47.434  31.991  35.342  0.00  0.00     0.142 A 
ATOM     30  O   UNL d   1     -47.400  32.603  34.775  0.00  0.00    -0.300 OA
ATOM     31  C   UNL d   1     -47.787  32.523  34.049  0.00  0.00     0.142 A 
ATOM     32  C   UNL d   1     -48.206  31.839  33.887  0.00  0.00     0.107 A 
ENDBRANCH   8  27
TORSDOF 5
ENDMDL
