MODEL 1
REMARK VINA RESULT:      -2.8      0.000      0.000
REMARK  3 active torsions:
REMARK  status: ('A' for Active; 'I' for Inactive)
REMARK    1  A    between atoms: C_2  and  S_1 
REMARK    2  A    between atoms: N_3  and  S_1 
REMARK    3  A    between atoms: O_17  and  C_7 
ROOT
ATOM      1  S   UNL d   1      30.947  16.650 -23.873  0.00  0.00     0.273 S 
ATOM      2  O   UNL d   1      31.203  16.152 -23.247  0.00  0.00    -0.200 OA
ATOM      3  O   UNL d   1      30.698  17.145 -24.493  0.00  0.00    -0.200 OA
ENDROOT
BRANCH   1   4
ATOM      4  C   UNL d   1      31.726  16.981 -23.929  0.00  0.00     0.127 A 
ATOM      5  C   UNL d   1      31.875  17.697 -23.564  0.00  0.00     0.026 A 
ATOM      6  C   UNL d   1      32.627  18.038 -23.606  0.00  0.00     0.059 A 
ATOM      7 CL   UNL d   1      32.773  18.767 -23.233  0.00  0.00    -0.082 Cl
ATOM      8  C   UNL d   1      33.241  17.652 -24.022  0.00  0.00     0.013 A 
ATOM      9  C   UNL d   1      33.072  16.915 -24.392  0.00  0.00     0.026 A 
ATOM     10  C   UNL d   1      32.317  16.587 -24.342  0.00  0.00     0.106 A 
BRANCH  10  11
ATOM     11  O   UNL d   1      32.171  15.858 -24.715  0.00  0.00    -0.327 OA
ATOM     12  C   UNL d   1      32.787  15.461 -25.097  0.00  0.00     0.181 C 
ENDBRANCH  10  11
ENDBRANCH   1   4
BRANCH   1  13
ATOM     13  N   UNL d   1      30.186  16.334 -23.827  0.00  0.00    -0.226 N 
ATOM     14  C   UNL d   1      29.613  16.516 -24.384  0.00  0.00     0.111 A 
ATOM     15  C   UNL d   1      28.852  16.200 -24.338  0.00  0.00     0.100 A 
ATOM     16  N   UNL d   1      28.655  15.690 -23.721  0.00  0.00    -0.299 N 
ATOM     17  C   UNL d   1      29.227  15.506 -23.160  0.00  0.00     0.100 A 
ATOM     18  C   UNL d   1      28.080  15.468 -23.709  0.00  0.00     0.100 C 
ATOM     19  C   UNL d   1      29.987  15.823 -23.209  0.00  0.00     0.111 A 
ENDBRANCH   1  13
TORSDOF 3
ENDMDL
MODEL 2
REMARK VINA RESULT:      -1.8      2.233      3.840
REMARK  3 active torsions:
REMARK  status: ('A' for Active; 'I' for Inactive)
REMARK    1  A    between atoms: C_2  and  S_1 
REMARK    2  A    between atoms: N_3  and  S_1 
REMARK    3  A    between atoms: O_17  and  C_7 
ROOT
ATOM      1  S   UNL d   1      32.434  18.056 -23.923  0.00  0.00     0.273 S 
ATOM      2  O   UNL d   1      32.372  17.715 -23.158  0.00  0.00    -0.200 OA
ATOM      3  O   UNL d   1      32.493  18.389 -24.683  0.00  0.00    -0.200 OA
ENDROOT
BRANCH   1   4
ATOM      4  C   UNL d   1      32.213  17.314 -24.271  0.00  0.00     0.127 A 
ATOM      5  C   UNL d   1      32.799  16.767 -24.432  0.00  0.00     0.026 A 
ATOM      6  C   UNL d   1      32.606  16.038 -24.771  0.00  0.00     0.059 A 
ATOM      7 CL   UNL d   1      33.206  15.485 -24.932  0.00  0.00    -0.082 Cl
ATOM      8  C   UNL d   1      31.811  15.856 -24.953  0.00  0.00     0.013 A 
ATOM      9  C   UNL d   1      31.219  16.430 -24.782  0.00  0.00     0.026 A 
ATOM     10  C   UNL d   1      31.426  17.153 -24.443  0.00  0.00     0.106 A 
BRANCH  10  11
ATOM     11  O   UNL d   1      30.826  17.706 -24.282  0.00  0.00    -0.327 OA
ATOM     12  C   UNL d   1      30.064  17.585 -24.578  0.00  0.00     0.181 C 
ENDBRANCH  10  11
ENDBRANCH   1   4
BRANCH   1  13
ATOM     13  N   UNL d   1      32.648  18.781 -23.594  0.00  0.00    -0.226 N 
ATOM     14  C   UNL d   1      32.654  18.899 -22.783  0.00  0.00     0.111 A 
ATOM     15  C   UNL d   1      32.869  19.625 -22.454  0.00  0.00     0.100 A 
ATOM     16  N   UNL d   1      33.084  20.251 -22.945  0.00  0.00    -0.299 N 
ATOM     17  C   UNL d   1      33.080  20.137 -23.760  0.00  0.00     0.100 A 
ATOM     18  C   UNL d   1      33.241  20.782 -22.675  0.00  0.00     0.100 C 
ATOM     19  C   UNL d   1      32.865  19.410 -24.085  0.00  0.00     0.111 A 
ENDBRANCH   1  13
TORSDOF 3
ENDMDL
MODEL 3
REMARK VINA RESULT:      -1.6      2.044      3.534
REMARK  3 active torsions:
REMARK  status: ('A' for Active; 'I' for Inactive)
REMARK    1  A    between atoms: C_2  and  S_1 
REMARK    2  A    between atoms: N_3  and  S_1 
REMARK    3  A    between atoms: O_17  and  C_7 
ROOT
ATOM      1  S   UNL d   1      31.908  17.607 -24.118  0.00  0.00     0.273 S 
ATOM      2  O   UNL d   1      31.756  17.398 -23.319  0.00  0.00    -0.200 OA
ATOM      3  O   UNL d   1      32.056  17.810 -24.911  0.00  0.00    -0.200 OA
ENDROOT
BRANCH   1   4
ATOM      4  C   UNL d   1      31.546  16.884 -24.376  0.00  0.00     0.127 A 
ATOM      5  C   UNL d   1      30.747  16.887 -24.550  0.00  0.00     0.026 A 
ATOM      6  C   UNL d   1      30.374  16.194 -24.804  0.00  0.00     0.059 A 
ATOM      7 CL   UNL d   1      29.561  16.201 -24.979  0.00  0.00    -0.082 Cl
ATOM      8  C   UNL d   1      30.812  15.486 -24.884  0.00  0.00     0.013 A 
ATOM      9  C   UNL d   1      31.633  15.500 -24.701  0.00  0.00     0.026 A 
ATOM     10  C   UNL d   1      31.992  16.199 -24.449  0.00  0.00     0.106 A 
BRANCH  10  11
ATOM     11  O   UNL d   1      32.805  16.191 -24.273  0.00  0.00    -0.327 OA
ATOM     12  C   UNL d   1      33.230  15.484 -24.322  0.00  0.00     0.181 C 
ENDBRANCH  10  11
ENDBRANCH   1   4
BRANCH   1  13
ATOM     13  N   UNL d   1      32.262  18.312 -23.877  0.00  0.00    -0.226 N 
ATOM     14  C   UNL d   1      32.476  18.439 -23.096  0.00  0.00     0.111 A 
ATOM     15  C   UNL d   1      32.830  19.145 -22.855  0.00  0.00     0.100 A 
ATOM     16  N   UNL d   1      32.975  19.740 -23.406  0.00  0.00    -0.299 N 
ATOM     17  C   UNL d   1      32.762  19.617 -24.191  0.00  0.00     0.100 A 
ATOM     18  C   UNL d   1      33.241  20.257 -23.201  0.00  0.00     0.100 C 
ATOM     19  C   UNL d   1      32.409  18.911 -24.428  0.00  0.00     0.111 A 
ENDBRANCH   1  13
TORSDOF 3
ENDMDL
MODEL 4
REMARK VINA RESULT:      -0.1      4.980      6.257
REMARK  3 active torsions:
REMARK  status: ('A' for Active; 'I' for Inactive)
REMARK    1  A    between atoms: C_2  and  S_1 
REMARK    2  A    between atoms: N_3  and  S_1 
REMARK    3  A    between atoms: O_17  and  C_7 
ROOT
ATOM      1  S   UNL d   1      32.774  21.372 -21.468  0.00  0.00     0.273 S 
ATOM      2  O   UNL d   1      32.308  20.811 -21.052  0.00  0.00    -0.200 OA
ATOM      3  O   UNL d   1      33.237  21.923 -21.885  0.00  0.00    -0.200 OA
ENDROOT
BRANCH   1   4
ATOM      4  C   UNL d   1      32.923  20.797 -22.075  0.00  0.00     0.127 A 
ATOM      5  C   UNL d   1      32.892  20.004 -21.880  0.00  0.00     0.026 A 
ATOM      6  C   UNL d   1      33.034  19.428 -22.456  0.00  0.00     0.059 A 
ATOM      7 CL   UNL d   1      33.001  18.622 -22.252  0.00  0.00    -0.082 Cl
ATOM      8  C   UNL d   1      33.212  19.652 -23.241  0.00  0.00     0.013 A 
ATOM      9  C   UNL d   1      33.240  20.473 -23.425  0.00  0.00     0.026 A 
ATOM     10  C   UNL d   1      33.096  21.037 -22.841  0.00  0.00     0.106 A 
BRANCH  10  11
ATOM     11  O   UNL d   1      33.130  21.843 -23.045  0.00  0.00    -0.327 OA
ATOM     12  C   UNL d   1      33.241  22.064 -23.834  0.00  0.00     0.181 C 
ENDBRANCH  10  11
ENDBRANCH   1   4
BRANCH   1  13
ATOM     13  N   UNL d   1      32.635  21.937 -20.884  0.00  0.00    -0.226 N 
ATOM     14  C   UNL d   1      32.003  22.458 -20.935  0.00  0.00     0.111 A 
ATOM     15  C   UNL d   1      31.864  23.024 -20.351  0.00  0.00     0.100 A 
ATOM     16  N   UNL d   1      32.366  23.074 -19.699  0.00  0.00    -0.299 N 
ATOM     17  C   UNL d   1      33.001  22.553 -19.645  0.00  0.00     0.100 A 
ATOM     18  C   UNL d   1      32.241  23.505 -19.277  0.00  0.00     0.100 C 
ATOM     19  C   UNL d   1      33.137  21.989 -20.230  0.00  0.00     0.111 A 
ENDBRANCH   1  13
TORSDOF 3
ENDMDL
MODEL 5
REMARK VINA RESULT:       0.2      6.496      7.650
REMARK  3 active torsions:
REMARK  status: ('A' for Active; 'I' for Inactive)
REMARK    1  A    between atoms: C_2  and  S_1 
REMARK    2  A    between atoms: N_3  and  S_1 
REMARK    3  A    between atoms: O_17  and  C_7 
ROOT
ATOM      1  S   UNL d   1      32.876  22.756 -20.297  0.00  0.00     0.273 S 
ATOM      2  O   UNL d   1      32.591  21.981 -20.146  0.00  0.00    -0.200 OA
ATOM      3  O   UNL d   1      33.160  23.523 -20.453  0.00  0.00    -0.200 OA
ENDROOT
BRANCH   1   4
ATOM      4  C   UNL d   1      32.998  22.552 -21.112  0.00  0.00     0.127 A 
ATOM      5  C   UNL d   1      32.995  23.149 -21.670  0.00  0.00     0.026 A 
ATOM      6  C   UNL d   1      33.112  22.973 -22.469  0.00  0.00     0.059 A 
ATOM      7 CL   UNL d   1      33.107  23.585 -23.033  0.00  0.00    -0.082 Cl
ATOM      8  C   UNL d   1      33.235  22.183 -22.712  0.00  0.00     0.013 A 
ATOM      9  C   UNL d   1      33.235  21.579 -22.124  0.00  0.00     0.026 A 
ATOM     10  C   UNL d   1      33.117  21.770 -21.331  0.00  0.00     0.106 A 
BRANCH  10  11
ATOM     11  O   UNL d   1      33.122  21.159 -20.767  0.00  0.00    -0.327 OA
ATOM     12  C   UNL d   1      33.077  20.371 -21.014  0.00  0.00     0.181 C 
ENDBRANCH  10  11
ENDBRANCH   1   4
BRANCH   1  13
ATOM     13  N   UNL d   1      32.761  22.965 -19.507  0.00  0.00    -0.226 N 
ATOM     14  C   UNL d   1      32.175  23.494 -19.285  0.00  0.00     0.111 A 
ATOM     15  C   UNL d   1      32.060  23.702 -18.495  0.00  0.00     0.100 A 
ATOM     16  N   UNL d   1      32.541  23.376 -17.910  0.00  0.00    -0.299 N 
ATOM     17  C   UNL d   1      33.129  22.845 -18.128  0.00  0.00     0.100 A 
ATOM     18  C   UNL d   1      32.434  23.548 -17.327  0.00  0.00     0.100 C 
ATOM     19  C   UNL d   1      33.241  22.639 -18.919  0.00  0.00     0.111 A 
ENDBRANCH   1  13
TORSDOF 3
ENDMDL
