MODEL 1
REMARK VINA RESULT:      -8.5      0.000      0.000
REMARK  3 active torsions:
REMARK  status: ('A' for Active; 'I' for Inactive)
REMARK    1  A    between atoms: C_5  and  C_1 
REMARK    2  A    between atoms: N_6  and  C_5 
REMARK    3  A    between atoms: C_8  and  C_5 
ROOT
ATOM      1  C   UNL d   1      53.306  32.378  53.555  0.00  0.00     0.083 C 
ENDROOT
BRANCH   1   2
ATOM      2  C   UNL d   1      54.043  32.738  53.790  0.00  0.00     0.037 A 
ATOM      3  C   UNL d   1      54.712  32.815  53.302  0.00  0.00     0.083 A 
ATOM      4  N   UNL d   1      55.292  33.186  53.739  0.00  0.00    -0.245 NA
ATOM      5  C   UNL d   1      54.773  32.555  52.505  0.00  0.00     0.021 C 
ATOM      6  C   UNL d   1      55.005  33.347  54.494  0.00  0.00     0.081 A 
ATOM      7  C   UNL d   1      54.214  33.063  54.526  0.00  0.00     0.021 A 
ATOM      8  C   UNL d   1      55.341  33.705  55.150  0.00  0.00     0.019 A 
ATOM      9  C   UNL d   1      53.778  33.144  55.214  0.00  0.00     0.002 A 
ATOM     10  C   UNL d   1      54.125  33.512  55.888  0.00  0.00     0.000 A 
ATOM     11  C   UNL d   1      54.883  33.784  55.857  0.00  0.00     0.002 A 
ENDBRANCH   1   2
BRANCH   1  12
ATOM     12  N   UNL d   1      52.658  32.849  53.322  0.00  0.00    -0.302 N 
ATOM     13  C   UNL d   1      52.692  33.275  52.616  0.00  0.00     0.080 A 
ATOM     14  C   UNL d   1      52.049  33.737  52.391  0.00  0.00     0.019 A 
ATOM     15  C   UNL d   1      51.375  33.775  52.866  0.00  0.00     0.003 A 
ATOM     16  C   UNL d   1      51.337  33.351  53.569  0.00  0.00     0.019 A 
ATOM     17  C   UNL d   1      50.726  34.246  52.633  0.00  0.00     0.000 C 
ATOM     18  C   UNL d   1      51.981  32.889  53.794  0.00  0.00     0.080 A 
ENDBRANCH   1  12
BRANCH   1  19
ATOM     19  C   UNL d   1      53.235  31.534  53.560  0.00  0.00     0.098 A 
ATOM     20  N   UNL d   1      53.228  31.121  54.272  0.00  0.00    -0.243 NA
ATOM     21  C   UNL d   1      53.160  30.305  54.284  0.00  0.00     0.099 A 
ATOM     22  C   UNL d   1      53.098  29.896  53.572  0.00  0.00     0.021 A 
ATOM     23  C   UNL d   1      53.105  30.307  52.856  0.00  0.00     0.003 A 
ATOM     24  C   UNL d   1      53.174  31.140  52.834  0.00  0.00     0.021 A 
ENDBRANCH   1  19
TORSDOF 3
ENDMDL
MODEL 2
REMARK VINA RESULT:      -8.1      0.383      2.459
REMARK  3 active torsions:
REMARK  status: ('A' for Active; 'I' for Inactive)
REMARK    1  A    between atoms: C_5  and  C_1 
REMARK    2  A    between atoms: N_6  and  C_5 
REMARK    3  A    between atoms: C_8  and  C_5 
ROOT
ATOM      1  C   UNL d   1      53.324  32.446  53.579  0.00  0.00     0.083 C 
ENDROOT
BRANCH   1   2
ATOM      2  C   UNL d   1      54.064  32.803  53.808  0.00  0.00     0.037 A 
ATOM      3  C   UNL d   1      54.729  32.882  53.315  0.00  0.00     0.083 A 
ATOM      4  N   UNL d   1      55.313  33.251  53.747  0.00  0.00    -0.245 NA
ATOM      5  C   UNL d   1      54.782  32.624  52.516  0.00  0.00     0.021 C 
ATOM      6  C   UNL d   1      55.033  33.409  54.505  0.00  0.00     0.081 A 
ATOM      7  C   UNL d   1      54.243  33.125  54.544  0.00  0.00     0.021 A 
ATOM      8  C   UNL d   1      55.376  33.765  55.159  0.00  0.00     0.019 A 
ATOM      9  C   UNL d   1      53.813  33.204  55.236  0.00  0.00     0.002 A 
ATOM     10  C   UNL d   1      54.166  33.570  55.908  0.00  0.00     0.000 A 
ATOM     11  C   UNL d   1      54.924  33.842  55.871  0.00  0.00     0.002 A 
ENDBRANCH   1   2
BRANCH   1  12
ATOM     12  N   UNL d   1      53.231  31.617  53.586  0.00  0.00    -0.302 N 
ATOM     13  C   UNL d   1      53.156  31.206  52.874  0.00  0.00     0.080 A 
ATOM     14  C   UNL d   1      53.064  30.388  52.887  0.00  0.00     0.019 A 
ATOM     15  C   UNL d   1      53.046  29.981  53.604  0.00  0.00     0.003 A 
ATOM     16  C   UNL d   1      53.120  30.387  54.315  0.00  0.00     0.019 A 
ATOM     17  C   UNL d   1      52.952  29.151  53.612  0.00  0.00     0.000 C 
ATOM     18  C   UNL d   1      53.212  31.206  54.302  0.00  0.00     0.080 A 
ENDBRANCH   1  12
BRANCH   1  19
ATOM     19  C   UNL d   1      52.679  32.942  53.342  0.00  0.00     0.098 A 
ATOM     20  N   UNL d   1      52.029  33.043  53.837  0.00  0.00    -0.243 NA
ATOM     21  C   UNL d   1      51.402  33.522  53.614  0.00  0.00     0.099 A 
ATOM     22  C   UNL d   1      51.427  33.904  52.885  0.00  0.00     0.021 A 
ATOM     23  C   UNL d   1      52.078  33.804  52.387  0.00  0.00     0.003 A 
ATOM     24  C   UNL d   1      52.722  33.318  52.606  0.00  0.00     0.021 A 
ENDBRANCH   1  19
TORSDOF 3
ENDMDL
MODEL 3
REMARK VINA RESULT:      -7.2      0.829      3.290
REMARK  3 active torsions:
REMARK  status: ('A' for Active; 'I' for Inactive)
REMARK    1  A    between atoms: C_5  and  C_1 
REMARK    2  A    between atoms: N_6  and  C_5 
REMARK    3  A    between atoms: C_8  and  C_5 
ROOT
ATOM      1  C   UNL d   1      53.222  32.843  53.668  0.00  0.00     0.083 C 
ENDROOT
BRANCH   1   2
ATOM      2  C   UNL d   1      52.781  33.383  53.175  0.00  0.00     0.037 A 
ATOM      3  C   UNL d   1      53.109  33.851  52.571  0.00  0.00     0.083 A 
ATOM      4  N   UNL d   1      52.501  34.283  52.240  0.00  0.00    -0.245 NA
ATOM      5  C   UNL d   1      53.919  33.870  52.347  0.00  0.00     0.021 C 
ATOM      6  C   UNL d   1      51.796  34.099  52.622  0.00  0.00     0.081 A 
ATOM      7  C   UNL d   1      51.973  33.529  53.214  0.00  0.00     0.021 A 
ATOM      8  C   UNL d   1      51.026  34.362  52.520  0.00  0.00     0.019 A 
ATOM      9  C   UNL d   1      51.376  33.235  53.690  0.00  0.00     0.002 A 
ATOM     10  C   UNL d   1      50.585  33.506  53.586  0.00  0.00     0.000 A 
ATOM     11  C   UNL d   1      50.415  34.052  53.018  0.00  0.00     0.002 A 
ENDBRANCH   1   2
BRANCH   1  12
ATOM     12  N   UNL d   1      53.185  32.020  53.538  0.00  0.00    -0.302 N 
ATOM     13  C   UNL d   1      53.461  31.703  52.827  0.00  0.00     0.080 A 
ATOM     14  C   UNL d   1      53.422  30.890  52.705  0.00  0.00     0.019 A 
ATOM     15  C   UNL d   1      53.110  30.394  53.286  0.00  0.00     0.003 A 
ATOM     16  C   UNL d   1      52.835  30.706  53.995  0.00  0.00     0.019 A 
ATOM     17  C   UNL d   1      53.073  29.570  53.157  0.00  0.00     0.000 C 
ATOM     18  C   UNL d   1      52.874  31.520  54.118  0.00  0.00     0.080 A 
ENDBRANCH   1  12
BRANCH   1  19
ATOM     19  C   UNL d   1      53.701  33.150  54.295  0.00  0.00     0.098 A 
ATOM     20  N   UNL d   1      53.351  33.446  54.979  0.00  0.00    -0.243 NA
ATOM     21  C   UNL d   1      53.809  33.745  55.590  0.00  0.00     0.099 A 
ATOM     22  C   UNL d   1      54.628  33.748  55.514  0.00  0.00     0.021 A 
ATOM     23  C   UNL d   1      54.982  33.453  54.829  0.00  0.00     0.003 A 
ATOM     24  C   UNL d   1      54.523  33.145  54.201  0.00  0.00     0.021 A 
ENDBRANCH   1  19
TORSDOF 3
ENDMDL
MODEL 4
REMARK VINA RESULT:      -7.2      0.758      2.633
REMARK  3 active torsions:
REMARK  status: ('A' for Active; 'I' for Inactive)
REMARK    1  A    between atoms: C_5  and  C_1 
REMARK    2  A    between atoms: N_6  and  C_5 
REMARK    3  A    between atoms: C_8  and  C_5 
ROOT
ATOM      1  C   UNL d   1      53.559  32.691  53.881  0.00  0.00     0.083 C 
ENDROOT
BRANCH   1   2
ATOM      2  C   UNL d   1      53.793  31.940  53.551  0.00  0.00     0.037 A 
ATOM      3  C   UNL d   1      54.422  31.829  53.019  0.00  0.00     0.083 A 
ATOM      4  N   UNL d   1      54.458  31.033  52.843  0.00  0.00    -0.245 NA
ATOM      5  C   UNL d   1      54.926  32.432  52.720  0.00  0.00     0.021 C 
ATOM      6  C   UNL d   1      53.864  30.637  53.254  0.00  0.00     0.081 A 
ATOM      7  C   UNL d   1      53.444  31.211  53.702  0.00  0.00     0.021 A 
ATOM      8  C   UNL d   1      53.645  29.847  53.286  0.00  0.00     0.019 A 
ATOM      9  C   UNL d   1      52.814  30.981  54.172  0.00  0.00     0.002 A 
ATOM     10  C   UNL d   1      52.590  30.170  54.205  0.00  0.00     0.000 A 
ATOM     11  C   UNL d   1      52.993  29.620  53.775  0.00  0.00     0.002 A 
ENDBRANCH   1   2
BRANCH   1  12
ATOM     12  N   UNL d   1      52.911  33.111  53.567  0.00  0.00    -0.302 N 
ATOM     13  C   UNL d   1      52.989  33.509  52.848  0.00  0.00     0.080 A 
ATOM     14  C   UNL d   1      52.347  33.922  52.542  0.00  0.00     0.019 A 
ATOM     15  C   UNL d   1      51.629  33.940  52.950  0.00  0.00     0.003 A 
ATOM     16  C   UNL d   1      51.547  33.545  53.666  0.00  0.00     0.019 A 
ATOM     17  C   UNL d   1      50.980  34.361  52.635  0.00  0.00     0.000 C 
ATOM     18  C   UNL d   1      52.191  33.131  53.972  0.00  0.00     0.080 A 
ENDBRANCH   1  12
BRANCH   1  19
ATOM     19  C   UNL d   1      53.992  33.010  54.536  0.00  0.00     0.098 A 
ATOM     20  N   UNL d   1      53.841  32.748  55.302  0.00  0.00    -0.243 NA
ATOM     21  C   UNL d   1      54.256  33.052  55.939  0.00  0.00     0.099 A 
ATOM     22  C   UNL d   1      54.830  33.627  55.808  0.00  0.00     0.021 A 
ATOM     23  C   UNL d   1      54.983  33.893  55.042  0.00  0.00     0.003 A 
ATOM     24  C   UNL d   1      54.565  33.588  54.385  0.00  0.00     0.021 A 
ENDBRANCH   1  19
TORSDOF 3
ENDMDL
MODEL 5
REMARK VINA RESULT:      -6.8      0.835      3.054
REMARK  3 active torsions:
REMARK  status: ('A' for Active; 'I' for Inactive)
REMARK    1  A    between atoms: C_5  and  C_1 
REMARK    2  A    between atoms: N_6  and  C_5 
REMARK    3  A    between atoms: C_8  and  C_5 
ROOT
ATOM      1  C   UNL d   1      53.039  32.805  53.424  0.00  0.00     0.083 C 
ENDROOT
BRANCH   1   2
ATOM      2  C   UNL d   1      52.564  33.374  53.000  0.00  0.00     0.037 A 
ATOM      3  C   UNL d   1      52.845  33.875  52.398  0.00  0.00     0.083 A 
ATOM      4  N   UNL d   1      52.217  34.327  52.143  0.00  0.00    -0.245 NA
ATOM      5  C   UNL d   1      53.635  33.905  52.111  0.00  0.00     0.021 C 
ATOM      6  C   UNL d   1      51.542  34.124  52.570  0.00  0.00     0.081 A 
ATOM      7  C   UNL d   1      51.763  33.520  53.112  0.00  0.00     0.021 A 
ATOM      8  C   UNL d   1      50.769  34.395  52.546  0.00  0.00     0.019 A 
ATOM      9  C   UNL d   1      51.204  33.202  53.618  0.00  0.00     0.002 A 
ATOM     10  C   UNL d   1      50.409  33.480  53.594  0.00  0.00     0.000 A 
ATOM     11  C   UNL d   1      50.198  34.059  53.074  0.00  0.00     0.002 A 
ENDBRANCH   1   2
BRANCH   1  12
ATOM     12  N   UNL d   1      53.578  33.052  54.010  0.00  0.00    -0.302 N 
ATOM     13  C   UNL d   1      54.386  33.065  53.846  0.00  0.00     0.080 A 
ATOM     14  C   UNL d   1      54.913  33.310  54.429  0.00  0.00     0.019 A 
ATOM     15  C   UNL d   1      54.637  33.540  55.172  0.00  0.00     0.003 A 
ATOM     16  C   UNL d   1      53.833  33.528  55.339  0.00  0.00     0.019 A 
ATOM     17  C   UNL d   1      55.176  33.787  55.760  0.00  0.00     0.000 C 
ATOM     18  C   UNL d   1      53.305  33.284  54.755  0.00  0.00     0.080 A 
ENDBRANCH   1  12
BRANCH   1  19
ATOM     19  C   UNL d   1      52.959  31.981  53.243  0.00  0.00     0.098 A 
ATOM     20  N   UNL d   1      53.140  31.701  52.491  0.00  0.00    -0.243 NA
ATOM     21  C   UNL d   1      53.065  30.905  52.310  0.00  0.00     0.099 A 
ATOM     22  C   UNL d   1      52.804  30.383  52.890  0.00  0.00     0.021 A 
ATOM     23  C   UNL d   1      52.622  30.661  53.646  0.00  0.00     0.003 A 
ATOM     24  C   UNL d   1      52.696  31.472  53.840  0.00  0.00     0.021 A 
ENDBRANCH   1  19
TORSDOF 3
ENDMDL
MODEL 6
REMARK VINA RESULT:      -6.4      0.815      2.823
REMARK  3 active torsions:
REMARK  status: ('A' for Active; 'I' for Inactive)
REMARK    1  A    between atoms: C_5  and  C_1 
REMARK    2  A    between atoms: N_6  and  C_5 
REMARK    3  A    between atoms: C_8  and  C_5 
ROOT
ATOM      1  C   UNL d   1      52.964  32.801  53.568  0.00  0.00     0.083 C 
ENDROOT
BRANCH   1   2
ATOM      2  C   UNL d   1      53.521  33.175  54.096  0.00  0.00     0.037 A 
ATOM      3  C   UNL d   1      53.331  33.492  54.841  0.00  0.00     0.083 A 
ATOM      4  N   UNL d   1      54.018  33.794  55.161  0.00  0.00    -0.245 NA
ATOM      5  C   UNL d   1      52.568  33.499  55.193  0.00  0.00     0.021 C 
ATOM      6  C   UNL d   1      54.640  33.674  54.635  0.00  0.00     0.081 A 
ATOM      7  C   UNL d   1      54.325  33.282  53.960  0.00  0.00     0.021 A 
ATOM      8  C   UNL d   1      55.437  33.861  54.667  0.00  0.00     0.019 A 
ATOM      9  C   UNL d   1      54.815  33.086  53.335  0.00  0.00     0.002 A 
ATOM     10  C   UNL d   1      55.635  33.278  53.370  0.00  0.00     0.000 A 
ATOM     11  C   UNL d   1      55.936  33.654  54.016  0.00  0.00     0.002 A 
ENDBRANCH   1   2
BRANCH   1  12
ATOM     12  N   UNL d   1      52.951  31.972  53.479  0.00  0.00    -0.302 N 
ATOM     13  C   UNL d   1      53.002  31.639  52.726  0.00  0.00     0.080 A 
ATOM     14  C   UNL d   1      52.988  30.820  52.644  0.00  0.00     0.019 A 
ATOM     15  C   UNL d   1      52.924  30.334  53.309  0.00  0.00     0.003 A 
ATOM     16  C   UNL d   1      52.874  30.663  54.060  0.00  0.00     0.019 A 
ATOM     17  C   UNL d   1      52.911  29.504  53.220  0.00  0.00     0.000 C 
ATOM     18  C   UNL d   1      52.887  31.483  54.142  0.00  0.00     0.080 A 
ENDBRANCH   1  12
BRANCH   1  19
ATOM     19  C   UNL d   1      52.420  33.281  53.131  0.00  0.00     0.098 A 
ATOM     20  N   UNL d   1      52.670  33.686  52.458  0.00  0.00    -0.243 NA
ATOM     21  C   UNL d   1      52.149  34.152  52.031  0.00  0.00     0.099 A 
ATOM     22  C   UNL d   1      51.367  34.214  52.280  0.00  0.00     0.021 A 
ATOM     23  C   UNL d   1      51.114  33.810  52.954  0.00  0.00     0.003 A 
ATOM     24  C   UNL d   1      51.638  33.332  53.396  0.00  0.00     0.021 A 
ENDBRANCH   1  19
TORSDOF 3
ENDMDL
MODEL 7
REMARK VINA RESULT:      -5.9      0.765      3.228
REMARK  3 active torsions:
REMARK  status: ('A' for Active; 'I' for Inactive)
REMARK    1  A    between atoms: C_5  and  C_1 
REMARK    2  A    between atoms: N_6  and  C_5 
REMARK    3  A    between atoms: C_8  and  C_5 
ROOT
ATOM      1  C   UNL d   1      53.052  32.262  53.601  0.00  0.00     0.083 C 
ENDROOT
BRANCH   1   2
ATOM      2  C   UNL d   1      53.122  31.441  53.380  0.00  0.00     0.037 A 
ATOM      3  C   UNL d   1      53.213  31.164  52.601  0.00  0.00     0.083 A 
ATOM      4  N   UNL d   1      53.258  30.350  52.634  0.00  0.00    -0.245 NA
ATOM      5  C   UNL d   1      53.251  31.641  51.909  0.00  0.00     0.021 C 
ATOM      6  C   UNL d   1      53.197  30.106  53.418  0.00  0.00     0.081 A 
ATOM      7  C   UNL d   1      53.111  30.796  53.890  0.00  0.00     0.021 A 
ATOM      8  C   UNL d   1      53.207  29.365  53.770  0.00  0.00     0.019 A 
ATOM      9  C   UNL d   1      53.037  30.730  54.702  0.00  0.00     0.002 A 
ATOM     10  C   UNL d   1      53.048  29.969  55.063  0.00  0.00     0.000 A 
ATOM     11  C   UNL d   1      53.130  29.307  54.611  0.00  0.00     0.002 A 
ENDBRANCH   1   2
BRANCH   1  12
ATOM     12  N   UNL d   1      53.678  32.655  53.987  0.00  0.00    -0.302 N 
ATOM     13  C   UNL d   1      54.372  32.828  53.575  0.00  0.00     0.080 A 
ATOM     14  C   UNL d   1      54.986  33.215  53.961  0.00  0.00     0.019 A 
ATOM     15  C   UNL d   1      54.911  33.430  54.755  0.00  0.00     0.003 A 
ATOM     16  C   UNL d   1      54.222  33.260  55.169  0.00  0.00     0.019 A 
ATOM     17  C   UNL d   1      55.538  33.823  55.142  0.00  0.00     0.000 C 
ATOM     18  C   UNL d   1      53.606  32.872  54.782  0.00  0.00     0.080 A 
ENDBRANCH   1  12
BRANCH   1  19
ATOM     19  C   UNL d   1      52.336  32.680  53.424  0.00  0.00     0.098 A 
ATOM     20  N   UNL d   1      51.651  32.533  53.855  0.00  0.00    -0.243 NA
ATOM     21  C   UNL d   1      50.955  32.933  53.690  0.00  0.00     0.099 A 
ATOM     22  C   UNL d   1      50.947  33.490  53.083  0.00  0.00     0.021 A 
ATOM     23  C   UNL d   1      51.632  33.640  52.649  0.00  0.00     0.003 A 
ATOM     24  C   UNL d   1      52.346  33.236  52.811  0.00  0.00     0.021 A 
ENDBRANCH   1  19
TORSDOF 3
ENDMDL
