MODEL 1
REMARK VINA RESULT:     114.1      0.000      0.000
REMARK  4 active torsions:
REMARK  status: ('A' for Active; 'I' for Inactive)
REMARK    1  A    between atoms: C_30  and  N_11 
REMARK    2  A    between atoms: C_29  and  N_12 
REMARK    3  A    between atoms: C_16  and  C_13 
REMARK    4  A    between atoms: C_15  and  C_14 
ROOT
ATOM      1  N   UNL d   1      45.996 -18.197  42.137  0.00  0.00    -0.240 N 
ATOM      2  N   UNL d   1      45.722 -17.383  42.217  0.00  0.00    -0.240 N 
ATOM      3  C   UNL d   1      46.158 -18.492  42.912  0.00  0.00     0.144 A 
ATOM      4  C   UNL d   1      45.560 -17.087  41.442  0.00  0.00     0.144 A 
ATOM      5  C   UNL d   1      45.730 -17.713  40.869  0.00  0.00     0.097 A 
ATOM      6  C   UNL d   1      45.987 -17.867  43.474  0.00  0.00     0.097 A 
ATOM      7  C   UNL d   1      46.425 -19.169  43.352  0.00  0.00     0.285 A 
ATOM      8  C   UNL d   1      45.289 -16.398  41.017  0.00  0.00     0.285 A 
ATOM      9  C   UNL d   1      46.151 -18.164  44.253  0.00  0.00     0.270 A 
ATOM     10  C   UNL d   1      45.562 -17.402  40.090  0.00  0.00     0.270 A 
ATOM     11  N   UNL d   1      45.290 -16.592  40.179  0.00  0.00    -0.239 N 
ATOM     12  N   UNL d   1      46.422 -18.972  44.171  0.00  0.00    -0.239 N 
ATOM     13  C   UNL d   1      45.996 -18.388  41.304  0.00  0.00     0.094 A 
ATOM     14  C   UNL d   1      45.722 -17.193  43.042  0.00  0.00     0.094 A 
ATOM     15  O   UNL d   1      45.070 -15.686  41.339  0.00  0.00    -0.265 OA
ATOM     16  O   UNL d   1      45.643 -17.801  39.387  0.00  0.00    -0.266 OA
ATOM     17  O   UNL d   1      46.067 -17.759  44.954  0.00  0.00    -0.266 OA
ATOM     18  O   UNL d   1      46.646 -19.886  43.032  0.00  0.00    -0.265 OA
ENDROOT
BRANCH  13  19
ATOM     19  C   UNL d   1      46.216 -19.103  40.976  0.00  0.00     0.047 A 
ATOM     20  S   UNL d   1      46.183 -19.285  40.185  0.00  0.00    -0.085 SA
ATOM     21  C   UNL d   1      46.451 -20.046  40.104  0.00  0.00     0.035 A 
ATOM     22  C   UNL d   1      46.647 -20.330  40.843  0.00  0.00     0.007 A 
ATOM     23  C   UNL d   1      46.496 -19.735  41.376  0.00  0.00     0.009 A 
ENDBRANCH  13  19
BRANCH  11  24
ATOM     24  C   UNL d   1      45.072 -16.095  39.575  0.00  0.00     0.086 C 
ATOM     25  C   UNL d   1      44.902 -16.405  38.829  0.00  0.00     0.021 C 
ENDBRANCH  11  24
BRANCH  14  26
ATOM     26  C   UNL d   1      45.503 -16.485  43.358  0.00  0.00     0.047 A 
ATOM     27  S   UNL d   1      46.003 -15.859  43.516  0.00  0.00    -0.085 SA
ATOM     28  C   UNL d   1      45.559 -15.267  43.826  0.00  0.00     0.035 A 
ATOM     29  C   UNL d   1      44.793 -15.519  43.861  0.00  0.00     0.007 A 
ATOM     30  C   UNL d   1      44.759 -16.269  43.573  0.00  0.00     0.009 A 
ENDBRANCH  14  26
BRANCH  12  31
ATOM     31  C   UNL d   1      46.639 -19.464  44.787  0.00  0.00     0.086 C 
ATOM     32  C   UNL d   1      46.212 -20.155  44.932  0.00  0.00     0.021 C 
ENDBRANCH  12  31
TORSDOF 4
ENDMDL
MODEL 2
REMARK VINA RESULT:     116.8      5.566      6.454
REMARK  4 active torsions:
REMARK  status: ('A' for Active; 'I' for Inactive)
REMARK    1  A    between atoms: C_30  and  N_11 
REMARK    2  A    between atoms: C_29  and  N_12 
REMARK    3  A    between atoms: C_16  and  C_13 
REMARK    4  A    between atoms: C_15  and  C_14 
ROOT
ATOM      1  N   UNL d   1      44.138 -14.605  37.689  0.00  0.00    -0.240 N 
ATOM      2  N   UNL d   1      43.275 -14.612  37.689  0.00  0.00    -0.240 N 
ATOM      3  C   UNL d   1      44.391 -13.900  38.081  0.00  0.00     0.144 A 
ATOM      4  C   UNL d   1      43.022 -15.316  37.298  0.00  0.00     0.144 A 
ATOM      5  C   UNL d   1      43.723 -15.758  37.048  0.00  0.00     0.097 A 
ATOM      6  C   UNL d   1      43.691 -13.468  38.325  0.00  0.00     0.097 A 
ATOM      7  C   UNL d   1      45.070 -13.452  38.327  0.00  0.00     0.285 A 
ATOM      8  C   UNL d   1      42.328 -15.752  37.058  0.00  0.00     0.285 A 
ATOM      9  C   UNL d   1      43.946 -12.759  38.719  0.00  0.00     0.270 A 
ATOM     10  C   UNL d   1      43.454 -16.467  36.654  0.00  0.00     0.270 A 
ATOM     11  N   UNL d   1      42.595 -16.466  36.659  0.00  0.00    -0.239 N 
ATOM     12  N   UNL d   1      44.802 -12.755  38.717  0.00  0.00    -0.239 N 
ATOM     13  C   UNL d   1      44.401 -15.314  37.292  0.00  0.00     0.094 A 
ATOM     14  C   UNL d   1      43.015 -13.908  38.083  0.00  0.00     0.094 A 
ATOM     15  O   UNL d   1      41.555 -15.538  37.181  0.00  0.00    -0.265 OA
ATOM     16  O   UNL d   1      43.925 -17.044  36.330  0.00  0.00    -0.266 OA
ATOM     17  O   UNL d   1      43.468 -12.185  39.041  0.00  0.00    -0.266 OA
ATOM     18  O   UNL d   1      45.849 -13.664  38.205  0.00  0.00    -0.265 OA
ENDROOT
BRANCH  13  19
ATOM     19  C   UNL d   1      45.177 -15.534  37.166  0.00  0.00     0.047 A 
ATOM     20  S   UNL d   1      45.645 -15.273  36.556  0.00  0.00    -0.085 SA
ATOM     21  C   UNL d   1      46.369 -15.627  36.641  0.00  0.00     0.035 A 
ATOM     22  C   UNL d   1      46.346 -16.104  37.302  0.00  0.00     0.007 A 
ATOM     23  C   UNL d   1      45.600 -16.038  37.619  0.00  0.00     0.009 A 
ENDBRANCH  13  19
BRANCH  11  24
ATOM     24  C   UNL d   1      42.117 -17.040  36.341  0.00  0.00     0.086 C 
ATOM     25  C   UNL d   1      41.323 -17.085  36.563  0.00  0.00     0.021 C 
ENDBRANCH  11  24
BRANCH  14  26
ATOM     26  C   UNL d   1      42.246 -13.699  38.203  0.00  0.00     0.047 A 
ATOM     27  S   UNL d   1      41.840 -13.763  38.908  0.00  0.00    -0.085 SA
ATOM     28  C   UNL d   1      41.094 -13.494  38.783  0.00  0.00     0.035 A 
ATOM     29  C   UNL d   1      41.035 -13.266  38.011  0.00  0.00     0.007 A 
ATOM     30  C   UNL d   1      41.745 -13.392  37.655  0.00  0.00     0.009 A 
ENDBRANCH  14  26
BRANCH  12  31
ATOM     31  C   UNL d   1      45.274 -12.171  39.041  0.00  0.00     0.086 C 
ATOM     32  C   UNL d   1      45.314 -12.082  39.860  0.00  0.00     0.021 C 
ENDBRANCH  12  31
TORSDOF 4
ENDMDL
