MODEL 1
REMARK VINA RESULT:      18.2      0.000      0.000
REMARK  5 active torsions:
REMARK  status: ('A' for Active; 'I' for Inactive)
REMARK    1  A    between atoms: S_9  and  C_2 
REMARK    2  A    between atoms: C_19  and  S_9 
REMARK    3  A    between atoms: C_11  and  C_19 
REMARK       I    between atoms: N_16  and  C_11 
REMARK    4  A    between atoms: C_22  and  N_16 
REMARK    5  A    between atoms: C_21  and  C_22 
ROOT
ATOM      1  C   UNL d   1      46.393 -18.798  43.240  0.00  0.00     0.092 A 
ATOM      2  C   UNL d   1      46.402 -17.970  43.317  0.00  0.00     0.120 A 
ATOM      3  N   UNL d   1      46.483 -17.503  42.650  0.00  0.00    -0.238 NA
ATOM      4  C   UNL d   1      46.465 -19.157  42.497  0.00  0.00     0.013 A 
ATOM      5  C   UNL d   1      46.546 -18.669  41.827  0.00  0.00     0.018 A 
ATOM      6  C   UNL d   1      46.555 -17.848  41.903  0.00  0.00     0.082 A 
ATOM      7  C   UNL d   1      46.311 -19.274  43.919  0.00  0.00     0.103 C 
ATOM      8  N   UNL d   1      46.230 -19.754  44.585  0.00  0.00    -0.191 NA
ATOM      9  C   UNL d   1      46.456 -19.977  42.421  0.00  0.00     0.001 A 
ATOM     10  C   UNL d   1      46.619 -19.018  41.076  0.00  0.00     0.002 A 
ATOM     11  C   UNL d   1      46.636 -17.373  41.236  0.00  0.00     0.021 C 
ATOM     12  C   UNL d   1      46.528 -20.323  41.678  0.00  0.00     0.000 A 
ATOM     13  C   UNL d   1      46.610 -19.847  40.999  0.00  0.00     0.000 A 
ENDROOT
BRANCH   2  14
ATOM     14  S   UNL d   1      46.329 -17.625  44.068  0.00  0.00    -0.062 SA
BRANCH  14  15
ATOM     15  C   UNL d   1      45.733 -17.070  44.207  0.00  0.00     0.099 C 
BRANCH  15  16
ATOM     16  C   UNL d   1      45.921 -16.346  44.551  0.00  0.00     0.286 C 
ATOM     17  N   UNL d   1      45.390 -15.714  44.492  0.00  0.00    -0.206 NA
ATOM     18  O   UNL d   1      46.637 -16.248  44.955  0.00  0.00    -0.265 OA
BRANCH  17  19
ATOM     19  C   UNL d   1      45.568 -14.983  44.835  0.00  0.00     0.102 C 
BRANCH  19  20
ATOM     20  C   UNL d   1      45.316 -14.284  44.474  0.00  0.00     0.021 A 
ATOM     21  C   UNL d   1      45.780 -13.931  43.897  0.00  0.00     0.028 A 
ATOM     22  C   UNL d   1      45.527 -13.233  43.538  0.00  0.00     0.119 A 
ATOM     23  O   UNL d   1      45.869 -12.764  42.954  0.00  0.00    -0.300 OA
ATOM     24  C   UNL d   1      44.818 -12.895  43.755  0.00  0.00     0.119 A 
ATOM     25  C   UNL d   1      45.362 -12.129  42.811  0.00  0.00     0.304 A 
ATOM     26  O   UNL d   1      44.710 -12.211  43.308  0.00  0.00    -0.300 OA
ATOM     27  C   UNL d   1      44.344 -13.256  44.344  0.00  0.00     0.026 A 
ATOM     28  C   UNL d   1      44.605 -13.952  44.697  0.00  0.00     0.004 A 
ENDBRANCH  19  20
ENDBRANCH  17  19
ENDBRANCH  15  16
ENDBRANCH  14  15
ENDBRANCH   2  14
TORSDOF 5
ENDMDL
