MODEL 1
REMARK VINA RESULT:      -3.4      0.000      0.000
REMARK  6 active torsions:
REMARK  status: ('A' for Active; 'I' for Inactive)
REMARK    1  A    between atoms: C_6  and  N_1 
REMARK    2  A    between atoms: C_12  and  C_6 
REMARK    3  A    between atoms: O_18  and  C_7 
REMARK    4  A    between atoms: O_19  and  C_10 
REMARK    5  A    between atoms: C_21  and  O_19 
REMARK    6  A    between atoms: C_23  and  C_21 
ROOT
ATOM      1  C   UNL d   1      33.069  19.462 -23.894  0.00  0.00     0.117 A 
ATOM      2  C   UNL d   1      33.070  19.466 -23.066  0.00  0.00     0.122 A 
ATOM      3  C   UNL d   1      32.899  18.767 -24.294  0.00  0.00     0.028 A 
ATOM      4  C   UNL d   1      32.732  18.083 -23.880  0.00  0.00     0.020 A 
ATOM      5  C   UNL d   1      32.901  18.777 -22.651  0.00  0.00     0.027 A 
ATOM      6  C   UNL d   1      32.731  18.081 -23.062  0.00  0.00     0.004 A 
ENDROOT
BRANCH   4   7
ATOM      7  C   UNL d   1      32.562  17.389 -24.291  0.00  0.00     0.085 C 
BRANCH   7   8
ATOM      8  N   UNL d   1      32.112  16.798 -23.929  0.00  0.00    -0.251 N 
ATOM      9  C   UNL d   1      32.359  16.205 -23.395  0.00  0.00     0.378 A 
ATOM     10  O   UNL d   1      31.697  15.750 -23.193  0.00  0.00    -0.258 OA
ATOM     11  O   UNL d   1      33.128  16.100 -23.122  0.00  0.00    -0.237 OA
ATOM     12  C   UNL d   1      31.043  16.058 -23.600  0.00  0.00     0.121 A 
ATOM     13  C   UNL d   1      31.299  16.705 -24.054  0.00  0.00     0.092 A 
ATOM     14  C   UNL d   1      30.245  15.839 -23.621  0.00  0.00     0.026 A 
ATOM     15  C   UNL d   1      30.769  17.125 -24.520  0.00  0.00     0.020 A 
ATOM     16  C   UNL d   1      29.975  16.898 -24.533  0.00  0.00     0.002 A 
ATOM     17  C   UNL d   1      29.715  16.259 -24.086  0.00  0.00     0.002 A 
ATOM     18  C   UNL d   1      29.443  17.325 -25.005  0.00  0.00     0.000 C 
ENDBRANCH   7   8
ENDBRANCH   4   7
BRANCH   1  19
ATOM     19  O   UNL d   1      33.237  20.148 -24.305  0.00  0.00    -0.326 OA
ATOM     20  C   UNL d   1      33.048  19.977 -25.090  0.00  0.00     0.181 C 
ENDBRANCH   1  19
BRANCH   2  21
ATOM     21  O   UNL d   1      33.240  20.161 -22.660  0.00  0.00    -0.303 OA
BRANCH  21  22
ATOM     22  C   UNL d   1      32.954  20.269 -21.902  0.00  0.00     0.123 C 
BRANCH  22  23
ATOM     23  C   UNL d   1      33.076  20.985 -21.511  0.00  0.00     0.027 C 
ATOM     24  C   UNL d   1      32.757  21.108 -20.764  0.00  0.00     0.002 C 
ENDBRANCH  22  23
ENDBRANCH  21  22
ENDBRANCH   2  21
TORSDOF 6
ENDMDL
MODEL 2
REMARK VINA RESULT:      -2.0      1.557      4.378
REMARK  6 active torsions:
REMARK  status: ('A' for Active; 'I' for Inactive)
REMARK    1  A    between atoms: C_6  and  N_1 
REMARK    2  A    between atoms: C_12  and  C_6 
REMARK    3  A    between atoms: O_18  and  C_7 
REMARK    4  A    between atoms: O_19  and  C_10 
REMARK    5  A    between atoms: C_21  and  O_19 
REMARK    6  A    between atoms: C_23  and  C_21 
ROOT
ATOM      1  C   UNL d   1      29.307  17.157 -24.440  0.00  0.00     0.117 A 
ATOM      2  C   UNL d   1      29.006  16.398 -24.303  0.00  0.00     0.122 A 
ATOM      3  C   UNL d   1      30.110  17.254 -24.577  0.00  0.00     0.028 A 
ATOM      4  C   UNL d   1      30.609  16.607 -24.579  0.00  0.00     0.020 A 
ATOM      5  C   UNL d   1      29.510  15.749 -24.305  0.00  0.00     0.027 A 
ATOM      6  C   UNL d   1      30.317  15.855 -24.444  0.00  0.00     0.004 A 
ENDROOT
BRANCH   4   7
ATOM      7  C   UNL d   1      31.415  16.713 -24.717  0.00  0.00     0.085 C 
BRANCH   7   8
ATOM      8  N   UNL d   1      31.915  16.913 -24.092  0.00  0.00    -0.251 N 
ATOM      9  C   UNL d   1      32.113  16.465 -23.416  0.00  0.00     0.378 A 
ATOM     10  O   UNL d   1      32.637  16.912 -22.955  0.00  0.00    -0.258 OA
ATOM     11  O   UNL d   1      31.832  15.711 -23.244  0.00  0.00    -0.237 OA
ATOM     12  C   UNL d   1      32.764  17.634 -23.344  0.00  0.00     0.121 A 
ATOM     13  C   UNL d   1      32.319  17.635 -24.045  0.00  0.00     0.092 A 
ATOM     14  C   UNL d   1      33.225  18.295 -23.156  0.00  0.00     0.026 A 
ATOM     15  C   UNL d   1      32.334  18.283 -24.550  0.00  0.00     0.020 A 
ATOM     16  C   UNL d   1      32.797  18.937 -24.353  0.00  0.00     0.002 A 
ATOM     17  C   UNL d   1      33.241  18.943 -23.660  0.00  0.00     0.002 A 
ATOM     18  C   UNL d   1      32.810  19.589 -24.865  0.00  0.00     0.000 C 
ENDBRANCH   7   8
ENDBRANCH   4   7
BRANCH   1  19
ATOM     19  O   UNL d   1      28.806  17.802 -24.438  0.00  0.00    -0.326 OA
ATOM     20  C   UNL d   1      29.044  18.259 -25.083  0.00  0.00     0.181 C 
ENDBRANCH   1  19
BRANCH   2  21
ATOM     21  O   UNL d   1      28.202  16.297 -24.165  0.00  0.00    -0.303 OA
BRANCH  21  22
ATOM     22  C   UNL d   1      27.947  15.701 -23.667  0.00  0.00     0.123 C 
BRANCH  22  23
ATOM     23  C   UNL d   1      27.160  15.453 -23.686  0.00  0.00     0.027 C 
ATOM     24  C   UNL d   1      26.630  15.714 -23.114  0.00  0.00     0.002 C 
ENDBRANCH  22  23
ENDBRANCH  21  22
ENDBRANCH   2  21
TORSDOF 6
ENDMDL
MODEL 3
REMARK VINA RESULT:      -0.9      1.154      4.552
REMARK  6 active torsions:
REMARK  status: ('A' for Active; 'I' for Inactive)
REMARK    1  A    between atoms: C_6  and  N_1 
REMARK    2  A    between atoms: C_12  and  C_6 
REMARK    3  A    between atoms: O_18  and  C_7 
REMARK    4  A    between atoms: O_19  and  C_10 
REMARK    5  A    between atoms: C_21  and  O_19 
REMARK    6  A    between atoms: C_23  and  C_21 
ROOT
ATOM      1  C   UNL d   1      31.765  17.337 -23.974  0.00  0.00     0.117 A 
ATOM      2  C   UNL d   1      31.361  17.691 -24.605  0.00  0.00     0.122 A 
ATOM      3  C   UNL d   1      32.390  17.735 -23.622  0.00  0.00     0.028 A 
ATOM      4  C   UNL d   1      32.612  18.474 -23.891  0.00  0.00     0.020 A 
ATOM      5  C   UNL d   1      31.586  18.434 -24.874  0.00  0.00     0.027 A 
ATOM      6  C   UNL d   1      32.216  18.827 -24.513  0.00  0.00     0.004 A 
ENDROOT
BRANCH   4   7
ATOM      7  C   UNL d   1      33.241  18.867 -23.530  0.00  0.00     0.085 C 
BRANCH   7   8
ATOM      8  N   UNL d   1      33.240  19.692 -23.490  0.00  0.00    -0.251 N 
ATOM      9  C   UNL d   1      33.240  20.246 -24.114  0.00  0.00     0.378 A 
ATOM     10  O   UNL d   1      33.239  21.005 -23.783  0.00  0.00    -0.258 OA
ATOM     11  O   UNL d   1      33.240  20.062 -24.916  0.00  0.00    -0.237 OA
ATOM     12  C   UNL d   1      33.238  20.923 -22.958  0.00  0.00     0.121 A 
ATOM     13  C   UNL d   1      33.239  20.112 -22.776  0.00  0.00     0.092 A 
ATOM     14  C   UNL d   1      33.238  21.475 -22.341  0.00  0.00     0.026 A 
ATOM     15  C   UNL d   1      33.239  19.858 -21.996  0.00  0.00     0.020 A 
ATOM     16  C   UNL d   1      33.238  20.417 -21.388  0.00  0.00     0.002 A 
ATOM     17  C   UNL d   1      33.237  21.222 -21.560  0.00  0.00     0.002 A 
ATOM     18  C   UNL d   1      33.238  20.156 -20.601  0.00  0.00     0.000 C 
ENDBRANCH   7   8
ENDBRANCH   4   7
BRANCH   1  19
ATOM     19  O   UNL d   1      31.540  16.598 -23.709  0.00  0.00    -0.326 OA
ATOM     20  C   UNL d   1      32.249  16.197 -23.570  0.00  0.00     0.181 C 
ENDBRANCH   1  19
BRANCH   2  21
ATOM     21  O   UNL d   1      30.735  17.295 -24.962  0.00  0.00    -0.303 OA
BRANCH  21  22
ATOM     22  C   UNL d   1      30.002  17.654 -25.007  0.00  0.00     0.123 C 
BRANCH  22  23
ATOM     23  C   UNL d   1      29.318  17.194 -25.059  0.00  0.00     0.027 C 
ATOM     24  C   UNL d   1      28.661  17.376 -24.599  0.00  0.00     0.002 C 
ENDBRANCH  22  23
ENDBRANCH  21  22
ENDBRANCH   2  21
TORSDOF 6
ENDMDL
