MODEL 1
REMARK VINA RESULT:      44.1      0.000      0.000
REMARK  5 active torsions:
REMARK  status: ('A' for Active; 'I' for Inactive)
REMARK    1  A    between atoms: C_2  and  C_1 
REMARK       I    between atoms: N_3  and  C_1 
REMARK    2  A    between atoms: C_8  and  N_3 
REMARK    3  A    between atoms: C_5  and  C_4 
REMARK    4  A    between atoms: O_15  and  C_12 
REMARK    5  A    between atoms: O_16  and  C_13 
ROOT
ATOM      1  C   UNL d   1     -54.847-101.801 -40.293  0.00  0.00     0.279 C 
ATOM      2  N   UNL d   1     -54.713-101.150 -40.822  0.00  0.00    -0.208 NA
ATOM      3  O   UNL d   1     -54.972-102.545 -40.585  0.00  0.00    -0.265 OA
ENDROOT
BRANCH   1   4
ATOM      4  C   UNL d   1     -54.846-101.648 -39.482  0.00  0.00     0.062 A 
ATOM      5  C   UNL d   1     -54.913-102.295 -38.962  0.00  0.00     0.029 A 
ATOM      6  C   UNL d   1     -54.914-102.161 -38.148  0.00  0.00     0.096 A 
ATOM      7  C   UNL d   1     -54.846-101.365 -37.855  0.00  0.00     0.048 A 
ATOM      8  C   UNL d   1     -54.781-100.740 -38.389  0.00  0.00     0.096 A 
ATOM      9  C   UNL d   1     -54.780-100.874 -39.198  0.00  0.00     0.029 A 
BRANCH   6  10
ATOM     10  O   UNL d   1     -54.982-102.829 -37.647  0.00  0.00    -0.328 OA
ATOM     11  C   UNL d   1     -55.305-102.751 -36.879  0.00  0.00     0.181 C 
ENDBRANCH   6  10
BRANCH   8  12
ATOM     12  O   UNL d   1     -54.713 -99.947 -38.094  0.00  0.00    -0.328 OA
ATOM     13  C   UNL d   1     -54.728 -99.809 -37.280  0.00  0.00     0.181 C 
ENDBRANCH   8  12
ENDBRANCH   1   4
BRANCH   2  14
ATOM     14  C   UNL d   1     -54.717-101.316 -41.631  0.00  0.00     0.085 A 
ATOM     15  C   UNL d   1     -54.722-100.687 -42.165  0.00  0.00     0.022 A 
ATOM     16  C   UNL d   1     -54.725-100.797 -42.942  0.00  0.00     0.041 A 
ATOM     17  C   UNL d   1     -54.724-101.597 -43.249  0.00  0.00     0.003 A 
ATOM     18  C   UNL d   1     -54.720-102.233 -42.725  0.00  0.00     0.002 A 
ATOM     19  C   UNL d   1     -54.716-102.081 -41.914  0.00  0.00     0.019 A 
BRANCH  16  20
ATOM     20  C   UNL d   1     -54.730-100.140 -43.468  0.00  0.00     0.196 C 
ATOM     21  O   UNL d   1     -54.713 -99.365 -43.171  0.00  0.00    -0.287 OA
ATOM     22  C   UNL d   1     -54.752-100.283 -44.280  0.00  0.00     0.045 C 
ENDBRANCH  16  20
ENDBRANCH   2  14
TORSDOF 5
ENDMDL
