MODEL 1
REMARK VINA RESULT:      -3.6      0.000      0.000
REMARK  3 active torsions:
REMARK  status: ('A' for Active; 'I' for Inactive)
REMARK    1  A    between atoms: N_4  and  C_2 
REMARK    2  A    between atoms: C_10  and  C_3 
REMARK       I    between atoms: C_7  and  N_4 
REMARK    3  A    between atoms: C_8  and  C_7 
ROOT
ATOM      1  N   UNL d   1      32.883  20.299 -22.620  0.00  0.00    -0.051 NA
ATOM      2  C   UNL d   1      33.035  20.586 -21.866  0.00  0.00     0.760 A 
ATOM      3  C   UNL d   1      32.993  19.476 -22.599  0.00  0.00     0.147 A 
ATOM      4  N   UNL d   1      33.239  19.945 -21.373  0.00  0.00    -0.019 NA
ATOM      5  S   UNL d   1      33.210  19.269 -21.834  0.00  0.00     0.052 SA
ENDROOT
BRANCH   2   6
ATOM      6  N   UNL d   1      33.016  21.356 -21.551  0.00  0.00    -0.018 NA
ATOM      7  C   UNL d   1      32.361  21.619 -21.124  0.00  0.00     0.301 C 
ATOM      8  O   UNL d   1      31.715  21.110 -21.006  0.00  0.00    -0.264 OA
BRANCH   7   9
ATOM      9  C   UNL d   1      32.346  22.382 -20.814  0.00  0.00     0.088 A 
ATOM     10  S   UNL d   1      32.641  22.610 -20.068  0.00  0.00    -0.082 SA
ATOM     11  C   UNL d   1      32.512  23.428 -19.982  0.00  0.00     0.036 A 
ATOM     12  C   UNL d   1      32.143  23.700 -20.668  0.00  0.00     0.008 A 
ATOM     13  C   UNL d   1      32.042  23.056 -21.177  0.00  0.00     0.012 A 
ENDBRANCH   7   9
ENDBRANCH   2   6
BRANCH   3  14
ATOM     14  C   UNL d   1      32.897  18.970 -23.241  0.00  0.00     0.026 A 
ATOM     15  C   UNL d   1      32.574  18.211 -23.119  0.00  0.00     0.002 A 
ATOM     16  C   UNL d   1      32.476  17.698 -23.764  0.00  0.00     0.000 A 
ATOM     17  C   UNL d   1      32.697  17.940 -24.520  0.00  0.00     0.000 A 
ATOM     18  C   UNL d   1      33.017  18.688 -24.648  0.00  0.00     0.000 A 
ATOM     19  C   UNL d   1      33.118  19.204 -24.010  0.00  0.00     0.002 A 
ENDBRANCH   3  14
TORSDOF 3
ENDMDL
MODEL 2
REMARK VINA RESULT:      -3.3      0.955      1.401
REMARK  3 active torsions:
REMARK  status: ('A' for Active; 'I' for Inactive)
REMARK    1  A    between atoms: N_4  and  C_2 
REMARK    2  A    between atoms: C_10  and  C_3 
REMARK       I    between atoms: C_7  and  N_4 
REMARK    3  A    between atoms: C_8  and  C_7 
ROOT
ATOM      1  N   UNL d   1      32.902  19.210 -22.434  0.00  0.00    -0.051 NA
ATOM      2  C   UNL d   1      33.124  19.995 -22.527  0.00  0.00     0.760 A 
ATOM      3  C   UNL d   1      32.877  18.869 -23.192  0.00  0.00     0.147 A 
ATOM      4  N   UNL d   1      33.239  20.147 -23.339  0.00  0.00    -0.019 NA
ATOM      5  S   UNL d   1      33.084  19.448 -23.737  0.00  0.00     0.052 SA
ENDROOT
BRANCH   2   6
ATOM      6  N   UNL d   1      33.241  20.607 -21.975  0.00  0.00    -0.018 NA
ATOM      7  C   UNL d   1      32.627  20.850 -21.481  0.00  0.00     0.301 C 
ATOM      8  O   UNL d   1      31.885  20.481 -21.534  0.00  0.00    -0.264 OA
BRANCH   7   9
ATOM      9  C   UNL d   1      32.747  21.456 -20.936  0.00  0.00     0.088 A 
ATOM     10  S   UNL d   1      32.392  22.210 -20.960  0.00  0.00    -0.082 SA
ATOM     11  C   UNL d   1      32.668  22.643 -20.305  0.00  0.00     0.036 A 
ATOM     12  C   UNL d   1      33.188  22.162 -19.884  0.00  0.00     0.008 A 
ATOM     13  C   UNL d   1      33.236  21.433 -20.272  0.00  0.00     0.012 A 
ENDBRANCH   7   9
ENDBRANCH   2   6
BRANCH   3  14
ATOM     14  C   UNL d   1      32.678  18.086 -23.351  0.00  0.00     0.026 A 
ATOM     15  C   UNL d   1      33.044  17.475 -22.917  0.00  0.00     0.002 A 
ATOM     16  C   UNL d   1      32.845  16.684 -23.076  0.00  0.00     0.000 A 
ATOM     17  C   UNL d   1      32.291  16.508 -23.658  0.00  0.00     0.000 A 
ATOM     18  C   UNL d   1      31.926  17.107 -24.091  0.00  0.00     0.000 A 
ATOM     19  C   UNL d   1      32.118  17.896 -23.939  0.00  0.00     0.002 A 
ENDBRANCH   3  14
TORSDOF 3
ENDMDL
MODEL 3
REMARK VINA RESULT:      -3.1      1.830      5.341
REMARK  3 active torsions:
REMARK  status: ('A' for Active; 'I' for Inactive)
REMARK    1  A    between atoms: N_4  and  C_2 
REMARK    2  A    between atoms: C_10  and  C_3 
REMARK       I    between atoms: C_7  and  N_4 
REMARK    3  A    between atoms: C_8  and  C_7 
ROOT
ATOM      1  N   UNL d   1      32.956  22.072 -19.296  0.00  0.00    -0.051 NA
ATOM      2  C   UNL d   1      33.141  22.139 -20.094  0.00  0.00     0.760 A 
ATOM      3  C   UNL d   1      32.933  22.841 -18.982  0.00  0.00     0.147 A 
ATOM      4  N   UNL d   1      33.233  22.947 -20.280  0.00  0.00    -0.019 NA
ATOM      5  S   UNL d   1      33.103  23.368 -19.589  0.00  0.00     0.052 SA
ENDROOT
BRANCH   2   6
ATOM      6  N   UNL d   1      33.240  21.567 -20.690  0.00  0.00    -0.018 NA
ATOM      7  C   UNL d   1      32.591  21.283 -21.111  0.00  0.00     0.301 C 
ATOM      8  O   UNL d   1      31.830  21.570 -20.939  0.00  0.00    -0.264 OA
BRANCH   7   9
ATOM      9  C   UNL d   1      32.694  20.716 -21.701  0.00  0.00     0.088 A 
ATOM     10  S   UNL d   1      32.642  20.853 -22.522  0.00  0.00    -0.082 SA
ATOM     11  C   UNL d   1      32.784  20.131 -22.910  0.00  0.00     0.036 A 
ATOM     12  C   UNL d   1      32.921  19.557 -22.335  0.00  0.00     0.008 A 
ATOM     13  C   UNL d   1      32.865  19.918 -21.593  0.00  0.00     0.012 A 
ENDBRANCH   7   9
ENDBRANCH   2   6
BRANCH   3  14
ATOM     14  C   UNL d   1      32.767  23.026 -18.197  0.00  0.00     0.026 A 
ATOM     15  C   UNL d   1      32.114  23.514 -18.021  0.00  0.00     0.002 A 
ATOM     16  C   UNL d   1      31.944  23.702 -17.230  0.00  0.00     0.000 A 
ATOM     17  C   UNL d   1      32.419  23.407 -16.626  0.00  0.00     0.000 A 
ATOM     18  C   UNL d   1      33.066  22.924 -16.793  0.00  0.00     0.000 A 
ATOM     19  C   UNL d   1      33.241  22.732 -17.577  0.00  0.00     0.002 A 
ENDBRANCH   3  14
TORSDOF 3
ENDMDL
MODEL 4
REMARK VINA RESULT:      -2.1      1.745      4.742
REMARK  3 active torsions:
REMARK  status: ('A' for Active; 'I' for Inactive)
REMARK    1  A    between atoms: N_4  and  C_2 
REMARK    2  A    between atoms: C_10  and  C_3 
REMARK       I    between atoms: C_7  and  N_4 
REMARK    3  A    between atoms: C_8  and  C_7 
ROOT
ATOM      1  N   UNL d   1      33.241  19.807 -23.013  0.00  0.00    -0.051 NA
ATOM      2  C   UNL d   1      33.223  19.061 -22.669  0.00  0.00     0.760 A 
ATOM      3  C   UNL d   1      33.213  20.364 -22.397  0.00  0.00     0.147 A 
ATOM      4  N   UNL d   1      33.184  19.149 -21.841  0.00  0.00    -0.019 NA
ATOM      5  S   UNL d   1      33.178  19.954 -21.686  0.00  0.00     0.052 SA
ENDROOT
BRANCH   2   6
ATOM      6  N   UNL d   1      33.238  18.297 -23.001  0.00  0.00    -0.018 NA
ATOM      7  C   UNL d   1      32.647  18.055 -23.523  0.00  0.00     0.301 C 
ATOM      8  O   UNL d   1      32.033  18.578 -23.721  0.00  0.00    -0.264 OA
BRANCH   7   9
ATOM      9  C   UNL d   1      32.666  17.298 -23.848  0.00  0.00     0.088 A 
ATOM     10  S   UNL d   1      32.155  17.011 -24.441  0.00  0.00    -0.082 SA
ATOM     11  C   UNL d   1      32.369  16.223 -24.602  0.00  0.00     0.036 A 
ATOM     12  C   UNL d   1      33.004  16.028 -24.114  0.00  0.00     0.008 A 
ATOM     13  C   UNL d   1      33.185  16.689 -23.651  0.00  0.00     0.012 A 
ENDBRANCH   7   9
ENDBRANCH   2   6
BRANCH   3  14
ATOM     14  C   UNL d   1      33.219  21.181 -22.499  0.00  0.00     0.026 A 
ATOM     15  C   UNL d   1      33.210  21.497 -23.270  0.00  0.00     0.002 A 
ATOM     16  C   UNL d   1      33.217  22.321 -23.376  0.00  0.00     0.000 A 
ATOM     17  C   UNL d   1      33.231  22.820 -22.721  0.00  0.00     0.000 A 
ATOM     18  C   UNL d   1      33.240  22.513 -21.956  0.00  0.00     0.000 A 
ATOM     19  C   UNL d   1      33.234  21.695 -21.843  0.00  0.00     0.002 A 
ENDBRANCH   3  14
TORSDOF 3
ENDMDL
