MODEL 1
REMARK VINA RESULT:      -9.5      0.000      0.000
REMARK  7 active torsions:
REMARK  status: ('A' for Active; 'I' for Inactive)
REMARK    1  A    between atoms: C_4  and  C_1 
REMARK    2  A    between atoms: N_5  and  C_3 
REMARK    3  A    between atoms: C_9  and  C_4 
REMARK       I    between atoms: C_7  and  N_5 
REMARK    4  A    between atoms: C_10  and  C_7 
REMARK       I    between atoms: N_19  and  C_9 
REMARK    5  A    between atoms: C_21  and  N_19 
REMARK    6  A    between atoms: C_24  and  C_21 
REMARK    7  A    between atoms: C_23  and  C_24 
ROOT
ATOM      1  C   UNL d   1      52.675  34.577  53.551  0.00  0.00     0.144 C 
ATOM      2  C   UNL d   1      52.457  35.155  54.094  0.00  0.00     0.107 C 
ATOM      3  N   UNL d   1      52.242  35.726  54.639  0.00  0.00    -0.191 NA
ENDROOT
BRANCH   1   4
ATOM      4  C   UNL d   1      53.000  33.856  53.809  0.00  0.00     0.097 A 
ATOM      5  N   UNL d   1      52.762  33.080  53.653  0.00  0.00    -0.226 NA
ATOM      6  C   UNL d   1      53.278  32.569  54.047  0.00  0.00     0.166 A 
ATOM      7  C   UNL d   1      53.835  33.026  54.446  0.00  0.00     0.037 A 
ATOM      8  C   UNL d   1      53.670  33.825  54.304  0.00  0.00     0.021 A 
ATOM      9  C   UNL d   1      54.476  32.823  54.924  0.00  0.00     0.003 A 
ATOM     10  C   UNL d   1      54.139  34.410  54.635  0.00  0.00     0.002 A 
ATOM     11  C   UNL d   1      54.779  34.208  55.113  0.00  0.00     0.000 A 
ATOM     12  C   UNL d   1      54.944  33.409  55.255  0.00  0.00     0.000 A 
BRANCH   6  13
ATOM     13  N   UNL d   1      53.275  31.754  54.065  0.00  0.00    -0.189 NA
ATOM     14  C   UNL d   1      53.103  31.218  53.451  0.00  0.00     0.286 C 
ATOM     15  O   UNL d   1      52.906  31.520  52.711  0.00  0.00    -0.265 OA
BRANCH  14  16
ATOM     16  C   UNL d   1      53.127  30.403  53.567  0.00  0.00     0.087 A 
ATOM     17  S   UNL d   1      52.593  29.913  53.171  0.00  0.00    -0.082 SA
ATOM     18  C   UNL d   1      52.753  29.134  53.398  0.00  0.00     0.036 A 
ATOM     19  C   UNL d   1      53.383  29.146  53.933  0.00  0.00     0.008 A 
ATOM     20  C   UNL d   1      53.613  29.929  54.036  0.00  0.00     0.012 A 
ENDBRANCH  14  16
ENDBRANCH   6  13
ENDBRANCH   1   4
BRANCH   1  21
ATOM     21  C   UNL d   1      52.571  34.712  52.741  0.00  0.00     0.290 C 
ATOM     22  O   UNL d   1      53.221  34.878  52.264  0.00  0.00    -0.264 OA
ATOM     23  N   UNL d   1      51.822  34.680  52.411  0.00  0.00    -0.206 NA
BRANCH  23  24
ATOM     24  C   UNL d   1      51.173  34.513  52.888  0.00  0.00     0.102 C 
BRANCH  24  25
ATOM     25  C   UNL d   1      50.455  34.123  52.778  0.00  0.00     0.021 C 
BRANCH  25  26
ATOM     26  C   UNL d   1      49.779  34.547  52.576  0.00  0.00     0.002 A 
ATOM     27  C   UNL d   1      49.400  35.016  53.141  0.00  0.00     0.000 A 
ATOM     28  C   UNL d   1      48.722  35.439  52.933  0.00  0.00     0.000 A 
ATOM     29  C   UNL d   1      48.417  35.400  52.165  0.00  0.00     0.000 A 
ATOM     30  C   UNL d   1      48.808  34.922  51.600  0.00  0.00     0.000 A 
ATOM     31  C   UNL d   1      49.479  34.501  51.803  0.00  0.00     0.000 A 
ENDBRANCH  25  26
ENDBRANCH  24  25
ENDBRANCH  23  24
ENDBRANCH   1  21
TORSDOF 7
ENDMDL
MODEL 2
REMARK VINA RESULT:      -9.0      1.367      4.553
REMARK  7 active torsions:
REMARK  status: ('A' for Active; 'I' for Inactive)
REMARK    1  A    between atoms: C_4  and  C_1 
REMARK    2  A    between atoms: N_5  and  C_3 
REMARK    3  A    between atoms: C_9  and  C_4 
REMARK       I    between atoms: C_7  and  N_5 
REMARK    4  A    between atoms: C_10  and  C_7 
REMARK       I    between atoms: N_19  and  C_9 
REMARK    5  A    between atoms: C_21  and  N_19 
REMARK    6  A    between atoms: C_24  and  C_21 
REMARK    7  A    between atoms: C_23  and  C_24 
ROOT
ATOM      1  C   UNL d   1      53.913  33.004  54.118  0.00  0.00     0.144 C 
ATOM      2  C   UNL d   1      53.971  32.690  54.877  0.00  0.00     0.107 C 
ATOM      3  N   UNL d   1      54.022  32.381  55.633  0.00  0.00    -0.191 NA
ENDROOT
BRANCH   1   4
ATOM      4  C   UNL d   1      53.323  33.560  53.935  0.00  0.00     0.097 A 
ATOM      5  N   UNL d   1      52.663  33.491  53.444  0.00  0.00    -0.226 NA
ATOM      6  C   UNL d   1      52.257  34.210  53.456  0.00  0.00     0.166 A 
ATOM      7  C   UNL d   1      52.664  34.725  53.953  0.00  0.00     0.037 A 
ATOM      8  C   UNL d   1      53.326  34.330  54.254  0.00  0.00     0.021 A 
ATOM      9  C   UNL d   1      52.522  35.506  54.176  0.00  0.00     0.003 A 
ATOM     10  C   UNL d   1      53.838  34.712  54.769  0.00  0.00     0.002 A 
ATOM     11  C   UNL d   1      53.696  35.492  54.992  0.00  0.00     0.000 A 
ATOM     12  C   UNL d   1      53.034  35.887  54.691  0.00  0.00     0.000 A 
BRANCH   6  13
ATOM     13  N   UNL d   1      51.573  34.418  53.063  0.00  0.00    -0.189 NA
ATOM     14  C   UNL d   1      50.877  33.973  52.954  0.00  0.00     0.286 C 
ATOM     15  O   UNL d   1      50.843  33.215  53.273  0.00  0.00    -0.265 OA
BRANCH  14  16
ATOM     16  C   UNL d   1      50.232  34.272  52.538  0.00  0.00     0.087 A 
ATOM     17  S   UNL d   1      50.138  34.095  51.737  0.00  0.00    -0.082 SA
ATOM     18  C   UNL d   1      49.448  34.470  51.478  0.00  0.00     0.036 A 
ATOM     19  C   UNL d   1      49.119  34.875  52.118  0.00  0.00     0.008 A 
ATOM     20  C   UNL d   1      49.603  34.753  52.772  0.00  0.00     0.012 A 
ENDBRANCH  14  16
ENDBRANCH   6  13
ENDBRANCH   1   4
BRANCH   1  21
ATOM     21  C   UNL d   1      54.447  32.766  53.532  0.00  0.00     0.290 C 
ATOM     22  O   UNL d   1      55.065  33.261  53.311  0.00  0.00    -0.264 OA
ATOM     23  N   UNL d   1      54.362  32.035  53.171  0.00  0.00    -0.206 NA
BRANCH  23  24
ATOM     24  C   UNL d   1      53.744  31.539  53.392  0.00  0.00     0.102 C 
BRANCH  24  25
ATOM     25  C   UNL d   1      53.346  30.911  53.037  0.00  0.00     0.021 C 
BRANCH  25  26
ATOM     26  C   UNL d   1      53.211  30.215  53.455  0.00  0.00     0.002 A 
ATOM     27  C   UNL d   1      53.849  29.768  53.732  0.00  0.00     0.000 A 
ATOM     28  C   UNL d   1      53.708  29.071  54.151  0.00  0.00     0.000 A 
ATOM     29  C   UNL d   1      52.935  28.814  54.298  0.00  0.00     0.000 A 
ATOM     30  C   UNL d   1      52.297  29.273  54.014  0.00  0.00     0.000 A 
ATOM     31  C   UNL d   1      52.433  29.965  53.598  0.00  0.00     0.000 A 
ENDBRANCH  25  26
ENDBRANCH  24  25
ENDBRANCH  23  24
ENDBRANCH   1  21
TORSDOF 7
ENDMDL
