MODEL 1
REMARK VINA RESULT:      18.7      0.000      0.000
REMARK  2 active torsions:
REMARK  status: ('A' for Active; 'I' for Inactive)
REMARK    1  A    between atoms: S_8  and  C_4 
REMARK    2  A    between atoms: C_12  and  S_8 
ROOT
ATOM      1  C   UNL d   1      58.758  49.708  50.557  0.00  0.00     0.141 A 
ATOM      2  O   UNL d   1      58.143  49.708  51.106  0.00  0.00    -0.303 OA
ATOM      3  C   UNL d   1      58.427  49.708  49.798  0.00  0.00     0.110 A 
ATOM      4  C   UNL d   1      59.573  49.708  50.650  0.00  0.00     0.137 A 
ATOM      5  C   UNL d   1      57.609  49.708  49.881  0.00  0.00     0.043 A 
ATOM      6  C   UNL d   1      57.428  49.708  50.686  0.00  0.00     0.102 A 
ATOM      7  N   UNL d   1      60.067  49.708  49.983  0.00  0.00    -0.215 NA
ATOM      8  N   UNL d   1      58.921  49.708  49.140  0.00  0.00    -0.222 NA
ATOM      9  C   UNL d   1      59.737  49.708  49.234  0.00  0.00     0.200 A 
ATOM     10  C   UNL d   1      57.001  49.708  49.318  0.00  0.00     0.004 A 
ATOM     11  C   UNL d   1      56.639  49.708  50.937  0.00  0.00     0.025 A 
ATOM     12  C   UNL d   1      56.212  49.708  49.568  0.00  0.00     0.000 A 
ATOM     13  C   UNL d   1      56.035  49.708  50.372  0.00  0.00     0.002 A 
ENDROOT
BRANCH   4  14
ATOM     14  S   UNL d   1      59.913  49.708  51.408  0.00  0.00    -0.066 SA
BRANCH  14  15
ATOM     15  C   UNL d   1      60.710  49.508  51.497  0.00  0.00     0.031 C 
ATOM     16  C   UNL d   1      61.117  49.147  50.879  0.00  0.00     0.007 C 
ATOM     17  C   UNL d   1      61.094  49.670  52.204  0.00  0.00     0.007 C 
ENDBRANCH  14  15
ENDBRANCH   4  14
TORSDOF 2
ENDMDL
MODEL 2
REMARK VINA RESULT:      20.3      1.383      3.665
REMARK  2 active torsions:
REMARK  status: ('A' for Active; 'I' for Inactive)
REMARK    1  A    between atoms: S_8  and  C_4 
REMARK    2  A    between atoms: C_12  and  S_8 
ROOT
ATOM      1  C   UNL d   1      58.364  49.691  50.533  0.00  0.00     0.141 A 
ATOM      2  O   UNL d   1      58.983  49.694  49.988  0.00  0.00    -0.303 OA
ATOM      3  C   UNL d   1      58.689  49.689  51.294  0.00  0.00     0.110 A 
ATOM      4  C   UNL d   1      57.550  49.691  50.433  0.00  0.00     0.137 A 
ATOM      5  C   UNL d   1      59.508  49.690  51.218  0.00  0.00     0.043 A 
ATOM      6  C   UNL d   1      59.696  49.693  50.414  0.00  0.00     0.102 A 
ATOM      7  N   UNL d   1      57.050  49.688  51.096  0.00  0.00    -0.215 NA
ATOM      8  N   UNL d   1      58.190  49.686  51.948  0.00  0.00    -0.222 NA
ATOM      9  C   UNL d   1      57.375  49.685  51.848  0.00  0.00     0.200 A 
ATOM     10  C   UNL d   1      60.112  49.688  51.785  0.00  0.00     0.004 A 
ATOM     11  C   UNL d   1      60.486  49.695  50.169  0.00  0.00     0.025 A 
ATOM     12  C   UNL d   1      60.903  49.690  51.541  0.00  0.00     0.000 A 
ATOM     13  C   UNL d   1      61.086  49.693  50.738  0.00  0.00     0.002 A 
ENDROOT
BRANCH   4  14
ATOM     14  S   UNL d   1      57.216  49.693  49.673  0.00  0.00    -0.066 SA
BRANCH  14  15
ATOM     15  C   UNL d   1      56.429  49.461  49.572  0.00  0.00     0.031 C 
ATOM     16  C   UNL d   1      56.039  49.053  50.172  0.00  0.00     0.007 C 
ATOM     17  C   UNL d   1      56.038  49.639  48.873  0.00  0.00     0.007 C 
ENDBRANCH  14  15
ENDBRANCH   4  14
TORSDOF 2
ENDMDL
