MODEL 1
REMARK VINA RESULT:     108.4      0.000      0.000
REMARK  8 active torsions:
REMARK  status: ('A' for Active; 'I' for Inactive)
REMARK    1  A    between atoms: N_3  and  C_1 
REMARK       I    between atoms: C_8  and  N_3 
REMARK    2  A    between atoms: O_12  and  C_4 
REMARK    3  A    between atoms: S_20  and  C_5 
REMARK    4  A    between atoms: C_13  and  C_8 
REMARK    5  A    between atoms: C_9  and  O_12 
REMARK    6  A    between atoms: C_14  and  C_9 
REMARK    7  A    between atoms: C_16  and  C_28 
REMARK    8  A    between atoms: C_28  and  S_20 
ROOT
ATOM      1  C   UNL d   1      60.259  49.042  50.122  0.00  0.00     0.167 A 
ATOM      2  C   UNL d   1      60.395  48.601  49.442  0.00  0.00     0.222 A 
ATOM      3  C   UNL d   1      61.112  48.186  49.383  0.00  0.00     0.069 A 
ATOM      4  C   UNL d   1      60.815  49.074  50.728  0.00  0.00     0.151 A 
ATOM      5  C   UNL d   1      61.669  48.218  49.990  0.00  0.00     0.110 A 
ATOM      6  O   UNL d   1      61.515  48.665  50.662  0.00  0.00    -0.302 OA
ATOM      7  O   UNL d   1      59.844  48.569  48.841  0.00  0.00    -0.284 OA
ENDROOT
BRANCH   5   8
ATOM      8  C   UNL d   1      62.375  47.804  49.923  0.00  0.00     0.062 C 
BRANCH   8   9
ATOM      9  S   UNL d   1      62.369  46.980  49.948  0.00  0.00    -0.057 SA
BRANCH   9  10
ATOM     10  C   UNL d   1      61.910  46.171  49.782  0.00  0.00     0.166 A 
ATOM     11  S   UNL d   1      61.701  45.437  50.092  0.00  0.00    -0.006 SA
ATOM     12  C   UNL d   1      61.254  45.034  49.526  0.00  0.00     0.269 A 
ATOM     13  N   UNL d   1      61.189  45.525  48.862  0.00  0.00    -0.107 NA
ATOM     14  N   UNL d   1      61.594  46.226  49.020  0.00  0.00    -0.132 NA
BRANCH  12  15
ATOM     15  N   UNL d   1      60.850  44.333  49.368  0.00  0.00    -0.337 NA
ATOM     16  C   UNL d   1      60.446  43.632  49.210  0.00  0.00     0.330 C 
ATOM     17  O   UNL d   1      61.145  43.212  49.335  0.00  0.00    -0.251 OA
BRANCH  16  18
ATOM     18  C   UNL d   1      59.668  43.435  49.011  0.00  0.00     0.070 A 
ATOM     19  C   UNL d   1      59.102  42.861  48.839  0.00  0.00     0.006 A 
ATOM     20  C   UNL d   1      58.890  43.673  48.839  0.00  0.00     0.006 A 
ENDBRANCH  16  18
ENDBRANCH  12  15
ENDBRANCH   9  10
ENDBRANCH   8   9
ENDBRANCH   5   8
BRANCH   1  21
ATOM     21  O   UNL d   1      59.546  49.461  50.193  0.00  0.00    -0.268 OA
BRANCH  21  22
ATOM     22  C   UNL d   1      59.066  49.348  50.858  0.00  0.00     0.300 C 
ATOM     23  O   UNL d   1      59.414  49.249  51.605  0.00  0.00    -0.259 OA
BRANCH  22  24
ATOM     24  C   UNL d   1      58.231  49.335  50.772  0.00  0.00     0.064 A 
ATOM     25  C   UNL d   1      57.758  49.189  51.431  0.00  0.00     0.005 A 
ATOM     26  C   UNL d   1      56.923  49.174  51.354  0.00  0.00     0.000 A 
ATOM     27  C   UNL d   1      56.455  49.027  52.018  0.00  0.00     0.000 C 
ATOM     28  C   UNL d   1      56.587  49.307  50.608  0.00  0.00     0.000 A 
ATOM     29  C   UNL d   1      57.068  49.456  49.939  0.00  0.00     0.000 A 
ATOM     30  C   UNL d   1      57.880  49.467  50.034  0.00  0.00     0.005 A 
ATOM     31  C   UNL d   1      56.713  49.585  49.214  0.00  0.00     0.000 C 
ENDBRANCH  22  24
ENDBRANCH  21  22
ENDBRANCH   1  21
TORSDOF 8
ENDMDL
