MODEL 1
REMARK VINA RESULT:      -8.1      0.000      0.000
REMARK  4 active torsions:
REMARK  status: ('A' for Active; 'I' for Inactive)
REMARK    1  A    between atoms: C_3  and  C_1 
REMARK    2  A    between atoms: C_8  and  C_3 
REMARK    3  A    between atoms: C_9  and  C_3 
REMARK    4  A    between atoms: N_5  and  C_9 
ROOT
ATOM      1  C   UNL d   1      53.594  32.717  53.717  0.00  0.00     0.023 A 
ATOM      2  C   UNL d   1      54.416  32.743  53.472  0.00  0.00     0.082 A 
ATOM      3  N   UNL d   1      54.625  31.999  53.223  0.00  0.00    -0.246 NA
ATOM      4  C   UNL d   1      53.335  31.954  53.606  0.00  0.00     0.019 A 
ATOM      5  C   UNL d   1      53.965  31.504  53.301  0.00  0.00     0.081 A 
ATOM      6  C   UNL d   1      55.130  33.029  53.325  0.00  0.00     0.021 C 
ATOM      7  C   UNL d   1      52.601  31.603  53.743  0.00  0.00     0.002 A 
ATOM      8  C   UNL d   1      53.849  30.698  53.136  0.00  0.00     0.019 A 
ATOM      9  C   UNL d   1      52.505  30.803  53.573  0.00  0.00     0.000 A 
ATOM     10  C   UNL d   1      53.118  30.349  53.273  0.00  0.00     0.002 A 
ENDROOT
BRANCH   1  11
ATOM     11  C   UNL d   1      53.167  33.362  54.008  0.00  0.00     0.048 C 
BRANCH  11  12
ATOM     12  C   UNL d   1      52.748  33.858  53.522  0.00  0.00     0.102 A 
ATOM     13  O   UNL d   1      53.082  34.391  52.968  0.00  0.00    -0.305 OA
ATOM     14  C   UNL d   1      52.472  34.790  52.589  0.00  0.00     0.123 A 
ATOM     15  C   UNL d   1      51.736  34.497  52.917  0.00  0.00     0.029 A 
ATOM     16  C   UNL d   1      51.927  33.934  53.480  0.00  0.00     0.027 A 
ENDBRANCH  11  12
BRANCH  11  17
ATOM     17  C   UNL d   1      53.172  33.498  54.833  0.00  0.00     0.150 C 
BRANCH  17  18
ATOM     18  N   UNL d   1      53.549  34.176  55.126  0.00  0.00    -0.112 N 
ATOM     19  O   UNL d   1      54.355  34.214  55.184  0.00  0.00    -0.532 OA
ATOM     20  O   UNL d   1      53.076  34.840  55.368  0.00  0.00    -0.532 OA
ENDBRANCH  17  18
ENDBRANCH  11  17
ENDBRANCH   1  11
TORSDOF 4
ENDMDL
MODEL 2
REMARK VINA RESULT:      -7.9      1.094      2.715
REMARK  4 active torsions:
REMARK  status: ('A' for Active; 'I' for Inactive)
REMARK    1  A    between atoms: C_3  and  C_1 
REMARK    2  A    between atoms: C_8  and  C_3 
REMARK    3  A    between atoms: C_9  and  C_3 
REMARK    4  A    between atoms: N_5  and  C_9 
ROOT
ATOM      1  C   UNL d   1      52.766  33.870  53.665  0.00  0.00     0.023 A 
ATOM      2  C   UNL d   1      53.010  34.628  53.345  0.00  0.00     0.082 A 
ATOM      3  N   UNL d   1      52.375  34.949  52.953  0.00  0.00    -0.246 NA
ATOM      4  C   UNL d   1      51.988  33.761  53.454  0.00  0.00     0.019 A 
ATOM      5  C   UNL d   1      51.738  34.422  53.015  0.00  0.00     0.081 A 
ATOM      6  C   UNL d   1      53.468  35.241  53.175  0.00  0.00     0.021 C 
ATOM      7  C   UNL d   1      51.464  33.141  53.605  0.00  0.00     0.002 A 
ATOM      8  C   UNL d   1      50.959  34.453  52.728  0.00  0.00     0.019 A 
ATOM      9  C   UNL d   1      50.696  33.190  53.313  0.00  0.00     0.000 A 
ATOM     10  C   UNL d   1      50.439  33.836  52.879  0.00  0.00     0.002 A 
ENDROOT
BRANCH   1  11
ATOM     11  C   UNL d   1      53.249  33.364  54.103  0.00  0.00     0.048 C 
BRANCH  11  12
ATOM     12  C   UNL d   1      53.723  32.807  53.752  0.00  0.00     0.102 A 
ATOM     13  O   UNL d   1      54.409  32.969  53.299  0.00  0.00    -0.305 OA
ATOM     14  C   UNL d   1      54.728  32.256  53.044  0.00  0.00     0.123 A 
ATOM     15  C   UNL d   1      54.225  31.632  53.347  0.00  0.00     0.029 A 
ATOM     16  C   UNL d   1      53.623  31.987  53.773  0.00  0.00     0.027 A 
ENDBRANCH  11  12
BRANCH  11  17
ATOM     17  C   UNL d   1      53.242  33.435  54.937  0.00  0.00     0.150 C 
BRANCH  17  18
ATOM     18  N   UNL d   1      53.949  33.619  55.330  0.00  0.00    -0.112 N 
ATOM     19  O   UNL d   1      54.249  34.370  55.320  0.00  0.00    -0.532 OA
ATOM     20  O   UNL d   1      54.360  33.004  55.750  0.00  0.00    -0.532 OA
ENDBRANCH  17  18
ENDBRANCH  11  17
ENDBRANCH   1  11
TORSDOF 4
ENDMDL
MODEL 3
REMARK VINA RESULT:      -7.9      1.233      2.172
REMARK  4 active torsions:
REMARK  status: ('A' for Active; 'I' for Inactive)
REMARK    1  A    between atoms: C_3  and  C_1 
REMARK    2  A    between atoms: C_8  and  C_3 
REMARK    3  A    between atoms: C_9  and  C_3 
REMARK    4  A    between atoms: N_5  and  C_9 
ROOT
ATOM      1  C   UNL d   1      53.432  32.097  53.481  0.00  0.00     0.023 A 
ATOM      2  C   UNL d   1      52.809  32.419  52.987  0.00  0.00     0.082 A 
ATOM      3  N   UNL d   1      52.348  31.800  52.733  0.00  0.00    -0.246 NA
ATOM      4  C   UNL d   1      53.324  31.291  53.509  0.00  0.00     0.019 A 
ATOM      5  C   UNL d   1      52.657  31.099  53.050  0.00  0.00     0.081 A 
ATOM      6  C   UNL d   1      52.373  32.944  52.602  0.00  0.00     0.021 C 
ATOM      7  C   UNL d   1      53.748  30.698  53.894  0.00  0.00     0.002 A 
ATOM      8  C   UNL d   1      52.422  30.305  52.983  0.00  0.00     0.019 A 
ATOM      9  C   UNL d   1      53.500  29.917  53.816  0.00  0.00     0.000 A 
ATOM     10  C   UNL d   1      52.845  29.715  53.367  0.00  0.00     0.002 A 
ENDROOT
BRANCH   1  11
ATOM     11  C   UNL d   1      54.021  32.544  53.850  0.00  0.00     0.048 C 
BRANCH  11  12
ATOM     12  C   UNL d   1      53.857  33.063  54.451  0.00  0.00     0.102 A 
ATOM     13  O   UNL d   1      53.412  33.770  54.375  0.00  0.00    -0.305 OA
ATOM     14  C   UNL d   1      53.375  34.134  55.110  0.00  0.00     0.123 A 
ATOM     15  C   UNL d   1      53.810  33.641  55.660  0.00  0.00     0.029 A 
ATOM     16  C   UNL d   1      54.093  32.998  55.240  0.00  0.00     0.027 A 
ENDBRANCH  11  12
BRANCH  11  17
ATOM     17  C   UNL d   1      54.809  32.450  53.588  0.00  0.00     0.150 C 
BRANCH  17  18
ATOM     18  N   UNL d   1      55.214  33.108  53.286  0.00  0.00    -0.112 N 
ATOM     19  O   UNL d   1      55.009  33.434  52.575  0.00  0.00    -0.532 OA
ATOM     20  O   UNL d   1      55.854  33.442  53.736  0.00  0.00    -0.532 OA
ENDBRANCH  17  18
ENDBRANCH  11  17
ENDBRANCH   1  11
TORSDOF 4
ENDMDL
MODEL 4
REMARK VINA RESULT:      -7.7      1.432      3.028
REMARK  4 active torsions:
REMARK  status: ('A' for Active; 'I' for Inactive)
REMARK    1  A    between atoms: C_3  and  C_1 
REMARK    2  A    between atoms: C_8  and  C_3 
REMARK    3  A    between atoms: C_9  and  C_3 
REMARK    4  A    between atoms: N_5  and  C_9 
ROOT
ATOM      1  C   UNL d   1      52.987  32.964  53.437  0.00  0.00     0.023 A 
ATOM      2  C   UNL d   1      52.653  32.188  53.286  0.00  0.00     0.082 A 
ATOM      3  N   UNL d   1      51.884  32.289  53.046  0.00  0.00    -0.246 NA
ATOM      4  C   UNL d   1      52.403  33.509  53.282  0.00  0.00     0.019 A 
ATOM      5  C   UNL d   1      51.719  33.102  53.040  0.00  0.00     0.081 A 
ATOM      6  C   UNL d   1      52.604  31.408  53.226  0.00  0.00     0.021 C 
ATOM      7  C   UNL d   1      52.402  34.333  53.328  0.00  0.00     0.002 A 
ATOM      8  C   UNL d   1      51.035  33.531  52.845  0.00  0.00     0.019 A 
ATOM      9  C   UNL d   1      51.714  34.741  53.132  0.00  0.00     0.000 A 
ATOM     10  C   UNL d   1      51.034  34.351  52.892  0.00  0.00     0.002 A 
ENDROOT
BRANCH   1  11
ATOM     11  C   UNL d   1      53.759  33.105  53.692  0.00  0.00     0.048 C 
BRANCH  11  12
ATOM     12  C   UNL d   1      53.966  33.088  54.476  0.00  0.00     0.102 A 
ATOM     13  O   UNL d   1      53.895  32.423  54.983  0.00  0.00    -0.305 OA
ATOM     14  C   UNL d   1      54.164  32.635  55.729  0.00  0.00     0.123 A 
ATOM     15  C   UNL d   1      54.410  33.455  55.687  0.00  0.00     0.029 A 
ATOM     16  C   UNL d   1      54.282  33.709  54.919  0.00  0.00     0.027 A 
ENDBRANCH  11  12
BRANCH  11  17
ATOM     17  C   UNL d   1      54.341  33.271  53.114  0.00  0.00     0.150 C 
BRANCH  17  18
ATOM     18  N   UNL d   1      55.012  32.786  53.068  0.00  0.00    -0.112 N 
ATOM     19  O   UNL d   1      54.942  31.986  52.963  0.00  0.00    -0.532 OA
ATOM     20  O   UNL d   1      55.783  33.138  53.132  0.00  0.00    -0.532 OA
ENDBRANCH  17  18
ENDBRANCH  11  17
ENDBRANCH   1  11
TORSDOF 4
ENDMDL
MODEL 5
REMARK VINA RESULT:      -7.4      1.216      3.090
REMARK  4 active torsions:
REMARK  status: ('A' for Active; 'I' for Inactive)
REMARK    1  A    between atoms: C_3  and  C_1 
REMARK    2  A    between atoms: C_8  and  C_3 
REMARK    3  A    between atoms: C_9  and  C_3 
REMARK    4  A    between atoms: N_5  and  C_9 
ROOT
ATOM      1  C   UNL d   1      53.020  33.352  53.669  0.00  0.00     0.023 A 
ATOM      2  C   UNL d   1      52.996  33.740  54.434  0.00  0.00     0.082 A 
ATOM      3  N   UNL d   1      52.363  34.249  54.436  0.00  0.00    -0.246 NA
ATOM      4  C   UNL d   1      52.397  33.643  53.234  0.00  0.00     0.019 A 
ATOM      5  C   UNL d   1      51.986  34.197  53.699  0.00  0.00     0.081 A 
ATOM      6  C   UNL d   1      53.195  33.933  55.167  0.00  0.00     0.021 C 
ATOM      7  C   UNL d   1      52.145  33.475  52.466  0.00  0.00     0.002 A 
ATOM      8  C   UNL d   1      51.320  34.581  53.385  0.00  0.00     0.019 A 
ATOM      9  C   UNL d   1      51.483  33.866  52.172  0.00  0.00     0.000 A 
ATOM     10  C   UNL d   1      51.070  34.414  52.620  0.00  0.00     0.002 A 
ENDROOT
BRANCH   1  11
ATOM     11  C   UNL d   1      53.581  32.791  53.441  0.00  0.00     0.048 C 
BRANCH  11  12
ATOM     12  C   UNL d   1      53.493  32.001  53.601  0.00  0.00     0.102 A 
ATOM     13  O   UNL d   1      53.554  31.649  54.360  0.00  0.00    -0.305 OA
ATOM     14  C   UNL d   1      53.429  30.841  54.283  0.00  0.00     0.123 A 
ATOM     15  C   UNL d   1      53.286  30.685  53.452  0.00  0.00     0.029 A 
ATOM     16  C   UNL d   1      53.329  31.401  53.058  0.00  0.00     0.027 A 
ENDBRANCH  11  12
BRANCH  11  17
ATOM     17  C   UNL d   1      54.261  33.057  53.032  0.00  0.00     0.150 C 
BRANCH  17  18
ATOM     18  N   UNL d   1      55.005  32.966  53.386  0.00  0.00    -0.112 N 
ATOM     19  O   UNL d   1      55.148  33.240  54.135  0.00  0.00    -0.532 OA
ATOM     20  O   UNL d   1      55.625  32.578  52.952  0.00  0.00    -0.532 OA
ENDBRANCH  17  18
ENDBRANCH  11  17
ENDBRANCH   1  11
TORSDOF 4
ENDMDL
MODEL 6
REMARK VINA RESULT:      -7.4      1.602      2.605
REMARK  4 active torsions:
REMARK  status: ('A' for Active; 'I' for Inactive)
REMARK    1  A    between atoms: C_3  and  C_1 
REMARK    2  A    between atoms: C_8  and  C_3 
REMARK    3  A    between atoms: C_9  and  C_3 
REMARK    4  A    between atoms: N_5  and  C_9 
ROOT
ATOM      1  C   UNL d   1      53.875  32.763  53.805  0.00  0.00     0.023 A 
ATOM      2  C   UNL d   1      54.542  32.801  53.266  0.00  0.00     0.082 A 
ATOM      3  N   UNL d   1      55.167  33.131  53.666  0.00  0.00    -0.246 NA
ATOM      4  C   UNL d   1      54.123  33.074  54.514  0.00  0.00     0.019 A 
ATOM      5  C   UNL d   1      54.919  33.304  54.438  0.00  0.00     0.081 A 
ATOM      6  C   UNL d   1      54.962  32.721  52.609  0.00  0.00     0.021 C 
ATOM      7  C   UNL d   1      53.727  33.181  55.230  0.00  0.00     0.002 A 
ATOM      8  C   UNL d   1      55.312  33.641  55.087  0.00  0.00     0.019 A 
ATOM      9  C   UNL d   1      54.132  33.517  55.862  0.00  0.00     0.000 A 
ATOM     10  C   UNL d   1      54.917  33.747  55.800  0.00  0.00     0.002 A 
ENDROOT
BRANCH   1  11
ATOM     11  C   UNL d   1      53.130  32.463  53.614  0.00  0.00     0.048 C 
BRANCH  11  12
ATOM     12  C   UNL d   1      52.566  32.910  53.239  0.00  0.00     0.102 A 
ATOM     13  O   UNL d   1      52.631  33.224  52.465  0.00  0.00    -0.305 OA
ATOM     14  C   UNL d   1      51.944  33.641  52.294  0.00  0.00     0.123 A 
ATOM     15  C   UNL d   1      51.436  33.584  52.983  0.00  0.00     0.029 A 
ATOM     16  C   UNL d   1      51.832  33.138  53.543  0.00  0.00     0.027 A 
ENDBRANCH  11  12
BRANCH  11  17
ATOM     17  C   UNL d   1      52.960  31.670  53.819  0.00  0.00     0.150 C 
BRANCH  17  18
ATOM     18  N   UNL d   1      53.050  31.079  53.245  0.00  0.00    -0.112 N 
ATOM     19  O   UNL d   1      52.623  31.095  52.557  0.00  0.00    -0.532 OA
ATOM     20  O   UNL d   1      53.601  30.446  53.384  0.00  0.00    -0.532 OA
ENDBRANCH  17  18
ENDBRANCH  11  17
ENDBRANCH   1  11
TORSDOF 4
ENDMDL
MODEL 7
REMARK VINA RESULT:      -6.8      1.811      2.704
REMARK  4 active torsions:
REMARK  status: ('A' for Active; 'I' for Inactive)
REMARK    1  A    between atoms: C_3  and  C_1 
REMARK    2  A    between atoms: C_8  and  C_3 
REMARK    3  A    between atoms: C_9  and  C_3 
REMARK    4  A    between atoms: N_5  and  C_9 
ROOT
ATOM      1  C   UNL d   1      52.819  34.113  53.882  0.00  0.00     0.023 A 
ATOM      2  C   UNL d   1      52.945  34.873  54.261  0.00  0.00     0.082 A 
ATOM      3  N   UNL d   1      53.491  34.768  54.853  0.00  0.00    -0.246 NA
ATOM      4  C   UNL d   1      53.296  33.575  54.262  0.00  0.00     0.019 A 
ATOM      5  C   UNL d   1      53.714  33.970  54.863  0.00  0.00     0.081 A 
ATOM      6  C   UNL d   1      52.875  35.638  54.415  0.00  0.00     0.021 C 
ATOM      7  C   UNL d   1      53.407  32.766  54.141  0.00  0.00     0.002 A 
ATOM      8  C   UNL d   1      54.244  33.545  55.340  0.00  0.00     0.019 A 
ATOM      9  C   UNL d   1      53.937  32.362  54.623  0.00  0.00     0.000 A 
ATOM     10  C   UNL d   1      54.355  32.740  55.218  0.00  0.00     0.002 A 
ENDROOT
BRANCH   1  11
ATOM     11  C   UNL d   1      52.304  33.980  53.250  0.00  0.00     0.048 C 
BRANCH  11  12
ATOM     12  C   UNL d   1      51.498  33.987  53.340  0.00  0.00     0.102 A 
ATOM     13  O   UNL d   1      51.023  34.675  53.408  0.00  0.00    -0.305 OA
ATOM     14  C   UNL d   1      50.239  34.443  53.490  0.00  0.00     0.123 A 
ATOM     15  C   UNL d   1      50.226  33.586  53.474  0.00  0.00     0.029 A 
ATOM     16  C   UNL d   1      50.998  33.331  53.382  0.00  0.00     0.027 A 
ENDBRANCH  11  12
BRANCH  11  17
ATOM     17  C   UNL d   1      52.635  33.833  52.496  0.00  0.00     0.150 C 
BRANCH  17  18
ATOM     18  N   UNL d   1      52.500  34.376  51.885  0.00  0.00    -0.112 N 
ATOM     19  O   UNL d   1      52.938  35.054  51.824  0.00  0.00    -0.532 OA
ATOM     20  O   UNL d   1      51.889  34.215  51.315  0.00  0.00    -0.532 OA
ENDBRANCH  17  18
ENDBRANCH  11  17
ENDBRANCH   1  11
TORSDOF 4
ENDMDL
