MODEL 1
REMARK VINA RESULT:      39.3      0.000      0.000
REMARK  1 active torsions:
REMARK  status: ('A' for Active; 'I' for Inactive)
REMARK    1  A    between atoms: C_2  and  N_1 
ROOT
ATOM      1  C   UNL d   1      14.151  13.747  -2.653  0.00  0.00     0.169 A 
ATOM      2  C   UNL d   1      13.789  13.696  -3.371  0.00  0.00     0.060 A 
ATOM      3  C   UNL d   1      13.667  14.400  -3.828  0.00  0.00     0.115 A 
ATOM      4  S   UNL d   1      13.293  14.190  -4.522  0.00  0.00    -0.068 SA
ATOM      5  C   UNL d   1      13.479  13.080  -3.816  0.00  0.00     0.011 A 
ATOM      6  N   UNL d   1      14.404  14.450  -2.350  0.00  0.00    -0.208 NA
ATOM      7  N   UNL d   1      13.913  15.110  -3.540  0.00  0.00    -0.220 NA
ATOM      8  C   UNL d   1      13.174  13.389  -4.525  0.00  0.00     0.031 A 
ATOM      9  C   UNL d   1      14.294  15.179  -2.789  0.00  0.00     0.165 A 
ATOM     10  C   UNL d   1      13.430  12.264  -3.671  0.00  0.00     0.001 A 
ATOM     11  C   UNL d   1      12.828  12.890  -5.077  0.00  0.00     0.006 A 
ATOM     12  C   UNL d   1      14.546  15.913  -2.498  0.00  0.00     0.042 C 
ATOM     13  C   UNL d   1      13.079  11.779  -4.239  0.00  0.00     0.000 A 
ATOM     14  C   UNL d   1      12.769  12.091  -4.960  0.00  0.00     0.001 A 
ENDROOT
BRANCH   1  15
ATOM     15  N   UNL d   1      14.275  13.066  -2.198  0.00  0.00    -0.193 N 
ATOM     16  N   UNL d   1      14.059  12.312  -2.423  0.00  0.00    -0.058 NA
ATOM     17  N   UNL d   1      14.279  11.779  -1.815  0.00  0.00    -0.129 NA
ATOM     18  C   UNL d   1      14.635  12.219  -1.212  0.00  0.00     0.122 A 
ATOM     19  C   UNL d   1      14.638  13.001  -1.432  0.00  0.00     0.105 A 
ATOM     20  C   UNL d   1      14.944  11.992  -0.509  0.00  0.00     0.022 A 
ATOM     21  C   UNL d   1      14.943  13.571  -0.971  0.00  0.00     0.021 A 
ATOM     22  C   UNL d   1      15.267  13.360  -0.242  0.00  0.00     0.002 A 
ATOM     23  C   UNL d   1      15.264  12.557  -0.014  0.00  0.00     0.002 A 
ENDBRANCH   1  15
TORSDOF 1
ENDMDL
