MODEL 1
REMARK VINA RESULT:      -1.5      0.000      0.000
REMARK  8 active torsions:
REMARK  status: ('A' for Active; 'I' for Inactive)
REMARK    1  A    between atoms: C_16  and  N_1 
REMARK    2  A    between atoms: S_7  and  C_2 
REMARK       I    between atoms: C_6  and  N_12 
REMARK    3  A    between atoms: C_9  and  C_6 
REMARK    4  A    between atoms: C_13  and  S_7 
REMARK    5  A    between atoms: C_8  and  C_13 
REMARK    6  A    between atoms: N_12  and  C_22 
REMARK    7  A    between atoms: C_22  and  C_16 
REMARK    8  A    between atoms: O_24  and  C_18 
ROOT
ATOM      1  N   UNL d   1     -41.929-123.598 -50.477  0.00  0.00    -0.302 N 
ATOM      2  C   UNL d   1     -41.859-123.656 -49.142  0.00  0.00     0.049 A 
ATOM      3  C   UNL d   1     -41.444-123.817 -49.838  0.00  0.00     0.087 A 
ATOM      4  C   UNL d   1     -42.601-123.337 -49.343  0.00  0.00     0.024 A 
ATOM      5  C   UNL d   1     -42.642-123.302 -50.175  0.00  0.00     0.065 A 
ATOM      6  C   UNL d   1     -43.240-123.075 -48.897  0.00  0.00     0.002 A 
ATOM      7  C   UNL d   1     -43.324-123.005 -50.545  0.00  0.00     0.018 A 
ATOM      8  C   UNL d   1     -43.913-122.782 -49.260  0.00  0.00     0.000 A 
ATOM      9  C   UNL d   1     -43.953-122.747 -50.091  0.00  0.00     0.002 A 
ENDROOT
BRANCH   1  10
ATOM     10  C   UNL d   1     -41.733-123.664 -51.276  0.00  0.00     0.101 C 
BRANCH  10  11
ATOM     11  C   UNL d   1     -41.494-122.999 -51.701  0.00  0.00     0.121 C 
BRANCH  11  12
ATOM     12  N   UNL d   1     -41.690-122.923 -52.499  0.00  0.00    -0.205 NA
ATOM     13  C   UNL d   1     -41.508-122.231 -52.903  0.00  0.00     0.279 C 
ATOM     14  O   UNL d   1     -41.129-121.609 -52.515  0.00  0.00    -0.265 OA
BRANCH  13  15
ATOM     15  C   UNL d   1     -41.705-122.155 -53.701  0.00  0.00     0.058 A 
ATOM     16  C   UNL d   1     -42.253-121.570 -53.942  0.00  0.00     0.007 A 
ATOM     17  C   UNL d   1     -42.450-121.493 -54.739  0.00  0.00     0.024 A 
ATOM     18  C   UNL d   1     -42.097-122.002 -55.292  0.00  0.00     0.094 A 
ATOM     19  C   UNL d   1     -41.558-122.577 -55.053  0.00  0.00     0.024 A 
ATOM     20  C   UNL d   1     -41.366-122.649 -54.263  0.00  0.00     0.007 A 
BRANCH  18  21
ATOM     21  O   UNL d   1     -42.289-121.934 -56.105  0.00  0.00    -0.328 OA
ATOM     22  C   UNL d   1     -42.868-122.412 -56.456  0.00  0.00     0.181 C 
ENDBRANCH  18  21
ENDBRANCH  13  15
ENDBRANCH  11  12
ENDBRANCH  10  11
ENDBRANCH   1  10
BRANCH   2  23
ATOM     23  S   UNL d   1     -41.591-123.786 -48.372  0.00  0.00    -0.080 SA
BRANCH  23  24
ATOM     24  C   UNL d   1     -41.123-123.216 -47.995  0.00  0.00     0.100 C 
BRANCH  24  25
ATOM     25  C   UNL d   1     -41.143-123.133 -47.178  0.00  0.00     0.303 C 
ATOM     26  O   UNL d   1     -41.152-122.379 -46.844  0.00  0.00    -0.263 OA
ATOM     27  N   UNL d   1     -41.153-123.800 -46.693  0.00  0.00    -0.102 N 
ENDBRANCH  24  25
ENDBRANCH  23  24
ENDBRANCH   2  23
TORSDOF 8
ENDMDL
