MODEL 1
REMARK VINA RESULT:      57.3      0.000      0.000
REMARK  5 active torsions:
REMARK  status: ('A' for Active; 'I' for Inactive)
REMARK    1  A    between atoms: C_12  and  C_1 
REMARK    2  A    between atoms: C_4  and  O_8 
REMARK       I    between atoms: N_11  and  C_4 
REMARK    3  A    between atoms: O_8  and  C_13 
REMARK    4  A    between atoms: C_17  and  N_11 
REMARK    5  A    between atoms: C_18  and  N_11 
ROOT
ATOM      1  C   UNL d   1     -55.160-102.155 -37.986  0.00  0.00     0.064 A 
ATOM      2  C   UNL d   1     -55.212-101.450 -38.417  0.00  0.00     0.199 A 
ATOM      3  C   UNL d   1     -55.087-101.465 -39.231  0.00  0.00     0.062 A 
ATOM      4  C   UNL d   1     -54.984-102.866 -38.365  0.00  0.00     0.126 A 
ATOM      5  C   UNL d   1     -54.911-102.174 -39.613  0.00  0.00     0.105 A 
ATOM      6  O   UNL d   1     -54.858-102.879 -39.181  0.00  0.00    -0.305 OA
ATOM      7  C   UNL d   1     -54.785-102.185 -40.434  0.00  0.00     0.050 A 
ATOM      8  C   UNL d   1     -55.138-100.758 -39.675  0.00  0.00     0.007 A 
ATOM      9  C   UNL d   1     -54.836-101.488 -40.869  0.00  0.00     0.107 A 
ATOM     10  O   UNL d   1     -55.388-100.739 -38.039  0.00  0.00    -0.286 OA
ATOM     11  C   UNL d   1     -55.013-100.773 -40.488  0.00  0.00     0.025 A 
ENDROOT
BRANCH   9  12
ATOM     12  O   UNL d   1     -54.711-101.499 -41.681  0.00  0.00    -0.259 OA
BRANCH  12  13
ATOM     13  C   UNL d   1     -54.782-100.809 -42.120  0.00  0.00     0.377 C 
ATOM     14  N   UNL d   1     -54.852-100.855 -42.944  0.00  0.00    -0.252 N 
ATOM     15  O   UNL d   1     -54.785-100.076 -41.743  0.00  0.00    -0.237 OA
BRANCH  14  16
ATOM     16  C   UNL d   1     -54.849-101.586 -43.326  0.00  0.00     0.085 C 
ATOM     17  C   UNL d   1     -55.509-101.814 -43.769  0.00  0.00     0.021 C 
ENDBRANCH  14  16
BRANCH  14  18
ATOM     18  C   UNL d   1     -54.923-100.160 -43.386  0.00  0.00     0.085 C 
ATOM     19  C   UNL d   1     -55.142-100.190 -44.181  0.00  0.00     0.021 C 
ENDBRANCH  14  18
ENDBRANCH  12  13
ENDBRANCH   9  12
BRANCH   1  20
ATOM     20  C   UNL d   1     -55.285-102.144 -37.165  0.00  0.00     0.005 A 
ATOM     21  C   UNL d   1     -54.717-101.802 -36.675  0.00  0.00     0.000 A 
ATOM     22  C   UNL d   1     -54.843-101.792 -35.854  0.00  0.00     0.000 A 
ATOM     23  C   UNL d   1     -55.528-102.119 -35.537  0.00  0.00     0.000 A 
ATOM     24  C   UNL d   1     -56.091-102.458 -36.042  0.00  0.00     0.000 A 
ATOM     25  C   UNL d   1     -55.967-102.469 -36.855  0.00  0.00     0.000 A 
ENDBRANCH   1  20
TORSDOF 5
ENDMDL
