MODEL 1
REMARK VINA RESULT:      26.2      0.000      0.000
REMARK  3 active torsions:
REMARK  status: ('A' for Active; 'I' for Inactive)
REMARK    1  A    between atoms: N_3  and  C_1 
REMARK    2  A    between atoms: O_4  and  C_2 
REMARK    3  A    between atoms: C_7  and  O_4 
ROOT
ATOM      1  C   UNL d   1     -52.453  24.487  33.630  0.00  0.00     0.205 A 
ATOM      2  C   UNL d   1     -51.783  24.895  33.426  0.00  0.00     0.209 A 
ATOM      3  N   UNL d   1     -51.090  24.491  33.310  0.00  0.00    -0.198 NA
ATOM      4  C   UNL d   1     -52.434  23.665  33.720  0.00  0.00     0.211 A 
ATOM      5  N   UNL d   1     -51.743  23.261  33.604  0.00  0.00    -0.202 NA
ATOM      6  C   UNL d   1     -51.074  23.661  33.401  0.00  0.00     0.202 A 
ATOM      7  N   UNL d   1     -53.114  23.241  33.927  0.00  0.00    -0.125 N 
ENDROOT
BRANCH   2   8
ATOM      8  O   UNL d   1     -51.775  25.733  33.329  0.00  0.00    -0.288 OA
BRANCH   8   9
ATOM      9  C   UNL d   1     -51.053  26.137  33.369  0.00  0.00     0.102 A 
ATOM     10  C   UNL d   1     -51.044  26.952  33.435  0.00  0.00     0.023 A 
ATOM     11  C   UNL d   1     -50.320  27.351  33.474  0.00  0.00     0.002 A 
ATOM     12  C   UNL d   1     -51.723  27.390  33.463  0.00  0.00     0.002 C 
ATOM     13  C   UNL d   1     -49.609  26.933  33.448  0.00  0.00     0.000 A 
ATOM     14  C   UNL d   1     -49.625  26.111  33.381  0.00  0.00     0.002 A 
ATOM     15  C   UNL d   1     -50.353  25.693  33.340  0.00  0.00     0.025 A 
ATOM     16  C   UNL d   1     -48.897  25.665  33.353  0.00  0.00     0.000 C 
ENDBRANCH   8   9
ENDBRANCH   2   8
BRANCH   1  17
ATOM     17  N   UNL d   1     -53.157  24.895  33.748  0.00  0.00    -0.107 N 
ATOM     18  O   UNL d   1     -53.808  24.687  33.335  0.00  0.00    -0.531 OA
ATOM     19  O   UNL d   1     -53.179  25.507  34.287  0.00  0.00    -0.531 OA
ENDBRANCH   1  17
TORSDOF 3
ENDMDL
