MODEL 1
REMARK VINA RESULT:      23.5      0.000      0.000
REMARK  5 active torsions:
REMARK  status: ('A' for Active; 'I' for Inactive)
REMARK    1  A    between atoms: N_5  and  C_1 
REMARK    2  A    between atoms: N_6  and  C_1 
REMARK       I    between atoms: C_2  and  N_3 
REMARK    3  A    between atoms: C_4  and  C_2 
REMARK    4  A    between atoms: N_3  and  N_5 
REMARK    5  A    between atoms: C_10  and  N_6 
ROOT
ATOM      1  C   UNL d   1      58.470  49.650  49.869  0.00  0.00     0.272 C 
ATOM      2  N   UNL d   1      59.042  49.648  50.456  0.00  0.00    -0.264 N 
ATOM      3  O   UNL d   1      58.679  49.707  49.081  0.00  0.00    -0.266 OA
ATOM      4  H   UNL d   1      58.812  49.589  51.257  0.00  0.00     0.190 HD
ENDROOT
BRANCH   2   5
ATOM      5  N   UNL d   1      59.826  49.704  50.264  0.00  0.00    -0.274 N 
ATOM      6  H   UNL d   1      60.053  49.998  49.516  0.00  0.00     0.189 HD
BRANCH   5   7
ATOM      7  C   UNL d   1      60.399  49.469  50.810  0.00  0.00     0.187 C 
ATOM      8  S   UNL d   1      61.185  49.385  50.579  0.00  0.00    -0.040 SA
BRANCH   7   9
ATOM      9  N   UNL d   1      60.175  49.322  51.585  0.00  0.00    -0.354 N 
ATOM     10  H   UNL d   1      59.398  49.132  51.753  0.00  0.00     0.162 HD
BRANCH   9  11
ATOM     11  C   UNL d   1      60.742  49.369  52.184  0.00  0.00     0.063 C 
ATOM     12  C   UNL d   1      61.317  49.410  52.774  0.00  0.00     0.022 C 
ATOM     13  C   UNL d   1      60.198  49.705  52.693  0.00  0.00     0.022 C 
ATOM     14  C   UNL d   1      61.304  49.026  51.670  0.00  0.00     0.022 C 
ENDBRANCH   9  11
ENDBRANCH   7   9
ENDBRANCH   5   7
ENDBRANCH   2   5
BRANCH   1  15
ATOM     15  C   UNL d   1      57.671  49.593  50.070  0.00  0.00     0.058 A 
ATOM     16  C   UNL d   1      57.438  49.679  50.868  0.00  0.00     0.011 A 
ATOM     17  C   UNL d   1      56.652  49.622  51.058  0.00  0.00     0.035 A 
ATOM     18 BR   UNL d   1      56.423  49.705  51.827  0.00  0.00    -0.049 Br
ATOM     19  C   UNL d   1      56.085  49.481  50.477  0.00  0.00     0.007 A 
ATOM     20  C   UNL d   1      56.303  49.392  49.680  0.00  0.00     0.001 A 
ATOM     21  C   UNL d   1      57.105  49.451  49.490  0.00  0.00     0.005 A 
ENDBRANCH   1  15
TORSDOF 5
ENDMDL
