MODEL 1
REMARK VINA RESULT:      40.3      0.000      0.000
REMARK  2 active torsions:
REMARK  status: ('A' for Active; 'I' for Inactive)
REMARK    1  A    between atoms: O_3  and  C_1 
REMARK    2  A    between atoms: C_2  and  O_3 
REMARK       I    between atoms: N_7  and  C_2 
ROOT
ATOM      1  C   UNL d   1     -51.155  25.472  33.307  0.00  0.00     0.129 A 
ATOM      2  C   UNL d   1     -50.482  24.994  33.307  0.00  0.00     0.105 A 
ATOM      3  C   UNL d   1     -49.733  25.321  33.308  0.00  0.00     0.026 A 
ATOM      4  C   UNL d   1     -51.051  26.299  33.308  0.00  0.00     0.059 A 
ATOM      5  C   UNL d   1     -49.640  26.133  33.309  0.00  0.00     0.037 A 
ATOM      6  C   UNL d   1     -50.313  26.621  33.309  0.00  0.00     0.015 A 
ATOM      7  N   UNL d   1     -50.580  24.169  33.307  0.00  0.00    -0.242 NA
ATOM      8 BR   UNL d   1     -51.695  26.809  33.307  0.00  0.00    -0.047 Br
ATOM      9 BR   UNL d   1     -48.869  26.469  33.310  0.00  0.00    -0.049 Br
ATOM     10  C   UNL d   1     -49.074  24.836  33.309  0.00  0.00     0.004 A 
ATOM     11  C   UNL d   1     -49.917  23.678  33.307  0.00  0.00     0.099 A 
ATOM     12  C   UNL d   1     -49.161  24.008  33.308  0.00  0.00     0.021 A 
ENDROOT
BRANCH   1  13
ATOM     13  O   UNL d   1     -51.913  25.141  33.306  0.00  0.00    -0.257 OA
BRANCH  13  14
ATOM     14  C   UNL d   1     -52.240  24.929  33.997  0.00  0.00     0.378 C 
ATOM     15  N   UNL d   1     -52.864  24.335  33.997  0.00  0.00    -0.252 N 
ATOM     16  C   UNL d   1     -53.113  24.000  33.307  0.00  0.00     0.085 A 
ATOM     17  C   UNL d   1     -53.213  24.107  34.724  0.00  0.00     0.085 A 
ATOM     18  C   UNL d   1     -53.716  23.425  33.308  0.00  0.00     0.019 A 
ATOM     19  C   UNL d   1     -54.069  23.189  33.998  0.00  0.00     0.003 A 
ATOM     20  C   UNL d   1     -53.803  23.546  34.724  0.00  0.00     0.019 A 
ATOM     21  O   UNL d   1     -51.996  25.261  34.690  0.00  0.00    -0.237 OA
ENDBRANCH  13  14
ENDBRANCH   1  13
TORSDOF 2
ENDMDL
MODEL 2
REMARK VINA RESULT:      43.3      1.539      3.523
REMARK  2 active torsions:
REMARK  status: ('A' for Active; 'I' for Inactive)
REMARK    1  A    between atoms: O_3  and  C_1 
REMARK    2  A    between atoms: C_2  and  O_3 
REMARK       I    between atoms: N_7  and  C_2 
ROOT
ATOM      1  C   UNL d   1     -51.637  25.488  33.311  0.00  0.00     0.129 A 
ATOM      2  C   UNL d   1     -51.344  24.717  33.312  0.00  0.00     0.105 A 
ATOM      3  C   UNL d   1     -51.849  24.074  33.317  0.00  0.00     0.026 A 
ATOM      4  C   UNL d   1     -52.464  25.596  33.315  0.00  0.00     0.059 A 
ATOM      5  C   UNL d   1     -52.658  24.189  33.321  0.00  0.00     0.037 A 
ATOM      6  C   UNL d   1     -52.962  24.963  33.320  0.00  0.00     0.015 A 
ATOM      7  N   UNL d   1     -50.521  24.604  33.308  0.00  0.00    -0.242 NA
ATOM      8 BR   UNL d   1     -52.795  26.347  33.315  0.00  0.00    -0.047 Br
ATOM      9 BR   UNL d   1     -53.178  23.527  33.326  0.00  0.00    -0.049 Br
ATOM     10  C   UNL d   1     -51.546  23.314  33.318  0.00  0.00     0.004 A 
ATOM     11  C   UNL d   1     -50.213  23.838  33.308  0.00  0.00     0.099 A 
ATOM     12  C   UNL d   1     -50.723  23.189  33.313  0.00  0.00     0.021 A 
ENDROOT
BRANCH   1  13
ATOM     13  O   UNL d   1     -51.126  26.139  33.306  0.00  0.00    -0.257 OA
BRANCH  13  14
ATOM     14  C   UNL d   1     -50.969  26.509  33.990  0.00  0.00     0.378 C 
ATOM     15  N   UNL d   1     -50.258  26.991  34.049  0.00  0.00    -0.252 N 
ATOM     16  C   UNL d   1     -49.758  27.065  33.421  0.00  0.00     0.085 A 
ATOM     17  C   UNL d   1     -50.088  27.385  34.769  0.00  0.00     0.085 A 
ATOM     18  C   UNL d   1     -49.070  27.531  33.479  0.00  0.00     0.019 A 
ATOM     19  C   UNL d   1     -48.885  27.921  34.165  0.00  0.00     0.003 A 
ATOM     20  C   UNL d   1     -49.415  27.840  34.825  0.00  0.00     0.019 A 
ATOM     21  O   UNL d   1     -51.466  26.439  34.621  0.00  0.00    -0.237 OA
ENDBRANCH  13  14
ENDBRANCH   1  13
TORSDOF 2
ENDMDL
