MODEL 1
REMARK VINA RESULT:      -5.3      0.000      0.000
REMARK  8 active torsions:
REMARK  status: ('A' for Active; 'I' for Inactive)
REMARK    1  A    between atoms: C_10  and  C_3 
REMARK       I    between atoms: N_14  and  C_10 
REMARK    2  A    between atoms: C_12  and  C_13 
REMARK       I    between atoms: N_21  and  C_12 
REMARK    3  A    between atoms: C_29  and  N_14 
REMARK    4  A    between atoms: C_28  and  N_21 
REMARK    5  A    between atoms: O_30  and  C_22 
REMARK    6  A    between atoms: C_23  and  C_31 
REMARK    7  A    between atoms: C_31  and  C_28 
REMARK    8  A    between atoms: C_32  and  O_30 
ROOT
ATOM      1  N   UNL d   1     -47.799  13.153  22.684  0.00  0.00    -0.277 N 
ATOM      2  C   UNL d   1     -48.295  13.813  22.575  0.00  0.00     0.163 A 
ATOM      3  C   UNL d   1     -49.072  13.537  22.523  0.00  0.00     0.124 A 
ATOM      4  C   UNL d   1     -48.276  12.477  22.699  0.00  0.00     0.152 A 
ATOM      5  N   UNL d   1     -47.973  14.570  22.538  0.00  0.00    -0.190 NA
ATOM      6  S   UNL d   1     -49.063  12.721  22.599  0.00  0.00    -0.051 SA
ATOM      7  C   UNL d   1     -46.985  13.254  22.755  0.00  0.00     0.071 A 
ATOM      8  C   UNL d   1     -46.662  14.012  22.718  0.00  0.00     0.074 A 
ATOM      9  C   UNL d   1     -47.158  14.672  22.609  0.00  0.00     0.282 A 
ATOM     10  C   UNL d   1     -46.492  12.597  22.864  0.00  0.00     0.023 A 
ATOM     11  C   UNL d   1     -45.678  12.700  22.935  0.00  0.00     0.059 A 
ATOM     12  S   UNL d   1     -48.007  11.701  22.796  0.00  0.00    -0.052 SA
ATOM     13  C   UNL d   1     -45.845  14.116  22.789  0.00  0.00     0.006 A 
ATOM     14  O   UNL d   1     -46.828  15.440  22.571  0.00  0.00    -0.265 OA
ATOM     15  C   UNL d   1     -45.351  13.459  22.898  0.00  0.00     0.005 A 
ENDROOT
BRANCH  11  16
ATOM     16  C   UNL d   1     -45.187  12.046  23.043  0.00  0.00     0.279 C 
ATOM     17  O   UNL d   1     -45.388  11.466  23.592  0.00  0.00    -0.265 OA
ATOM     18  N   UNL d   1     -44.496  11.971  22.603  0.00  0.00    -0.206 NA
BRANCH  18  19
ATOM     19  C   UNL d   1     -44.295  12.552  22.053  0.00  0.00     0.102 C 
BRANCH  19  20
ATOM     20  C   UNL d   1     -43.802  12.368  21.423  0.00  0.00     0.021 C 
BRANCH  20  21
ATOM     21  C   UNL d   1     -43.116  12.814  21.298  0.00  0.00     0.002 A 
ATOM     22  C   UNL d   1     -43.096  13.361  20.683  0.00  0.00     0.002 A 
ATOM     23  C   UNL d   1     -42.416  13.808  20.553  0.00  0.00     0.025 A 
ATOM     24  C   UNL d   1     -41.757  13.708  21.039  0.00  0.00     0.100 A 
ATOM     25  C   UNL d   1     -41.777  13.161  21.655  0.00  0.00     0.025 A 
ATOM     26  C   UNL d   1     -42.456  12.714  21.784  0.00  0.00     0.002 A 
BRANCH  24  27
ATOM     27  O   UNL d   1     -41.075  14.158  20.907  0.00  0.00    -0.305 OA
BRANCH  27  28
ATOM     28  C   UNL d   1     -41.011  14.912  21.232  0.00  0.00     0.123 C 
ATOM     29  C   UNL d   1     -40.407  15.424  20.980  0.00  0.00     0.029 C 
ENDBRANCH  27  28
ENDBRANCH  24  27
ENDBRANCH  20  21
ENDBRANCH  19  20
ENDBRANCH  18  19
ENDBRANCH  11  16
BRANCH   3  30
ATOM     30  C   UNL d   1     -49.741  14.011  22.414  0.00  0.00     0.288 C 
ATOM     31  N   UNL d   1     -50.062  14.422  23.055  0.00  0.00    -0.207 NA
ATOM     32  O   UNL d   1     -50.088  14.077  21.671  0.00  0.00    -0.265 OA
BRANCH  31  33
ATOM     33  C   UNL d   1     -50.731  14.897  22.950  0.00  0.00     0.085 C 
ATOM     34  C   UNL d   1     -51.064  15.286  23.589  0.00  0.00     0.021 C 
ATOM     35  C   UNL d   1     -51.064  14.981  22.199  0.00  0.00     0.021 C 
ENDBRANCH  31  33
ENDBRANCH   3  30
TORSDOF 8
ENDMDL
