MODEL 1
REMARK VINA RESULT:      67.8      0.000      0.000
REMARK  3 active torsions:
REMARK  status: ('A' for Active; 'I' for Inactive)
REMARK    1  A    between atoms: C_15  and  C_3 
REMARK    2  A    between atoms: C_10  and  N_4 
REMARK    3  A    between atoms: N_6  and  C_5 
ROOT
ATOM      1  C   UNL d   1      46.196 -17.089  42.766  0.00  0.00     0.070 A 
ATOM      2  C   UNL d   1      46.108 -16.323  43.031  0.00  0.00     0.152 A 
ATOM      3  C   UNL d   1      45.975 -17.458  43.832  0.00  0.00     0.023 A 
ATOM      4  N   UNL d   1      45.943 -16.072  43.733  0.00  0.00    -0.290 N 
ATOM      5  C   UNL d   1      46.373 -17.233  41.985  0.00  0.00     0.153 A 
ATOM      6  C   UNL d   1      45.902 -16.748  44.039  0.00  0.00     0.082 A 
ATOM      7  N   UNL d   1      46.197 -15.700  42.515  0.00  0.00    -0.206 NA
ATOM      8  N   UNL d   1      46.463 -16.609  41.468  0.00  0.00    -0.206 NA
ATOM      9  C   UNL d   1      46.375 -15.844  41.733  0.00  0.00     0.202 A 
ENDROOT
BRANCH   5  10
ATOM     10  N   UNL d   1      46.463 -18.023  41.716  0.00  0.00    -0.285 N 
ATOM     11  C   UNL d   1      46.507 -18.177  40.899  0.00  0.00     0.106 A 
ATOM     12  C   UNL d   1      46.595 -18.950  40.627  0.00  0.00     0.118 A 
ATOM     13  C   UNL d   1      46.640 -19.115  39.804  0.00  0.00     0.028 C 
ATOM     14  O   UNL d   1      46.642 -19.590  41.182  0.00  0.00    -0.304 OA
ATOM     15  C   UNL d   1      46.598 -19.436  41.998  0.00  0.00     0.118 A 
ATOM     16  C   UNL d   1      46.508 -18.648  42.266  0.00  0.00     0.106 A 
ATOM     17  C   UNL d   1      46.643 -20.061  42.549  0.00  0.00     0.028 C 
ENDBRANCH   5  10
BRANCH   3  18
ATOM     18  C   UNL d   1      45.922 -18.173  44.200  0.00  0.00     0.002 A 
ATOM     19  C   UNL d   1      45.221 -18.586  44.202  0.00  0.00     0.000 A 
ATOM     20  C   UNL d   1      45.171 -19.305  44.573  0.00  0.00     0.000 A 
ATOM     21  C   UNL d   1      45.823 -19.629  44.953  0.00  0.00     0.000 A 
ATOM     22  C   UNL d   1      46.533 -19.208  44.949  0.00  0.00     0.000 A 
ATOM     23  C   UNL d   1      46.580 -18.487  44.576  0.00  0.00     0.000 A 
ENDBRANCH   3  18
BRANCH   4  24
ATOM     24  C   UNL d   1      45.847 -15.307  44.037  0.00  0.00     0.066 A 
ATOM     25  C   UNL d   1      46.483 -14.893  44.384  0.00  0.00     0.020 A 
ATOM     26  C   UNL d   1      46.386 -14.128  44.687  0.00  0.00     0.031 A 
ATOM     27  C   UNL d   1      45.639 -13.753  44.649  0.00  0.00     0.140 A 
ATOM     28  C   UNL d   1      44.990 -14.150  44.305  0.00  0.00     0.031 A 
ATOM     29  F   UNL d   1      45.543 -12.987  44.952  0.00  0.00    -0.204 F 
ATOM     30  C   UNL d   1      45.095 -14.927  44.000  0.00  0.00     0.020 A 
ENDBRANCH   4  24
TORSDOF 3
ENDMDL
MODEL 2
REMARK VINA RESULT:      68.1      1.292      2.457
REMARK  3 active torsions:
REMARK  status: ('A' for Active; 'I' for Inactive)
REMARK    1  A    between atoms: C_15  and  C_3 
REMARK    2  A    between atoms: C_10  and  N_4 
REMARK    3  A    between atoms: N_6  and  C_5 
ROOT
ATOM      1  C   UNL d   1      45.888 -17.080  43.580  0.00  0.00     0.070 A 
ATOM      2  C   UNL d   1      45.904 -16.281  43.739  0.00  0.00     0.152 A 
ATOM      3  C   UNL d   1      45.345 -16.848  42.593  0.00  0.00     0.023 A 
ATOM      4  N   UNL d   1      45.633 -15.701  43.322  0.00  0.00    -0.290 N 
ATOM      5  C   UNL d   1      46.212 -17.608  44.107  0.00  0.00     0.153 A 
ATOM      6  C   UNL d   1      45.378 -16.127  42.770  0.00  0.00     0.082 A 
ATOM      7  N   UNL d   1      46.244 -16.009  44.426  0.00  0.00    -0.206 NA
ATOM      8  N   UNL d   1      46.553 -17.336  44.795  0.00  0.00    -0.206 NA
ATOM      9  C   UNL d   1      46.569 -16.537  44.954  0.00  0.00     0.202 A 
ENDROOT
BRANCH   5  10
ATOM     10  N   UNL d   1      46.194 -18.431  43.939  0.00  0.00    -0.285 N 
ATOM     11  C   UNL d   1      46.426 -18.703  43.188  0.00  0.00     0.106 A 
ATOM     12  C   UNL d   1      46.411 -19.509  43.016  0.00  0.00     0.118 A 
ATOM     13  C   UNL d   1      46.644 -19.792  42.259  0.00  0.00     0.028 C 
ATOM     14  O   UNL d   1      46.157 -20.062  43.607  0.00  0.00    -0.304 OA
ATOM     15  C   UNL d   1      45.925 -19.790  44.358  0.00  0.00     0.118 A 
ATOM     16  C   UNL d   1      45.944 -18.970  44.525  0.00  0.00     0.106 A 
ATOM     17  C   UNL d   1      45.675 -20.329  44.943  0.00  0.00     0.028 C 
ENDBRANCH   5  10
BRANCH   3  18
ATOM     18  C   UNL d   1      45.055 -17.277  41.975  0.00  0.00     0.002 A 
ATOM     19  C   UNL d   1      44.267 -17.477  41.944  0.00  0.00     0.000 A 
ATOM     20  C   UNL d   1      43.978 -17.907  41.321  0.00  0.00     0.000 A 
ATOM     21  C   UNL d   1      44.473 -18.149  40.712  0.00  0.00     0.000 A 
ATOM     22  C   UNL d   1      45.272 -17.945  40.746  0.00  0.00     0.000 A 
ATOM     23  C   UNL d   1      45.558 -17.513  41.372  0.00  0.00     0.000 A 
ENDBRANCH   3  18
BRANCH   4  24
ATOM     24  C   UNL d   1      45.632 -14.882  43.452  0.00  0.00     0.066 A 
ATOM     25  C   UNL d   1      45.099 -14.528  43.987  0.00  0.00     0.020 A 
ATOM     26  C   UNL d   1      45.098 -13.710  44.117  0.00  0.00     0.031 A 
ATOM     27  C   UNL d   1      45.638 -13.219  43.709  0.00  0.00     0.140 A 
ATOM     28  C   UNL d   1      46.180 -13.555  43.169  0.00  0.00     0.031 A 
ATOM     29  F   UNL d   1      45.637 -12.400  43.839  0.00  0.00    -0.204 F 
ATOM     30  C   UNL d   1      46.176 -14.386  43.042  0.00  0.00     0.020 A 
ENDBRANCH   4  24
TORSDOF 3
ENDMDL
