MODEL 1
REMARK VINA RESULT:     103.0      0.000      0.000
REMARK  6 active torsions:
REMARK  status: ('A' for Active; 'I' for Inactive)
REMARK    1  A    between atoms: C_3  and  N_1 
REMARK       I    between atoms: C_4  and  N_1 
REMARK    2  A    between atoms: C_6  and  N_1 
REMARK    3  A    between atoms: N_2  and  C_3 
REMARK    4  A    between atoms: C_7  and  C_4 
REMARK    5  A    between atoms: O_14  and  C_16 
REMARK    6  A    between atoms: C_24  and  O_14 
ROOT
ATOM      1  N   UNL d   1      59.793  48.583  51.497  0.00  0.00    -0.258 N 
ATOM      2  C   UNL d   1      59.109  49.044  51.581  0.00  0.00     0.266 C 
ATOM      3  O   UNL d   1      59.106  49.701  51.989  0.00  0.00    -0.267 OA
ENDROOT
BRANCH   1   4
ATOM      4  C   UNL d   1      59.778  47.883  51.057  0.00  0.00     0.171 C 
BRANCH   4   5
ATOM      5  N   UNL d   1      60.353  47.544  50.571  0.00  0.00    -0.257 N 
ATOM      6  C   UNL d   1      60.500  46.741  50.460  0.00  0.00     0.266 A 
ATOM      7  O   UNL d   1      60.087  46.116  50.824  0.00  0.00    -0.267 OA
ATOM      8  C   UNL d   1      61.131  46.658  49.922  0.00  0.00     0.063 A 
ATOM      9  C   UNL d   1      61.375  47.416  49.699  0.00  0.00     0.024 A 
ATOM     10  C   UNL d   1      60.902  47.968  50.094  0.00  0.00     0.085 A 
ENDBRANCH   4   5
ENDBRANCH   1   4
BRANCH   1  11
ATOM     11  C   UNL d   1      60.501  48.824  51.856  0.00  0.00     0.068 A 
ATOM     12  C   UNL d   1      60.791  48.414  52.518  0.00  0.00     0.018 A 
ATOM     13  C   UNL d   1      61.492  48.664  52.861  0.00  0.00     0.002 A 
ATOM     14  C   UNL d   1      61.902  49.302  52.565  0.00  0.00     0.000 A 
ATOM     15  C   UNL d   1      61.616  49.706  51.913  0.00  0.00     0.002 A 
ATOM     16  C   UNL d   1      62.607  49.547  52.918  0.00  0.00     0.000 C 
ATOM     17  C   UNL d   1      60.918  49.474  51.554  0.00  0.00     0.018 A 
ENDBRANCH   1  11
BRANCH   2  18
ATOM     18  C   UNL d   1      58.413  48.794  51.219  0.00  0.00     0.057 A 
ATOM     19  C   UNL d   1      58.158  48.017  51.307  0.00  0.00     0.007 A 
ATOM     20  C   UNL d   1      57.468  47.761  50.950  0.00  0.00     0.025 A 
ATOM     21  C   UNL d   1      57.019  48.287  50.496  0.00  0.00     0.100 A 
ATOM     22  C   UNL d   1      57.280  49.079  50.407  0.00  0.00     0.025 A 
ATOM     23  C   UNL d   1      57.970  49.323  50.767  0.00  0.00     0.007 A 
BRANCH  21  24
ATOM     24  O   UNL d   1      56.339  48.037  50.144  0.00  0.00    -0.307 OA
BRANCH  24  25
ATOM     25  C   UNL d   1      56.245  48.091  49.324  0.00  0.00     0.100 C 
ATOM     26  C   UNL d   1      56.035  48.813  48.987  0.00  0.00     0.027 C 
ATOM     27  C   UNL d   1      56.360  47.430  48.845  0.00  0.00     0.027 C 
ENDBRANCH  24  25
ENDBRANCH  21  24
ENDBRANCH   2  18
TORSDOF 6
ENDMDL
MODEL 2
REMARK VINA RESULT:     105.9      1.407      4.212
REMARK  6 active torsions:
REMARK  status: ('A' for Active; 'I' for Inactive)
REMARK    1  A    between atoms: C_3  and  N_1 
REMARK       I    between atoms: C_4  and  N_1 
REMARK    2  A    between atoms: C_6  and  N_1 
REMARK    3  A    between atoms: N_2  and  C_3 
REMARK    4  A    between atoms: C_7  and  C_4 
REMARK    5  A    between atoms: O_14  and  C_16 
REMARK    6  A    between atoms: C_24  and  O_14 
ROOT
ATOM      1  N   UNL d   1      59.529  48.106  50.620  0.00  0.00    -0.258 N 
ATOM      2  C   UNL d   1      59.522  47.289  50.480  0.00  0.00     0.266 C 
ATOM      3  O   UNL d   1      58.864  46.883  50.461  0.00  0.00    -0.267 OA
ENDROOT
BRANCH   1   4
ATOM      4  C   UNL d   1      60.242  48.524  50.638  0.00  0.00     0.171 C 
BRANCH   4   5
ATOM      5  N   UNL d   1      60.583  48.976  51.240  0.00  0.00    -0.257 N 
ATOM      6  C   UNL d   1      61.348  49.282  51.260  0.00  0.00     0.266 A 
ATOM      7  O   UNL d   1      61.924  49.189  50.668  0.00  0.00    -0.267 OA
ATOM      8  C   UNL d   1      61.448  49.700  51.975  0.00  0.00     0.063 A 
ATOM      9  C   UNL d   1      60.739  49.651  52.397  0.00  0.00     0.024 A 
ATOM     10  C   UNL d   1      60.200  49.207  51.954  0.00  0.00     0.085 A 
ENDBRANCH   4   5
ENDBRANCH   1   4
BRANCH   1  11
ATOM     11  C   UNL d   1      58.816  48.511  50.744  0.00  0.00     0.068 A 
ATOM     12  C   UNL d   1      58.753  49.314  50.540  0.00  0.00     0.018 A 
ATOM     13  C   UNL d   1      58.041  49.699  50.668  0.00  0.00     0.002 A 
ATOM     14  C   UNL d   1      57.402  49.310  50.989  0.00  0.00     0.000 A 
ATOM     15  C   UNL d   1      57.465  48.518  51.190  0.00  0.00     0.002 A 
ATOM     16  C   UNL d   1      56.690  49.706  51.115  0.00  0.00     0.000 C 
ATOM     17  C   UNL d   1      58.166  48.113  51.071  0.00  0.00     0.018 A 
ENDBRANCH   1  11
BRANCH   2  18
ATOM     18  C   UNL d   1      60.237  46.900  50.359  0.00  0.00     0.057 A 
ATOM     19  C   UNL d   1      60.515  46.362  50.917  0.00  0.00     0.007 A 
ATOM     20  C   UNL d   1      61.225  45.972  50.804  0.00  0.00     0.025 A 
ATOM     21  C   UNL d   1      61.670  46.116  50.122  0.00  0.00     0.100 A 
ATOM     22  C   UNL d   1      61.386  46.664  49.554  0.00  0.00     0.025 A 
ATOM     23  C   UNL d   1      60.678  47.047  49.678  0.00  0.00     0.007 A 
BRANCH  21  24
ATOM     24  O   UNL d   1      62.370  45.732  50.009  0.00  0.00    -0.307 OA
BRANCH  24  25
ATOM     25  C   UNL d   1      62.523  45.340  49.297  0.00  0.00     0.100 C 
ATOM     26  C   UNL d   1      63.155  45.583  48.828  0.00  0.00     0.027 C 
ATOM     27  C   UNL d   1      62.049  44.710  49.056  0.00  0.00     0.027 C 
ENDBRANCH  24  25
ENDBRANCH  21  24
ENDBRANCH   2  18
TORSDOF 6
ENDMDL
