MODEL 1
REMARK VINA RESULT:      18.4      0.000      0.000
REMARK  3 active torsions:
REMARK  status: ('A' for Active; 'I' for Inactive)
REMARK    1  A    between atoms: C_3  and  C_5 
REMARK    2  A    between atoms: O_13  and  C_6 
REMARK    3  A    between atoms: O_15  and  C_8 
ROOT
ATOM      1  C   UNL d   1     -54.712-101.445 -38.107  0.00  0.00     0.021 A 
ATOM      2  C   UNL d   1     -54.713-101.945 -37.457  0.00  0.00     0.028 A 
ATOM      3  C   UNL d   1     -54.712-101.645 -36.696  0.00  0.00     0.116 A 
ATOM      4  C   UNL d   1     -54.712-100.828 -36.580  0.00  0.00     0.116 A 
ATOM      5  C   UNL d   1     -54.712-100.620 -37.990  0.00  0.00     0.004 A 
ATOM      6  C   UNL d   1     -54.712-100.312 -37.226  0.00  0.00     0.026 A 
ENDROOT
BRANCH   1   7
ATOM      7  C   UNL d   1     -54.712-101.754 -38.869  0.00  0.00     0.103 A 
ATOM      8  N   UNL d   1     -54.712-102.570 -38.985  0.00  0.00    -0.145 NA
ATOM      9  N   UNL d   1     -54.712-102.879 -39.749  0.00  0.00    -0.106 NA
ATOM     10  C   UNL d   1     -54.712-102.370 -40.396  0.00  0.00     0.297 A 
ATOM     11  O   UNL d   1     -54.712-102.678 -41.168  0.00  0.00    -0.264 OA
ATOM     12  C   UNL d   1     -54.713-101.546 -40.279  0.00  0.00     0.066 A 
ATOM     13  C   UNL d   1     -54.713-101.237 -39.516  0.00  0.00     0.026 A 
ENDBRANCH   1   7
BRANCH   3  14
ATOM     14  O   UNL d   1     -54.713-102.157 -36.048  0.00  0.00    -0.326 OA
ATOM     15  C   UNL d   1     -55.237-102.795 -36.029  0.00  0.00     0.181 C 
ENDBRANCH   3  14
BRANCH   4  16
ATOM     16  O   UNL d   1     -54.712-100.520 -35.812  0.00  0.00    -0.326 OA
ATOM     17  C   UNL d   1     -54.810 -99.711 -35.694  0.00  0.00     0.181 C 
ENDBRANCH   4  16
TORSDOF 3
ENDMDL
