MODEL 1
REMARK VINA RESULT:      71.5      0.000      0.000
REMARK  11 active torsions:
REMARK  status: ('A' for Active; 'I' for Inactive)
REMARK    1  A    between atoms: C_2  and  N_1 
REMARK    2  A    between atoms: C_4  and  C_2 
REMARK    3  A    between atoms: C_5  and  C_2 
REMARK    4  A    between atoms: C_3  and  N_6 
REMARK    5  A    between atoms: N_15  and  C_3 
REMARK    6  A    between atoms: N_6  and  C_4 
REMARK    7  A    between atoms: C_16  and  N_7 
REMARK    8  A    between atoms: C_20  and  N_15 
REMARK    9  A    between atoms: C_19  and  C_16 
REMARK   10  A    between atoms: C_23  and  C_20 
REMARK   11  A    between atoms: C_22  and  C_23 
ROOT
ATOM      1  C   UNL d   1     -55.180-101.124 -43.828  0.00  0.00     0.088 C 
ENDROOT
BRANCH   1   2
ATOM      2  N   UNL d   1     -55.100-101.557 -43.131  0.00  0.00    -0.300 N 
ATOM      3  C   UNL d   1     -55.330-101.222 -42.411  0.00  0.00     0.100 A 
ATOM      4  C   UNL d   1     -55.250-101.656 -41.714  0.00  0.00     0.100 A 
ATOM      5  N   UNL d   1     -54.942-102.419 -41.731  0.00  0.00    -0.300 N 
ATOM      6  C   UNL d   1     -54.713-102.750 -42.448  0.00  0.00     0.100 A 
ATOM      7  C   UNL d   1     -54.794-102.317 -43.146  0.00  0.00     0.100 A 
BRANCH   5   8
ATOM      8  C   UNL d   1     -54.863-102.849 -41.031  0.00  0.00     0.080 C 
BRANCH   8   9
ATOM      9  C   UNL d   1     -55.018-102.483 -40.303  0.00  0.00     0.018 A 
ATOM     10  C   UNL d   1     -54.715-101.746 -40.143  0.00  0.00     0.002 A 
ATOM     11  C   UNL d   1     -54.867-101.378 -39.419  0.00  0.00     0.000 A 
ATOM     12  C   UNL d   1     -55.328-101.770 -38.867  0.00  0.00     0.000 A 
ATOM     13  C   UNL d   1     -55.641-102.522 -39.022  0.00  0.00     0.000 A 
ATOM     14  C   UNL d   1     -55.477-102.874 -39.754  0.00  0.00     0.002 A 
ENDBRANCH   8   9
ENDBRANCH   5   8
ENDBRANCH   1   2
BRANCH   1  15
ATOM     15  C   UNL d   1     -55.135-100.305 -43.819  0.00  0.00     0.100 C 
ATOM     16  C   UNL d   1     -54.836 -99.910 -44.467  0.00  0.00     0.022 C 
BRANCH  15  17
ATOM     17  N   UNL d   1     -55.388 -99.898 -43.160  0.00  0.00    -0.216 NA
BRANCH  17  18
ATOM     18  C   UNL d   1     -56.036 -99.385 -43.214  0.00  0.00     0.221 C 
ATOM     19  S   UNL d   1     -56.261 -98.952 -42.551  0.00  0.00    -0.037 SA
BRANCH  18  20
ATOM     20  N   UNL d   1     -56.442 -99.315 -43.917  0.00  0.00    -0.216 NA
BRANCH  20  21
ATOM     21  C   UNL d   1     -57.056 -98.777 -43.998  0.00  0.00     0.102 C 
BRANCH  21  22
ATOM     22  C   UNL d   1     -57.833 -99.028 -43.856  0.00  0.00     0.021 C 
BRANCH  22  23
ATOM     23  C   UNL d   1     -58.377 -98.997 -44.462  0.00  0.00     0.002 A 
ATOM     24  C   UNL d   1     -59.171 -99.160 -44.304  0.00  0.00     0.000 A 
ATOM     25  C   UNL d   1     -59.725 -99.128 -44.916  0.00  0.00     0.000 A 
ATOM     26  C   UNL d   1     -59.490 -98.937 -45.674  0.00  0.00     0.000 A 
ATOM     27  C   UNL d   1     -58.690 -98.775 -45.828  0.00  0.00     0.000 A 
ATOM     28  C   UNL d   1     -58.145 -98.806 -45.223  0.00  0.00     0.000 A 
ENDBRANCH  22  23
ENDBRANCH  21  22
ENDBRANCH  20  21
ENDBRANCH  18  20
ENDBRANCH  17  18
ENDBRANCH  15  17
ENDBRANCH   1  15
BRANCH   1  29
ATOM     29  C   UNL d   1     -55.308-101.520 -44.541  0.00  0.00     0.047 A 
ATOM     30  S   UNL d   1     -55.957-101.999 -44.723  0.00  0.00    -0.085 SA
ATOM     31  C   UNL d   1     -55.858-102.279 -45.487  0.00  0.00     0.035 A 
ATOM     32  C   UNL d   1     -55.150-101.976 -45.783  0.00  0.00     0.007 A 
ATOM     33  C   UNL d   1     -54.810-101.506 -45.196  0.00  0.00     0.009 A 
ENDBRANCH   1  29
TORSDOF 11
ENDMDL
