MODEL 1
REMARK VINA RESULT:      -8.1      0.000      0.000
REMARK  7 active torsions:
REMARK  status: ('A' for Active; 'I' for Inactive)
REMARK    1  A    between atoms: S_2  and  C_1 
REMARK    2  A    between atoms: C_9  and  S_2 
REMARK    3  A    between atoms: C_10  and  N_3 
REMARK    4  A    between atoms: C_8  and  C_10 
REMARK       I    between atoms: N_15  and  C_8 
REMARK    5  A    between atoms: C_20  and  N_15 
REMARK    6  A    between atoms: O_32  and  C_21 
REMARK    7  A    between atoms: C_33  and  C_27 
ROOT
ATOM      1  C   UNL d   1      51.249  34.204  52.610  0.00  0.00     0.144 A 
ATOM      2  N   UNL d   1      52.462  33.461  52.773  0.00  0.00    -0.299 N 
ATOM      3  C   UNL d   1      51.502  34.734  53.198  0.00  0.00     0.209 A 
ATOM      4  C   UNL d   1      51.729  33.568  52.397  0.00  0.00     0.095 A 
ATOM      5  C   UNL d   1      52.230  34.624  53.568  0.00  0.00     0.058 A 
ATOM      6  C   UNL d   1      52.710  33.988  53.355  0.00  0.00     0.068 A 
ATOM      7  C   UNL d   1      53.437  33.878  53.725  0.00  0.00     0.020 A 
ATOM      8  C   UNL d   1      52.477  35.151  54.150  0.00  0.00     0.029 A 
ATOM      9  O   UNL d   1      51.020  35.374  53.411  0.00  0.00    -0.286 OA
ATOM     10  C   UNL d   1      53.208  35.043  54.522  0.00  0.00     0.094 A 
ATOM     11  C   UNL d   1      53.688  34.406  54.310  0.00  0.00     0.026 A 
ENDROOT
BRANCH   2  12
ATOM     12  C   UNL d   1      52.942  32.824  52.561  0.00  0.00     0.144 C 
BRANCH  12  13
ATOM     13  C   UNL d   1      52.838  32.091  52.920  0.00  0.00     0.297 C 
ATOM     14  N   UNL d   1      53.466  31.558  52.961  0.00  0.00    -0.207 NA
ATOM     15  O   UNL d   1      52.105  31.891  53.238  0.00  0.00    -0.264 OA
BRANCH  14  16
ATOM     16  C   UNL d   1      53.361  30.824  53.321  0.00  0.00     0.085 A 
ATOM     17  C   UNL d   1      53.663  30.689  54.074  0.00  0.00     0.019 A 
ATOM     18  C   UNL d   1      53.558  29.956  54.433  0.00  0.00     0.002 A 
ATOM     19  C   UNL d   1      53.149  29.357  54.038  0.00  0.00     0.000 A 
ATOM     20  C   UNL d   1      52.845  29.495  53.281  0.00  0.00     0.002 A 
ATOM     21  C   UNL d   1      52.951  30.228  52.923  0.00  0.00     0.019 A 
BRANCH  19  22
ATOM     22  C   UNL d   1      53.039  28.618  54.393  0.00  0.00     0.000 C 
ATOM     23  C   UNL d   1      53.299  28.498  55.166  0.00  0.00     0.000 C 
ENDBRANCH  19  22
ENDBRANCH  14  16
ENDBRANCH  12  13
ENDBRANCH   2  12
BRANCH   1  24
ATOM     24  S   UNL d   1      50.519  34.313  52.238  0.00  0.00     0.214 S 
ATOM     25  O   UNL d   1      50.904  34.494  51.532  0.00  0.00    -0.217 OA
ATOM     26  O   UNL d   1      50.124  34.132  52.949  0.00  0.00    -0.217 OA
BRANCH  24  27
ATOM     27  C   UNL d   1      49.787  34.424  51.861  0.00  0.00     0.088 A 
ATOM     28  C   UNL d   1      49.126  34.664  52.295  0.00  0.00     0.014 A 
ATOM     29  C   UNL d   1      48.403  34.772  51.918  0.00  0.00     0.030 A 
ATOM     30  C   UNL d   1      48.329  34.643  51.107  0.00  0.00     0.140 A 
ATOM     31  C   UNL d   1      48.993  34.401  50.672  0.00  0.00     0.030 A 
ATOM     32  F   UNL d   1      47.601  34.752  50.729  0.00  0.00    -0.204 F 
ATOM     33  C   UNL d   1      49.717  34.293  51.050  0.00  0.00     0.014 A 
ENDBRANCH  24  27
ENDBRANCH   1  24
BRANCH  10  34
ATOM     34  O   UNL d   1      53.448  35.579  55.107  0.00  0.00    -0.328 OA
ATOM     35  C   UNL d   1      53.556  35.312  55.886  0.00  0.00     0.181 C 
ENDBRANCH  10  34
TORSDOF 7
ENDMDL
MODEL 2
REMARK VINA RESULT:      -7.6      2.031      3.946
REMARK  7 active torsions:
REMARK  status: ('A' for Active; 'I' for Inactive)
REMARK    1  A    between atoms: S_2  and  C_1 
REMARK    2  A    between atoms: C_9  and  S_2 
REMARK    3  A    between atoms: C_10  and  N_3 
REMARK    4  A    between atoms: C_8  and  C_10 
REMARK       I    between atoms: N_15  and  C_8 
REMARK    5  A    between atoms: C_20  and  N_15 
REMARK    6  A    between atoms: O_32  and  C_21 
REMARK    7  A    between atoms: C_33  and  C_27 
ROOT
ATOM      1  C   UNL d   1      52.557  33.732  53.661  0.00  0.00     0.144 A 
ATOM      2  N   UNL d   1      51.760  32.829  52.887  0.00  0.00    -0.299 N 
ATOM      3  C   UNL d   1      51.993  34.329  53.536  0.00  0.00     0.209 A 
ATOM      4  C   UNL d   1      52.441  32.983  53.337  0.00  0.00     0.095 A 
ATOM      5  C   UNL d   1      51.318  34.172  53.089  0.00  0.00     0.058 A 
ATOM      6  C   UNL d   1      51.202  33.423  52.764  0.00  0.00     0.068 A 
ATOM      7  C   UNL d   1      50.529  33.267  52.318  0.00  0.00     0.020 A 
ATOM      8  C   UNL d   1      50.762  34.766  52.967  0.00  0.00     0.029 A 
ATOM      9  O   UNL d   1      52.110  35.082  53.862  0.00  0.00    -0.286 OA
ATOM     10  C   UNL d   1      50.084  34.611  52.518  0.00  0.00     0.094 A 
ATOM     11  C   UNL d   1      49.968  33.861  52.194  0.00  0.00     0.026 A 
ENDROOT
BRANCH   2  12
ATOM     12  C   UNL d   1      51.643  32.080  52.563  0.00  0.00     0.144 C 
BRANCH  12  13
ATOM     13  C   UNL d   1      51.889  31.410  52.973  0.00  0.00     0.297 C 
ATOM     14  N   UNL d   1      52.584  31.023  52.755  0.00  0.00    -0.207 NA
ATOM     15  O   UNL d   1      51.439  31.126  53.602  0.00  0.00    -0.264 OA
BRANCH  14  16
ATOM     16  C   UNL d   1      52.829  30.353  53.166  0.00  0.00     0.085 A 
ATOM     17  C   UNL d   1      52.394  29.657  53.112  0.00  0.00     0.019 A 
ATOM     18  C   UNL d   1      52.639  28.986  53.523  0.00  0.00     0.002 A 
ATOM     19  C   UNL d   1      53.320  29.013  53.988  0.00  0.00     0.000 A 
ATOM     20  C   UNL d   1      53.757  29.714  54.041  0.00  0.00     0.002 A 
ATOM     21  C   UNL d   1      53.511  30.383  53.630  0.00  0.00     0.019 A 
BRANCH  19  22
ATOM     22  C   UNL d   1      53.572  28.344  54.404  0.00  0.00     0.000 C 
ATOM     23  C   UNL d   1      53.419  28.289  55.212  0.00  0.00     0.000 C 
ENDBRANCH  19  22
ENDBRANCH  14  16
ENDBRANCH  12  13
ENDBRANCH   2  12
BRANCH   1  24
ATOM     24  S   UNL d   1      53.234  33.888  54.110  0.00  0.00     0.214 S 
ATOM     25  O   UNL d   1      52.817  33.720  54.800  0.00  0.00    -0.217 OA
ATOM     26  O   UNL d   1      53.662  34.058  53.414  0.00  0.00    -0.217 OA
BRANCH  24  27
ATOM     27  C   UNL d   1      53.912  34.043  54.563  0.00  0.00     0.088 A 
ATOM     28  C   UNL d   1      54.584  33.566  54.488  0.00  0.00     0.014 A 
ATOM     29  C   UNL d   1      55.254  33.724  54.939  0.00  0.00     0.030 A 
ATOM     30  C   UNL d   1      55.264  34.356  55.468  0.00  0.00     0.140 A 
ATOM     31  C   UNL d   1      54.590  34.835  55.543  0.00  0.00     0.030 A 
ATOM     32  F   UNL d   1      55.939  34.513  55.921  0.00  0.00    -0.204 F 
ATOM     33  C   UNL d   1      53.919  34.676  55.091  0.00  0.00     0.014 A 
ENDBRANCH  24  27
ENDBRANCH   1  24
BRANCH  10  34
ATOM     34  O   UNL d   1      49.529  35.216  52.401  0.00  0.00    -0.328 OA
ATOM     35  C   UNL d   1      48.820  35.047  52.003  0.00  0.00     0.181 C 
ENDBRANCH  10  34
TORSDOF 7
ENDMDL
MODEL 3
REMARK VINA RESULT:      -7.3      1.834      5.057
REMARK  7 active torsions:
REMARK  status: ('A' for Active; 'I' for Inactive)
REMARK    1  A    between atoms: S_2  and  C_1 
REMARK    2  A    between atoms: C_9  and  S_2 
REMARK    3  A    between atoms: C_10  and  N_3 
REMARK    4  A    between atoms: C_8  and  C_10 
REMARK       I    between atoms: N_15  and  C_8 
REMARK    5  A    between atoms: C_20  and  N_15 
REMARK    6  A    between atoms: O_32  and  C_21 
REMARK    7  A    between atoms: C_33  and  C_27 
ROOT
ATOM      1  C   UNL d   1      52.636  32.580  53.286  0.00  0.00     0.144 A 
ATOM      2  N   UNL d   1      52.146  33.751  52.624  0.00  0.00    -0.299 N 
ATOM      3  C   UNL d   1      52.972  33.060  53.875  0.00  0.00     0.209 A 
ATOM      4  C   UNL d   1      52.223  32.925  52.661  0.00  0.00     0.095 A 
ATOM      5  C   UNL d   1      52.893  33.880  53.834  0.00  0.00     0.058 A 
ATOM      6  C   UNL d   1      52.480  34.225  53.209  0.00  0.00     0.068 A 
ATOM      7  C   UNL d   1      52.402  35.043  53.169  0.00  0.00     0.020 A 
ATOM      8  C   UNL d   1      53.227  34.352  54.419  0.00  0.00     0.029 A 
ATOM      9  O   UNL d   1      53.386  32.713  54.503  0.00  0.00    -0.286 OA
ATOM     10  C   UNL d   1      53.149  35.175  54.380  0.00  0.00     0.094 A 
ATOM     11  C   UNL d   1      52.736  35.520  53.755  0.00  0.00     0.026 A 
ENDROOT
BRANCH   2  12
ATOM     12  C   UNL d   1      51.733  34.096  51.999  0.00  0.00     0.144 C 
BRANCH  12  13
ATOM     13  C   UNL d   1      50.913  34.155  52.028  0.00  0.00     0.297 C 
ATOM     14  N   UNL d   1      50.521  34.709  51.559  0.00  0.00    -0.207 NA
ATOM     15  O   UNL d   1      50.484  33.660  52.528  0.00  0.00    -0.264 OA
BRANCH  14  16
ATOM     16  C   UNL d   1      49.700  34.767  51.589  0.00  0.00     0.085 A 
ATOM     17  C   UNL d   1      49.336  35.102  52.247  0.00  0.00     0.019 A 
ATOM     18  C   UNL d   1      48.515  35.160  52.277  0.00  0.00     0.002 A 
ATOM     19  C   UNL d   1      48.058  34.883  51.649  0.00  0.00     0.000 A 
ATOM     20  C   UNL d   1      48.426  34.547  50.988  0.00  0.00     0.002 A 
ATOM     21  C   UNL d   1      49.246  34.490  50.958  0.00  0.00     0.019 A 
BRANCH  19  22
ATOM     22  C   UNL d   1      47.233  34.938  51.671  0.00  0.00     0.000 C 
ATOM     23  C   UNL d   1      46.879  35.681  51.720  0.00  0.00     0.000 C 
ENDBRANCH  19  22
ENDBRANCH  14  16
ENDBRANCH  12  13
ENDBRANCH   2  12
BRANCH   1  24
ATOM     24  S   UNL d   1      52.714  31.758  53.325  0.00  0.00     0.214 S 
ATOM     25  O   UNL d   1      52.168  31.734  53.942  0.00  0.00    -0.217 OA
ATOM     26  O   UNL d   1      53.267  31.775  52.702  0.00  0.00    -0.217 OA
BRANCH  24  27
ATOM     27  C   UNL d   1      52.790  30.932  53.368  0.00  0.00     0.088 A 
ATOM     28  C   UNL d   1      53.534  30.585  53.468  0.00  0.00     0.014 A 
ATOM     29  C   UNL d   1      53.605  29.767  53.509  0.00  0.00     0.030 A 
ATOM     30  C   UNL d   1      52.939  29.284  53.451  0.00  0.00     0.140 A 
ATOM     31  C   UNL d   1      52.193  29.632  53.350  0.00  0.00     0.030 A 
ATOM     32  F   UNL d   1      53.012  28.461  53.493  0.00  0.00    -0.204 F 
ATOM     33  C   UNL d   1      52.122  30.452  53.309  0.00  0.00     0.014 A 
ENDBRANCH  24  27
ENDBRANCH   1  24
BRANCH  10  34
ATOM     34  O   UNL d   1      53.489  35.642  54.975  0.00  0.00    -0.328 OA
ATOM     35  C   UNL d   1      53.225  36.422  55.082  0.00  0.00     0.181 C 
ENDBRANCH  10  34
TORSDOF 7
ENDMDL
MODEL 4
REMARK VINA RESULT:      -6.8      2.258      5.579
REMARK  7 active torsions:
REMARK  status: ('A' for Active; 'I' for Inactive)
REMARK    1  A    between atoms: S_2  and  C_1 
REMARK    2  A    between atoms: C_9  and  S_2 
REMARK    3  A    between atoms: C_10  and  N_3 
REMARK    4  A    between atoms: C_8  and  C_10 
REMARK       I    between atoms: N_15  and  C_8 
REMARK    5  A    between atoms: C_20  and  N_15 
REMARK    6  A    between atoms: O_32  and  C_21 
REMARK    7  A    between atoms: C_33  and  C_27 
ROOT
ATOM      1  C   UNL d   1      53.595  32.156  53.884  0.00  0.00     0.144 A 
ATOM      2  N   UNL d   1      52.517  31.745  53.036  0.00  0.00    -0.299 N 
ATOM      3  C   UNL d   1      53.731  31.362  54.086  0.00  0.00     0.209 A 
ATOM      4  C   UNL d   1      52.988  32.348  53.359  0.00  0.00     0.095 A 
ATOM      5  C   UNL d   1      53.261  30.767  53.763  0.00  0.00     0.058 A 
ATOM      6  C   UNL d   1      52.655  30.958  53.238  0.00  0.00     0.068 A 
ATOM      7  C   UNL d   1      52.186  30.364  52.915  0.00  0.00     0.020 A 
ATOM      8  C   UNL d   1      53.400  29.981  53.965  0.00  0.00     0.029 A 
ATOM      9  O   UNL d   1      54.341  31.169  54.614  0.00  0.00    -0.286 OA
ATOM     10  C   UNL d   1      52.929  29.382  53.642  0.00  0.00     0.094 A 
ATOM     11  C   UNL d   1      52.323  29.574  53.117  0.00  0.00     0.026 A 
ENDROOT
BRANCH   2  12
ATOM     12  C   UNL d   1      51.910  31.936  52.511  0.00  0.00     0.144 C 
BRANCH  12  13
ATOM     13  C   UNL d   1      51.359  32.514  52.710  0.00  0.00     0.297 C 
ATOM     14  N   UNL d   1      51.310  33.209  52.267  0.00  0.00    -0.207 NA
ATOM     15  O   UNL d   1      50.857  32.397  53.352  0.00  0.00    -0.264 OA
BRANCH  14  16
ATOM     16  C   UNL d   1      50.758  33.786  52.467  0.00  0.00     0.085 A 
ATOM     17  C   UNL d   1      50.087  33.891  52.003  0.00  0.00     0.019 A 
ATOM     18  C   UNL d   1      49.535  34.469  52.203  0.00  0.00     0.002 A 
ATOM     19  C   UNL d   1      49.655  34.941  52.868  0.00  0.00     0.000 A 
ATOM     20  C   UNL d   1      50.330  34.835  53.334  0.00  0.00     0.002 A 
ATOM     21  C   UNL d   1      50.881  34.257  53.133  0.00  0.00     0.019 A 
BRANCH  19  22
ATOM     22  C   UNL d   1      49.106  35.524  53.076  0.00  0.00     0.000 C 
ATOM     23  C   UNL d   1      48.461  35.665  52.582  0.00  0.00     0.000 C 
ENDBRANCH  19  22
ENDBRANCH  14  16
ENDBRANCH  12  13
ENDBRANCH   2  12
BRANCH   1  24
ATOM     24  S   UNL d   1      54.065  32.754  54.208  0.00  0.00     0.214 S 
ATOM     25  O   UNL d   1      53.624  32.726  54.903  0.00  0.00    -0.217 OA
ATOM     26  O   UNL d   1      54.515  32.787  53.506  0.00  0.00    -0.217 OA
BRANCH  24  27
ATOM     27  C   UNL d   1      54.536  33.355  54.535  0.00  0.00     0.088 A 
ATOM     28  C   UNL d   1      55.307  33.476  54.265  0.00  0.00     0.014 A 
ATOM     29  C   UNL d   1      55.770  34.072  54.592  0.00  0.00     0.030 A 
ATOM     30  C   UNL d   1      55.472  34.554  55.192  0.00  0.00     0.140 A 
ATOM     31  C   UNL d   1      54.697  34.432  55.463  0.00  0.00     0.030 A 
ATOM     32  F   UNL d   1      55.939  35.153  55.520  0.00  0.00    -0.204 F 
ATOM     33  C   UNL d   1      54.234  33.835  55.135  0.00  0.00     0.014 A 
ENDBRANCH  24  27
ENDBRANCH   1  24
BRANCH  10  34
ATOM     34  O   UNL d   1      53.077  28.594  53.852  0.00  0.00    -0.328 OA
ATOM     35  C   UNL d   1      53.293  28.413  54.633  0.00  0.00     0.181 C 
ENDBRANCH  10  34
TORSDOF 7
ENDMDL
