MODEL 1
REMARK VINA RESULT:      -5.4      0.000      0.000
REMARK  4 active torsions:
REMARK  status: ('A' for Active; 'I' for Inactive)
REMARK    1  A    between atoms: N_5  and  C_1 
REMARK    2  A    between atoms: N_9  and  N_5 
REMARK    3  A    between atoms: C_7  and  C_8 
REMARK    4  A    between atoms: C_12  and  N_9 
ROOT
ATOM      1  N   UNL d   1      57.807  -0.523  30.087  0.00  0.00    -0.146 NA
ENDROOT
BRANCH   1   2
ATOM      2  C   UNL d   1      58.473  -0.702  29.550  0.00  0.00     0.122 A 
ATOM      3  C   UNL d   1      58.936  -0.150  29.198  0.00  0.00     0.101 A 
ATOM      4  N   UNL d   1      59.507  -0.543  28.730  0.00  0.00    -0.244 NA
ATOM      5  C   UNL d   1      58.875   0.664  29.273  0.00  0.00     0.022 C 
ATOM      6  C   UNL d   1      59.381  -1.338  28.804  0.00  0.00     0.083 A 
ATOM      7  C   UNL d   1      58.728  -1.452  29.321  0.00  0.00     0.039 A 
ATOM      8  C   UNL d   1      59.753  -2.010  28.485  0.00  0.00     0.019 A 
ATOM      9  C   UNL d   1      58.459  -2.222  29.511  0.00  0.00     0.003 A 
ATOM     10  C   UNL d   1      58.840  -2.883  29.186  0.00  0.00     0.000 A 
ATOM     11  C   UNL d   1      59.498  -2.782  28.664  0.00  0.00     0.002 A 
ENDBRANCH   1   2
BRANCH   1  12
ATOM     12  N   UNL d   1      57.929  -0.470  30.906  0.00  0.00    -0.148 NA
BRANCH  12  13
ATOM     13  C   UNL d   1      57.306  -0.279  31.404  0.00  0.00     0.103 A 
ATOM     14  C   UNL d   1      56.944  -0.845  31.840  0.00  0.00     0.027 A 
ATOM     15  C   UNL d   1      56.321  -0.654  32.339  0.00  0.00     0.066 A 
ATOM     16  C   UNL d   1      56.072   0.110  32.389  0.00  0.00     0.006 A 
ATOM     17  C   UNL d   1      56.434   0.682  31.952  0.00  0.00     0.002 A 
ATOM     18  C   UNL d   1      57.048   0.486  31.463  0.00  0.00     0.021 A 
BRANCH  15  19
ATOM     19  C   UNL d   1      55.922  -1.207  32.804  0.00  0.00     0.211 C 
ATOM     20  O   UNL d   1      56.276  -1.949  32.953  0.00  0.00    -0.644 OA
ATOM     21  O   UNL d   1      55.169  -1.030  33.124  0.00  0.00    -0.644 OA
ENDBRANCH  15  19
ENDBRANCH  12  13
ENDBRANCH   1  12
TORSDOF 4
ENDMDL
MODEL 2
REMARK VINA RESULT:      -4.3      1.574      1.785
REMARK  4 active torsions:
REMARK  status: ('A' for Active; 'I' for Inactive)
REMARK    1  A    between atoms: N_5  and  C_1 
REMARK    2  A    between atoms: N_9  and  N_5 
REMARK    3  A    between atoms: C_7  and  C_8 
REMARK    4  A    between atoms: C_12  and  N_9 
ROOT
ATOM      1  N   UNL d   1      58.165   0.622  30.576  0.00  0.00    -0.146 NA
ENDROOT
BRANCH   1   2
ATOM      2  C   UNL d   1      58.659   0.562  29.857  0.00  0.00     0.122 A 
ATOM      3  C   UNL d   1      58.378   0.592  29.106  0.00  0.00     0.101 A 
ATOM      4  N   UNL d   1      59.023   0.515  28.579  0.00  0.00    -0.244 NA
ATOM      5  C   UNL d   1      57.596   0.682  28.877  0.00  0.00     0.022 C 
ATOM      6  C   UNL d   1      59.695   0.439  29.022  0.00  0.00     0.083 A 
ATOM      7  C   UNL d   1      59.478   0.467  29.834  0.00  0.00     0.039 A 
ATOM      8  C   UNL d   1      60.500   0.344  28.833  0.00  0.00     0.019 A 
ATOM      9  C   UNL d   1      60.056   0.402  30.436  0.00  0.00     0.003 A 
ATOM     10  C   UNL d   1      60.854   0.308  30.232  0.00  0.00     0.000 A 
ATOM     11  C   UNL d   1      61.086   0.279  29.420  0.00  0.00     0.002 A 
ENDBRANCH   1   2
BRANCH   1  12
ATOM     12  N   UNL d   1      57.818  -0.055  30.906  0.00  0.00    -0.148 NA
BRANCH  12  13
ATOM     13  C   UNL d   1      57.413  -0.006  31.618  0.00  0.00     0.103 A 
ATOM     14  C   UNL d   1      56.900  -0.580  31.836  0.00  0.00     0.027 A 
ATOM     15  C   UNL d   1      56.495  -0.531  32.549  0.00  0.00     0.066 A 
ATOM     16  C   UNL d   1      56.616   0.102  33.031  0.00  0.00     0.006 A 
ATOM     17  C   UNL d   1      57.132   0.682  32.814  0.00  0.00     0.002 A 
ATOM     18  C   UNL d   1      57.527   0.626  32.110  0.00  0.00     0.021 A 
BRANCH  15  19
ATOM     19  C   UNL d   1      55.959  -1.102  32.810  0.00  0.00     0.211 C 
ATOM     20  O   UNL d   1      55.165  -0.883  32.951  0.00  0.00    -0.644 OA
ATOM     21  O   UNL d   1      56.205  -1.892  32.933  0.00  0.00    -0.644 OA
ENDBRANCH  15  19
ENDBRANCH  12  13
ENDBRANCH   1  12
TORSDOF 4
ENDMDL
MODEL 3
REMARK VINA RESULT:      -4.3      1.835      4.215
REMARK  4 active torsions:
REMARK  status: ('A' for Active; 'I' for Inactive)
REMARK    1  A    between atoms: N_5  and  C_1 
REMARK    2  A    between atoms: N_9  and  N_5 
REMARK    3  A    between atoms: C_7  and  C_8 
REMARK    4  A    between atoms: C_12  and  N_9 
ROOT
ATOM      1  N   UNL d   1      57.791  -0.849  31.079  0.00  0.00    -0.146 NA
ENDROOT
BRANCH   1   2
ATOM      2  C   UNL d   1      57.462  -0.382  31.740  0.00  0.00     0.122 A 
ATOM      3  C   UNL d   1      57.779   0.301  32.020  0.00  0.00     0.101 A 
ATOM      4  N   UNL d   1      57.303   0.575  32.650  0.00  0.00    -0.244 NA
ATOM      5  C   UNL d   1      58.453   0.678  31.746  0.00  0.00     0.022 C 
ATOM      6  C   UNL d   1      56.696   0.049  32.747  0.00  0.00     0.083 A 
ATOM      7  C   UNL d   1      56.785  -0.561  32.176  0.00  0.00     0.039 A 
ATOM      8  C   UNL d   1      56.049   0.008  33.269  0.00  0.00     0.019 A 
ATOM      9  C   UNL d   1      56.238  -1.194  32.134  0.00  0.00     0.003 A 
ATOM     10  C   UNL d   1      55.599  -1.221  32.661  0.00  0.00     0.000 A 
ATOM     11  C   UNL d   1      55.497  -0.614  33.239  0.00  0.00     0.002 A 
ENDBRANCH   1   2
BRANCH   1  12
ATOM     12  N   UNL d   1      57.744  -0.567  30.300  0.00  0.00    -0.148 NA
BRANCH  12  13
ATOM     13  C   UNL d   1      58.172  -0.933  29.703  0.00  0.00     0.103 A 
ATOM     14  C   UNL d   1      58.320  -1.719  29.729  0.00  0.00     0.027 A 
ATOM     15  C   UNL d   1      58.747  -2.085  29.132  0.00  0.00     0.066 A 
ATOM     16  C   UNL d   1      59.020  -1.648  28.514  0.00  0.00     0.006 A 
ATOM     17  C   UNL d   1      58.873  -0.856  28.484  0.00  0.00     0.002 A 
ATOM     18  C   UNL d   1      58.451  -0.503  29.077  0.00  0.00     0.021 A 
BRANCH  15  19
ATOM     19  C   UNL d   1      58.921  -2.892  29.122  0.00  0.00     0.211 C 
ATOM     20  O   UNL d   1      59.674  -3.153  29.373  0.00  0.00    -0.644 OA
ATOM     21  O   UNL d   1      58.349  -3.447  28.864  0.00  0.00    -0.644 OA
ENDBRANCH  15  19
ENDBRANCH  12  13
ENDBRANCH   1  12
TORSDOF 4
ENDMDL
MODEL 4
REMARK VINA RESULT:      -4.0      8.877      9.289
REMARK  4 active torsions:
REMARK  status: ('A' for Active; 'I' for Inactive)
REMARK    1  A    between atoms: N_5  and  C_1 
REMARK    2  A    between atoms: N_9  and  N_5 
REMARK    3  A    between atoms: C_7  and  C_8 
REMARK    4  A    between atoms: C_12  and  N_9 
ROOT
ATOM      1  N   UNL d   1      59.378  -9.774  33.384  0.00  0.00    -0.146 NA
ENDROOT
BRANCH   1   2
ATOM      2  C   UNL d   1      59.295  -9.787  32.514  0.00  0.00     0.122 A 
ATOM      3  C   UNL d   1      59.909  -9.792  31.997  0.00  0.00     0.101 A 
ATOM      4  N   UNL d   1      59.600  -9.805  31.220  0.00  0.00    -0.244 NA
ATOM      5  C   UNL d   1      60.707  -9.787  32.181  0.00  0.00     0.022 C 
ATOM      6  C   UNL d   1      58.793  -9.807  31.275  0.00  0.00     0.083 A 
ATOM      7  C   UNL d   1      58.587  -9.796  32.090  0.00  0.00     0.039 A 
ATOM      8  C   UNL d   1      58.179  -9.818  30.715  0.00  0.00     0.019 A 
ATOM      9  C   UNL d   1      57.785  -9.796  32.332  0.00  0.00     0.003 A 
ATOM     10  C   UNL d   1      57.184  -9.807  31.762  0.00  0.00     0.000 A 
ATOM     11  C   UNL d   1      57.377  -9.818  30.939  0.00  0.00     0.002 A 
ENDBRANCH   1   2
BRANCH   1  12
ATOM     12  N   UNL d   1      59.207  -9.085  33.812  0.00  0.00    -0.148 NA
BRANCH  12  13
ATOM     13  C   UNL d   1      59.371  -9.048  34.616  0.00  0.00     0.103 A 
ATOM     14  C   UNL d   1      59.694  -8.389  34.937  0.00  0.00     0.027 A 
ATOM     15  C   UNL d   1      59.858  -8.352  35.740  0.00  0.00     0.066 A 
ATOM     16  C   UNL d   1      59.691  -8.985  36.209  0.00  0.00     0.006 A 
ATOM     17  C   UNL d   1      59.366  -9.650  35.889  0.00  0.00     0.002 A 
ATOM     18  C   UNL d   1      59.208  -9.678  35.096  0.00  0.00     0.021 A 
BRANCH  15  19
ATOM     19  C   UNL d   1      60.190  -7.693  36.109  0.00  0.00     0.211 C 
ATOM     20  O   UNL d   1      61.002  -7.699  36.306  0.00  0.00    -0.644 OA
ATOM     21  O   UNL d   1      59.721  -7.023  36.285  0.00  0.00    -0.644 OA
ENDBRANCH  15  19
ENDBRANCH  12  13
ENDBRANCH   1  12
TORSDOF 4
ENDMDL
MODEL 5
REMARK VINA RESULT:      -3.4      2.312      4.886
REMARK  4 active torsions:
REMARK  status: ('A' for Active; 'I' for Inactive)
REMARK    1  A    between atoms: N_5  and  C_1 
REMARK    2  A    between atoms: N_9  and  N_5 
REMARK    3  A    between atoms: C_7  and  C_8 
REMARK    4  A    between atoms: C_12  and  N_9 
ROOT
ATOM      1  N   UNL d   1      57.165  -0.332  32.510  0.00  0.00    -0.146 NA
ENDROOT
BRANCH   1   2
ATOM      2  C   UNL d   1      56.828   0.034  33.228  0.00  0.00     0.122 A 
ATOM      3  C   UNL d   1      57.257   0.412  33.792  0.00  0.00     0.101 A 
ATOM      4  N   UNL d   1      56.734   0.682  34.385  0.00  0.00    -0.244 NA
ATOM      5  C   UNL d   1      58.069   0.525  33.800  0.00  0.00     0.022 C 
ATOM      6  C   UNL d   1      55.985   0.461  34.173  0.00  0.00     0.083 A 
ATOM      7  C   UNL d   1      56.032   0.050  33.442  0.00  0.00     0.039 A 
ATOM      8  C   UNL d   1      55.236   0.561  34.522  0.00  0.00     0.019 A 
ATOM      9  C   UNL d   1      55.343  -0.252  33.073  0.00  0.00     0.003 A 
ATOM     10  C   UNL d   1      54.604  -0.145  33.432  0.00  0.00     0.000 A 
ATOM     11  C   UNL d   1      54.543   0.266  34.168  0.00  0.00     0.002 A 
ENDBRANCH   1   2
BRANCH   1  12
ATOM     12  N   UNL d   1      57.100   0.047  31.775  0.00  0.00    -0.148 NA
BRANCH  12  13
ATOM     13  C   UNL d   1      57.524  -0.230  31.129  0.00  0.00     0.103 A 
ATOM     14  C   UNL d   1      58.062   0.237  30.764  0.00  0.00     0.027 A 
ATOM     15  C   UNL d   1      58.487  -0.040  30.118  0.00  0.00     0.066 A 
ATOM     16  C   UNL d   1      58.359  -0.788  29.850  0.00  0.00     0.006 A 
ATOM     17  C   UNL d   1      57.817  -1.261  30.215  0.00  0.00     0.002 A 
ATOM     18  C   UNL d   1      57.403  -0.980  30.851  0.00  0.00     0.021 A 
BRANCH  15  19
ATOM     19  C   UNL d   1      59.050   0.409  29.714  0.00  0.00     0.211 C 
ATOM     20  O   UNL d   1      58.880   0.682  28.943  0.00  0.00    -0.644 OA
ATOM     21  O   UNL d   1      59.784   0.591  30.072  0.00  0.00    -0.644 OA
ENDBRANCH  15  19
ENDBRANCH  12  13
ENDBRANCH   1  12
TORSDOF 4
ENDMDL
MODEL 6
REMARK VINA RESULT:      -2.8      1.712      2.027
REMARK  4 active torsions:
REMARK  status: ('A' for Active; 'I' for Inactive)
REMARK    1  A    between atoms: N_5  and  C_1 
REMARK    2  A    between atoms: N_9  and  N_5 
REMARK    3  A    between atoms: C_7  and  C_8 
REMARK    4  A    between atoms: C_12  and  N_9 
ROOT
ATOM      1  N   UNL d   1      58.308   0.682  31.651  0.00  0.00    -0.146 NA
ENDROOT
BRANCH   1   2
ATOM      2  C   UNL d   1      58.832   0.613  30.955  0.00  0.00     0.122 A 
ATOM      3  C   UNL d   1      59.634   0.614  30.986  0.00  0.00     0.101 A 
ATOM      4  N   UNL d   1      59.929   0.537  30.207  0.00  0.00    -0.244 NA
ATOM      5  C   UNL d   1      60.101   0.677  31.657  0.00  0.00     0.022 C 
ATOM      6  C   UNL d   1      59.295   0.490  29.707  0.00  0.00     0.083 A 
ATOM      7  C   UNL d   1      58.594   0.537  30.169  0.00  0.00     0.039 A 
ATOM      8  C   UNL d   1      59.218   0.411  28.883  0.00  0.00     0.019 A 
ATOM      9  C   UNL d   1      57.838   0.505  29.809  0.00  0.00     0.003 A 
ATOM     10  C   UNL d   1      57.778   0.425  28.986  0.00  0.00     0.000 A 
ATOM     11  C   UNL d   1      58.475   0.377  28.510  0.00  0.00     0.002 A 
ENDBRANCH   1   2
BRANCH   1  12
ATOM     12  N   UNL d   1      57.831   0.045  31.883  0.00  0.00    -0.148 NA
BRANCH  12  13
ATOM     13  C   UNL d   1      57.323   0.121  32.524  0.00  0.00     0.103 A 
ATOM     14  C   UNL d   1      56.610  -0.243  32.525  0.00  0.00     0.027 A 
ATOM     15  C   UNL d   1      56.103  -0.167  33.166  0.00  0.00     0.066 A 
ATOM     16  C   UNL d   1      56.326   0.279  33.798  0.00  0.00     0.006 A 
ATOM     17  C   UNL d   1      57.043   0.647  33.799  0.00  0.00     0.002 A 
ATOM     18  C   UNL d   1      57.537   0.567  33.164  0.00  0.00     0.021 A 
BRANCH  15  19
ATOM     19  C   UNL d   1      55.360  -0.526  33.206  0.00  0.00     0.211 C 
ATOM     20  O   UNL d   1      55.296  -1.349  33.079  0.00  0.00    -0.644 OA
ATOM     21  O   UNL d   1      54.677  -0.072  33.373  0.00  0.00    -0.644 OA
ENDBRANCH  15  19
ENDBRANCH  12  13
ENDBRANCH   1  12
TORSDOF 4
ENDMDL
