MODEL 1
REMARK VINA RESULT:      85.3      0.000      0.000
REMARK  6 active torsions:
REMARK  status: ('A' for Active; 'I' for Inactive)
REMARK    1  A    between atoms: C_7  and  S_1 
REMARK    2  A    between atoms: N_9  and  S_1 
REMARK    3  A    between atoms: C_20  and  N_2 
REMARK    4  A    between atoms: C_10  and  N_9 
REMARK    5  A    between atoms: O_24  and  C_13 
REMARK    6  A    between atoms: O_25  and  C_19 
ROOT
ATOM      1  N   UNL d   1     -48.005  31.754  34.497  0.00  0.00    -0.273 N 
ATOM      2  C   UNL d   1     -47.269  31.681  35.279  0.00  0.00     0.265 A 
ATOM      3  C   UNL d   1     -48.275  30.993  34.433  0.00  0.00     0.067 A 
ATOM      4  C   UNL d   1     -47.871  30.535  34.980  0.00  0.00     0.021 A 
ATOM      5  C   UNL d   1     -47.301  30.879  35.473  0.00  0.00     0.058 A 
ATOM      6  C   UNL d   1     -48.607  29.370  34.548  0.00  0.00     0.105 A 
ATOM      7  C   UNL d   1     -48.028  29.728  35.047  0.00  0.00     0.014 A 
ATOM      8  C   UNL d   1     -48.844  30.654  33.940  0.00  0.00     0.018 A 
ATOM      9  C   UNL d   1     -49.011  29.828  34.001  0.00  0.00     0.014 A 
ATOM     10  O   UNL d   1     -46.742  32.183  35.683  0.00  0.00    -0.267 OA
ATOM     11  C   UNL d   1     -46.900  30.423  36.018  0.00  0.00     0.005 A 
ATOM     12  C   UNL d   1     -47.626  29.272  35.591  0.00  0.00     0.001 A 
ATOM     13  C   UNL d   1     -47.054  29.608  36.089  0.00  0.00     0.000 A 
ENDROOT
BRANCH   6  14
ATOM     14  S   UNL d   1     -48.766  28.560  34.613  0.00  0.00     0.285 S 
ATOM     15  O   UNL d   1     -48.604  28.463  33.806  0.00  0.00    -0.198 OA
ATOM     16  O   UNL d   1     -48.928  28.654  35.424  0.00  0.00    -0.198 OA
BRANCH  14  17
ATOM     17  N   UNL d   1     -48.924  27.757  34.683  0.00  0.00    -0.156 NA
BRANCH  17  18
ATOM     18  C   UNL d   1     -49.598  27.444  34.345  0.00  0.00     0.116 A 
ATOM     19  C   UNL d   1     -49.547  26.758  33.917  0.00  0.00     0.114 A 
ATOM     20  C   UNL d   1     -50.219  26.440  33.576  0.00  0.00     0.050 A 
ATOM     21  C   UNL d   1     -50.946  26.794  33.654  0.00  0.00     0.096 A 
ATOM     22  C   UNL d   1     -50.979  27.507  34.102  0.00  0.00     0.026 A 
ATOM     23  C   UNL d   1     -50.311  27.827  34.444  0.00  0.00     0.024 A 
BRANCH  19  24
ATOM     24  O   UNL d   1     -48.807  26.377  33.825  0.00  0.00    -0.327 OA
ATOM     25  C   UNL d   1     -48.768  25.620  33.475  0.00  0.00     0.181 C 
ENDBRANCH  19  24
BRANCH  21  26
ATOM     26  O   UNL d   1     -51.645  26.474  33.306  0.00  0.00    -0.328 OA
ATOM     27  C   UNL d   1     -52.368  26.898  33.378  0.00  0.00     0.181 C 
ENDBRANCH  21  26
ENDBRANCH  17  18
ENDBRANCH  14  17
ENDBRANCH   6  14
BRANCH   1  28
ATOM     28  C   UNL d   1     -48.319  32.347  34.004  0.00  0.00     0.083 C 
ATOM     29  C   UNL d   1     -47.830  32.909  33.675  0.00  0.00     0.021 C 
ENDBRANCH   1  28
TORSDOF 6
ENDMDL
