MODEL 1
REMARK VINA RESULT:       5.4      0.000      0.000
REMARK  4 active torsions:
REMARK  status: ('A' for Active; 'I' for Inactive)
REMARK    1  A    between atoms: C_4  and  C_1 
REMARK    2  A    between atoms: C_9  and  N_2 
REMARK    3  A    between atoms: C_10  and  N_3 
REMARK    4  A    between atoms: O_15  and  C_12 
ROOT
ATOM      1  C   UNL d   1      32.112  18.375 -23.544  0.00  0.00     0.133 A 
ATOM      2  N   UNL d   1      32.550  17.693 -23.639  0.00  0.00    -0.290 N 
ATOM      3  N   UNL d   1      32.534  18.878 -23.052  0.00  0.00    -0.290 N 
ATOM      4  C   UNL d   1      33.238  18.493 -22.849  0.00  0.00     0.101 A 
ATOM      5  C   UNL d   1      33.240  17.792 -23.201  0.00  0.00     0.101 A 
ENDROOT
BRANCH   1   6
ATOM      6  C   UNL d   1      31.385  18.417 -23.933  0.00  0.00     0.036 A 
ATOM      7  C   UNL d   1      30.713  18.060 -23.585  0.00  0.00     0.047 A 
ATOM      8  C   UNL d   1      29.986  18.102 -23.974  0.00  0.00     0.218 A 
ATOM      9  O   UNL d   1      29.312  17.744 -23.626  0.00  0.00    -0.284 OA
ATOM     10  C   UNL d   1      29.931  18.492 -24.697  0.00  0.00     0.133 A 
ATOM     11  C   UNL d   1      30.595  18.842 -25.035  0.00  0.00     0.028 A 
ATOM     12  C   UNL d   1      31.318  18.801 -24.649  0.00  0.00     0.005 A 
BRANCH  10  13
ATOM     13  O   UNL d   1      29.191  18.537 -25.097  0.00  0.00    -0.325 OA
ATOM     14  C   UNL d   1      28.719  19.206 -25.003  0.00  0.00     0.181 C 
ENDBRANCH  10  13
ENDBRANCH   1   6
BRANCH   2  15
ATOM     15  C   UNL d   1      32.575  16.940 -24.005  0.00  0.00     0.066 A 
ATOM     16  C   UNL d   1      32.957  16.843 -24.722  0.00  0.00     0.018 A 
ATOM     17  C   UNL d   1      32.992  16.116 -25.095  0.00  0.00     0.002 A 
ATOM     18  C   UNL d   1      32.632  15.453 -24.743  0.00  0.00     0.000 A 
ATOM     19  C   UNL d   1      32.239  15.542 -24.010  0.00  0.00     0.002 A 
ATOM     20  C   UNL d   1      32.213  16.294 -23.643  0.00  0.00     0.018 A 
ENDBRANCH   2  15
BRANCH   3  21
ATOM     21  C   UNL d   1      32.410  19.632 -22.743  0.00  0.00     0.066 A 
ATOM     22  C   UNL d   1      32.102  19.735 -21.983  0.00  0.00     0.018 A 
ATOM     23  C   UNL d   1      31.981  20.471 -21.681  0.00  0.00     0.002 A 
ATOM     24  C   UNL d   1      32.161  21.156 -22.127  0.00  0.00     0.000 A 
ATOM     25  C   UNL d   1      32.469  21.051 -22.891  0.00  0.00     0.002 A 
ATOM     26  C   UNL d   1      32.593  20.297 -23.198  0.00  0.00     0.018 A 
ENDBRANCH   3  21
TORSDOF 4
ENDMDL
MODEL 2
REMARK VINA RESULT:       7.3      2.070      3.496
REMARK  4 active torsions:
REMARK  status: ('A' for Active; 'I' for Inactive)
REMARK    1  A    between atoms: C_4  and  C_1 
REMARK    2  A    between atoms: C_9  and  N_2 
REMARK    3  A    between atoms: C_10  and  N_3 
REMARK    4  A    between atoms: O_15  and  C_12 
ROOT
ATOM      1  C   UNL d   1      30.127  16.560 -23.390  0.00  0.00     0.133 A 
ATOM      2  N   UNL d   1      29.594  16.026 -23.079  0.00  0.00    -0.290 N 
ATOM      3  N   UNL d   1      30.880  16.310 -23.184  0.00  0.00    -0.290 N 
ATOM      4  C   UNL d   1      30.800  15.615 -22.742  0.00  0.00     0.101 A 
ATOM      5  C   UNL d   1      30.035  15.453 -22.685  0.00  0.00     0.101 A 
ENDROOT
BRANCH   1   6
ATOM      6  C   UNL d   1      29.821  17.197 -23.818  0.00  0.00     0.036 A 
ATOM      7  C   UNL d   1      29.479  17.839 -23.407  0.00  0.00     0.047 A 
ATOM      8  C   UNL d   1      29.174  18.476 -23.834  0.00  0.00     0.218 A 
ATOM      9  O   UNL d   1      28.830  19.122 -23.421  0.00  0.00    -0.284 OA
ATOM     10  C   UNL d   1      29.209  18.471 -24.656  0.00  0.00     0.133 A 
ATOM     11  C   UNL d   1      29.547  17.836 -25.057  0.00  0.00     0.028 A 
ATOM     12  C   UNL d   1      29.851  17.203 -24.632  0.00  0.00     0.005 A 
BRANCH  10  13
ATOM     13  O   UNL d   1      28.898  19.119 -25.096  0.00  0.00    -0.325 OA
ATOM     14  C   UNL d   1      28.086  19.261 -25.089  0.00  0.00     0.181 C 
ENDBRANCH  10  13
ENDBRANCH   1   6
BRANCH   2  15
ATOM     15  C   UNL d   1      28.782  15.833 -23.004  0.00  0.00     0.066 A 
ATOM     16  C   UNL d   1      28.428  15.820 -22.266  0.00  0.00     0.018 A 
ATOM     17  C   UNL d   1      27.638  15.635 -22.171  0.00  0.00     0.002 A 
ATOM     18  C   UNL d   1      27.173  15.453 -22.838  0.00  0.00     0.000 A 
ATOM     19  C   UNL d   1      27.525  15.463 -23.597  0.00  0.00     0.002 A 
ATOM     20  C   UNL d   1      28.336  15.655 -23.674  0.00  0.00     0.018 A 
ENDBRANCH   2  15
BRANCH   3  21
ATOM     21  C   UNL d   1      31.644  16.589 -23.318  0.00  0.00     0.066 A 
ATOM     22  C   UNL d   1      32.155  16.202 -23.840  0.00  0.00     0.018 A 
ATOM     23  C   UNL d   1      32.900  16.474 -23.971  0.00  0.00     0.002 A 
ATOM     24  C   UNL d   1      33.184  17.160 -23.582  0.00  0.00     0.000 A 
ATOM     25  C   UNL d   1      32.670  17.548 -23.058  0.00  0.00     0.002 A 
ATOM     26  C   UNL d   1      31.908  17.268 -22.925  0.00  0.00     0.018 A 
ENDBRANCH   3  21
TORSDOF 4
ENDMDL
MODEL 3
REMARK VINA RESULT:       8.3      2.104      3.619
REMARK  4 active torsions:
REMARK  status: ('A' for Active; 'I' for Inactive)
REMARK    1  A    between atoms: C_4  and  C_1 
REMARK    2  A    between atoms: C_9  and  N_2 
REMARK    3  A    between atoms: C_10  and  N_3 
REMARK    4  A    between atoms: O_15  and  C_12 
ROOT
ATOM      1  C   UNL d   1      30.613  17.429 -24.085  0.00  0.00     0.133 A 
ATOM      2  N   UNL d   1      29.821  17.246 -24.155  0.00  0.00    -0.290 N 
ATOM      3  N   UNL d   1      30.755  18.102 -24.532  0.00  0.00    -0.290 N 
ATOM      4  C   UNL d   1      30.038  18.328 -24.876  0.00  0.00     0.101 A 
ATOM      5  C   UNL d   1      29.489  17.816 -24.648  0.00  0.00     0.101 A 
ENDROOT
BRANCH   1   6
ATOM      6  C   UNL d   1      31.077  16.935 -23.613  0.00  0.00     0.036 A 
ATOM      7  C   UNL d   1      31.522  17.266 -22.987  0.00  0.00     0.047 A 
ATOM      8  C   UNL d   1      31.985  16.772 -22.515  0.00  0.00     0.218 A 
ATOM      9  O   UNL d   1      32.432  17.104 -21.887  0.00  0.00    -0.284 OA
ATOM     10  C   UNL d   1      32.003  15.962 -22.665  0.00  0.00     0.133 A 
ATOM     11  C   UNL d   1      31.563  15.641 -23.282  0.00  0.00     0.028 A 
ATOM     12  C   UNL d   1      31.102  16.133 -23.752  0.00  0.00     0.005 A 
BRANCH  10  13
ATOM     13  O   UNL d   1      32.475  15.456 -22.185  0.00  0.00    -0.325 OA
ATOM     14  C   UNL d   1      33.240  15.686 -21.982  0.00  0.00     0.181 C 
ENDBRANCH  10  13
ENDBRANCH   1   6
BRANCH   2  15
ATOM     15  C   UNL d   1      29.218  16.712 -23.925  0.00  0.00     0.066 A 
ATOM     16  C   UNL d   1      28.798  16.838 -23.234  0.00  0.00     0.018 A 
ATOM     17  C   UNL d   1      28.206  16.329 -22.991  0.00  0.00     0.002 A 
ATOM     18  C   UNL d   1      28.019  15.662 -23.455  0.00  0.00     0.000 A 
ATOM     19  C   UNL d   1      28.442  15.525 -24.164  0.00  0.00     0.002 A 
ATOM     20  C   UNL d   1      29.044  16.058 -24.395  0.00  0.00     0.018 A 
ENDBRANCH   2  15
BRANCH   3  21
ATOM     21  C   UNL d   1      31.418  18.564 -24.695  0.00  0.00     0.066 A 
ATOM     22  C   UNL d   1      32.131  18.218 -24.932  0.00  0.00     0.018 A 
ATOM     23  C   UNL d   1      32.778  18.669 -25.091  0.00  0.00     0.002 A 
ATOM     24  C   UNL d   1      32.752  19.503 -25.022  0.00  0.00     0.000 A 
ATOM     25  C   UNL d   1      32.035  19.849 -24.784  0.00  0.00     0.002 A 
ATOM     26  C   UNL d   1      31.374  19.386 -24.621  0.00  0.00     0.018 A 
ENDBRANCH   3  21
TORSDOF 4
ENDMDL
