MODEL 1
REMARK VINA RESULT:      28.8      0.000      0.000
REMARK  3 active torsions:
REMARK  status: ('A' for Active; 'I' for Inactive)
REMARK    1  A    between atoms: C_5  and  N_1 
REMARK    2  A    between atoms: C_4  and  C_5 
REMARK       I    between atoms: N_6  and  C_4 
REMARK    3  A    between atoms: C_12  and  N_6 
ROOT
ATOM      1  C   UNL d   1      58.052  49.706  50.544  0.00  0.00     0.297 C 
ATOM      2  N   UNL d   1      58.525  49.707  51.233  0.00  0.00    -0.207 NA
ATOM      3  O   UNL d   1      58.472  49.705  49.828  0.00  0.00    -0.264 OA
ENDROOT
BRANCH   1   4
ATOM      4  C   UNL d   1      57.210  49.707  50.536  0.00  0.00     0.148 C 
BRANCH   4   5
ATOM      5  N   UNL d   1      56.799  49.111  50.187  0.00  0.00    -0.236 N 
ATOM      6  C   UNL d   1      56.527  48.380  50.533  0.00  0.00     0.267 A 
ATOM      7  C   UNL d   1      56.150  47.986  49.952  0.00  0.00     0.066 A 
ATOM      8  O   UNL d   1      56.682  48.187  51.374  0.00  0.00    -0.267 OA
ATOM      9  C   UNL d   1      56.163  48.411  49.269  0.00  0.00     0.066 A 
ATOM     10  C   UNL d   1      56.551  49.093  49.398  0.00  0.00     0.267 A 
ATOM     11  O   UNL d   1      56.716  49.708  48.894  0.00  0.00    -0.267 OA
ENDBRANCH   4   5
ENDBRANCH   1   4
BRANCH   2  12
ATOM     12  C   UNL d   1      59.311  49.707  51.245  0.00  0.00     0.085 A 
ATOM     13  C   UNL d   1      59.784  49.707  51.933  0.00  0.00     0.020 A 
ATOM     14  C   UNL d   1      60.572  49.707  51.945  0.00  0.00     0.008 A 
ATOM     15  C   UNL d   1      60.981  49.706  51.229  0.00  0.00     0.035 A 
ATOM     16  C   UNL d   1      60.572  49.707  50.514  0.00  0.00     0.008 A 
ATOM     17 BR   UNL d   1      61.832  49.706  51.214  0.00  0.00    -0.049 Br
ATOM     18  C   UNL d   1      59.732  49.707  50.528  0.00  0.00     0.020 A 
ENDBRANCH   2  12
TORSDOF 3
ENDMDL
