MODEL 1
REMARK VINA RESULT:      19.3      0.000      0.000
REMARK  1 active torsions:
REMARK  status: ('A' for Active; 'I' for Inactive)
REMARK    1  A    between atoms: C_9  and  C_2 
ROOT
ATOM      1  N   UNL d   1     -52.850  24.672  33.332  0.00  0.00    -0.204 NA
ATOM      2  C   UNL d   1     -52.034  24.805  33.350  0.00  0.00     0.107 A 
ATOM      3  C   UNL d   1     -53.143  23.893  33.331  0.00  0.00     0.304 A 
ATOM      4  C   UNL d   1     -50.924  25.709  33.369  0.00  0.00     0.020 A 
ATOM      5  O   UNL d   1     -51.799  23.386  33.365  0.00  0.00    -0.299 OA
ATOM      6  C   UNL d   1     -51.746  25.570  33.351  0.00  0.00     0.023 A 
ATOM      7  C   UNL d   1     -51.505  24.166  33.366  0.00  0.00     0.118 A 
ATOM      8  O   UNL d   1     -53.955  23.757  33.313  0.00  0.00    -0.263 OA
ATOM      9  C   UNL d   1     -50.402  25.072  33.385  0.00  0.00     0.004 A 
ATOM     10  C   UNL d   1     -52.618  23.253  33.347  0.00  0.00     0.185 A 
ATOM     11  C   UNL d   1     -50.691  24.304  33.384  0.00  0.00     0.026 A 
ENDROOT
BRANCH   4  12
ATOM     12  C   UNL d   1     -50.641  26.484  33.370  0.00  0.00     0.090 A 
ATOM     13  N   UNL d   1     -51.113  27.160  33.358  0.00  0.00    -0.219 NA
ATOM     14  C   UNL d   1     -50.606  27.815  33.364  0.00  0.00     0.215 A 
ATOM     15  S   UNL d   1     -49.830  27.540  33.380  0.00  0.00    -0.045 SA
ATOM     16  N   UNL d   1     -50.842  28.610  33.356  0.00  0.00    -0.120 N 
ATOM     17  C   UNL d   1     -49.852  26.713  33.384  0.00  0.00     0.058 A 
ENDBRANCH   4  12
TORSDOF 1
ENDMDL
