MODEL 1
REMARK VINA RESULT:      -8.7      0.000      0.000
REMARK  8 active torsions:
REMARK  status: ('A' for Active; 'I' for Inactive)
REMARK    1  A    between atoms: N_3  and  C_1 
REMARK    2  A    between atoms: S_2  and  C_9 
REMARK    3  A    between atoms: N_10  and  S_2 
REMARK       I    between atoms: C_8  and  N_3 
REMARK    4  A    between atoms: C_15  and  C_8 
REMARK    5  A    between atoms: C_27  and  N_10 
REMARK       I    between atoms: C_16  and  N_17 
REMARK    6  A    between atoms: N_17  and  C_18 
REMARK    7  A    between atoms: C_30  and  C_27 
REMARK    8  A    between atoms: C_31  and  C_30 
ROOT
ATOM      1  N   UNL d   1      49.837  34.413  52.137  0.00  0.00    -0.184 NA
ATOM      2  C   UNL d   1      50.224  34.300  52.858  0.00  0.00     0.281 C 
ATOM      3  O   UNL d   1      49.882  34.577  53.566  0.00  0.00    -0.265 OA
ENDROOT
BRANCH   2   4
ATOM      4  C   UNL d   1      50.951  33.911  52.882  0.00  0.00     0.058 A 
ATOM      5  C   UNL d   1      51.022  33.191  53.280  0.00  0.00     0.005 A 
ATOM      6  C   UNL d   1      51.750  32.803  53.304  0.00  0.00     0.013 A 
ATOM      7  C   UNL d   1      52.414  33.126  52.933  0.00  0.00     0.104 A 
ATOM      8  C   UNL d   1      52.344  33.845  52.536  0.00  0.00     0.013 A 
ATOM      9  C   UNL d   1      51.613  34.237  52.511  0.00  0.00     0.005 A 
BRANCH   7  10
ATOM     10  S   UNL d   1      53.151  32.728  52.960  0.00  0.00     0.271 S 
ATOM     11  O   UNL d   1      53.884  32.342  52.993  0.00  0.00    -0.200 OA
ATOM     12  O   UNL d   1      52.871  32.167  52.434  0.00  0.00    -0.200 OA
BRANCH  10  13
ATOM     13  N   UNL d   1      53.428  33.304  53.495  0.00  0.00    -0.228 N 
ATOM     14  C   UNL d   1      53.532  34.090  53.250  0.00  0.00     0.111 C 
BRANCH  13  15
ATOM     15  C   UNL d   1      53.600  33.091  54.273  0.00  0.00     0.092 C 
BRANCH  15  16
ATOM     16  C   UNL d   1      54.302  33.335  54.616  0.00  0.00     0.020 C 
BRANCH  16  17
ATOM     17  C   UNL d   1      54.388  33.312  55.425  0.00  0.00     0.002 C 
ATOM     18  C   UNL d   1      55.043  33.697  55.781  0.00  0.00     0.000 C 
ENDBRANCH  16  17
ENDBRANCH  15  16
ENDBRANCH  13  15
ENDBRANCH  10  13
ENDBRANCH   7  10
ENDBRANCH   2   4
BRANCH   1  19
ATOM     19  C   UNL d   1      49.103  34.806  52.115  0.00  0.00     0.182 A 
ATOM     20  N   UNL d   1      48.610  34.862  51.459  0.00  0.00    -0.283 N 
ATOM     21  C   UNL d   1      47.940  35.294  51.664  0.00  0.00     0.072 A 
ATOM     22  C   UNL d   1      48.769  34.533  50.709  0.00  0.00     0.101 C 
ATOM     23  C   UNL d   1      47.269  35.519  51.231  0.00  0.00     0.020 A 
ATOM     24  C   UNL d   1      48.002  35.516  52.456  0.00  0.00     0.050 A 
ATOM     25  C   UNL d   1      46.679  35.958  51.595  0.00  0.00     0.021 A 
ATOM     26  C   UNL d   1      46.744  36.178  52.385  0.00  0.00     0.085 A 
ATOM     27  C   UNL d   1      47.410  35.956  52.819  0.00  0.00     0.027 A 
ATOM     28  S   UNL d   1      48.725  35.214  52.738  0.00  0.00    -0.048 SA
BRANCH  26  29
ATOM     29  N   UNL d   1      46.137  36.627  52.749  0.00  0.00    -0.208 NA
ATOM     30  C   UNL d   1      45.396  36.273  52.885  0.00  0.00     0.279 C 
ATOM     31  O   UNL d   1      44.796  36.709  53.242  0.00  0.00    -0.265 OA
ATOM     32  C   UNL d   1      45.274  35.489  52.659  0.00  0.00     0.068 C 
ENDBRANCH  26  29
ENDBRANCH   1  19
TORSDOF 8
ENDMDL
MODEL 2
REMARK VINA RESULT:      -8.6      1.480      1.930
REMARK  8 active torsions:
REMARK  status: ('A' for Active; 'I' for Inactive)
REMARK    1  A    between atoms: N_3  and  C_1 
REMARK    2  A    between atoms: S_2  and  C_9 
REMARK    3  A    between atoms: N_10  and  S_2 
REMARK       I    between atoms: C_8  and  N_3 
REMARK    4  A    between atoms: C_15  and  C_8 
REMARK    5  A    between atoms: C_27  and  N_10 
REMARK       I    between atoms: C_16  and  N_17 
REMARK    6  A    between atoms: N_17  and  C_18 
REMARK    7  A    between atoms: C_30  and  C_27 
REMARK    8  A    between atoms: C_31  and  C_30 
ROOT
ATOM      1  N   UNL d   1      49.519  35.020  53.053  0.00  0.00    -0.184 NA
ATOM      2  C   UNL d   1      49.962  34.500  52.590  0.00  0.00     0.281 C 
ATOM      3  O   UNL d   1      49.677  34.252  51.847  0.00  0.00    -0.265 OA
ENDROOT
BRANCH   2   4
ATOM      4  C   UNL d   1      50.690  34.221  52.859  0.00  0.00     0.058 A 
ATOM      5  C   UNL d   1      51.388  34.465  52.492  0.00  0.00     0.005 A 
ATOM      6  C   UNL d   1      52.116  34.186  52.762  0.00  0.00     0.013 A 
ATOM      7  C   UNL d   1      52.159  33.662  53.400  0.00  0.00     0.104 A 
ATOM      8  C   UNL d   1      51.462  33.418  53.766  0.00  0.00     0.013 A 
ATOM      9  C   UNL d   1      50.729  33.698  53.496  0.00  0.00     0.005 A 
BRANCH   7  10
ATOM     10  S   UNL d   1      52.900  33.381  53.671  0.00  0.00     0.271 S 
ATOM     11  O   UNL d   1      53.633  33.095  53.932  0.00  0.00    -0.200 OA
ATOM     12  O   UNL d   1      52.953  34.013  54.189  0.00  0.00    -0.200 OA
BRANCH  10  13
ATOM     13  N   UNL d   1      52.838  32.742  53.140  0.00  0.00    -0.228 N 
ATOM     14  C   UNL d   1      52.931  32.863  52.324  0.00  0.00     0.111 C 
BRANCH  13  15
ATOM     15  C   UNL d   1      52.683  31.985  53.427  0.00  0.00     0.092 C 
BRANCH  15  16
ATOM     16  C   UNL d   1      53.017  31.335  53.058  0.00  0.00     0.020 C 
BRANCH  16  17
ATOM     17  C   UNL d   1      52.743  30.587  53.228  0.00  0.00     0.002 C 
ATOM     18  C   UNL d   1      53.281  29.942  53.234  0.00  0.00     0.000 C 
ENDBRANCH  16  17
ENDBRANCH  15  16
ENDBRANCH  13  15
ENDBRANCH  10  13
ENDBRANCH   7  10
ENDBRANCH   2   4
BRANCH   1  19
ATOM     19  C   UNL d   1      48.784  35.300  52.779  0.00  0.00     0.182 A 
ATOM     20  N   UNL d   1      48.313  35.858  53.156  0.00  0.00    -0.283 N 
ATOM     21  C   UNL d   1      47.634  35.984  52.708  0.00  0.00     0.072 A 
ATOM     22  C   UNL d   1      48.499  36.234  53.878  0.00  0.00     0.101 C 
ATOM     23  C   UNL d   1      46.978  36.478  52.820  0.00  0.00     0.020 A 
ATOM     24  C   UNL d   1      47.668  35.504  52.039  0.00  0.00     0.050 A 
ATOM     25  C   UNL d   1      46.373  36.483  52.265  0.00  0.00     0.021 A 
ATOM     26  C   UNL d   1      46.410  36.002  51.598  0.00  0.00     0.085 A 
ATOM     27  C   UNL d   1      47.063  35.509  51.484  0.00  0.00     0.027 A 
ATOM     28  S   UNL d   1      48.383  35.078  52.081  0.00  0.00    -0.048 SA
BRANCH  26  29
ATOM     29  N   UNL d   1      45.789  36.013  51.036  0.00  0.00    -0.208 NA
ATOM     30  C   UNL d   1      45.068  35.641  51.220  0.00  0.00     0.279 C 
ATOM     31  O   UNL d   1      44.454  35.648  50.672  0.00  0.00    -0.265 OA
ATOM     32  C   UNL d   1      44.978  35.271  51.953  0.00  0.00     0.068 C 
ENDBRANCH  26  29
ENDBRANCH   1  19
TORSDOF 8
ENDMDL
MODEL 3
REMARK VINA RESULT:      -6.9      1.283      6.592
REMARK  8 active torsions:
REMARK  status: ('A' for Active; 'I' for Inactive)
REMARK    1  A    between atoms: N_3  and  C_1 
REMARK    2  A    between atoms: S_2  and  C_9 
REMARK    3  A    between atoms: N_10  and  S_2 
REMARK       I    between atoms: C_8  and  N_3 
REMARK    4  A    between atoms: C_15  and  C_8 
REMARK    5  A    between atoms: C_27  and  N_10 
REMARK       I    between atoms: C_16  and  N_17 
REMARK    6  A    between atoms: N_17  and  C_18 
REMARK    7  A    between atoms: C_30  and  C_27 
REMARK    8  A    between atoms: C_31  and  C_30 
ROOT
ATOM      1  N   UNL d   1      49.860  34.505  52.449  0.00  0.00    -0.184 NA
ATOM      2  C   UNL d   1      49.450  35.021  52.946  0.00  0.00     0.281 C 
ATOM      3  O   UNL d   1      49.763  35.226  53.690  0.00  0.00    -0.265 OA
ENDROOT
BRANCH   2   4
ATOM      4  C   UNL d   1      48.726  35.337  52.708  0.00  0.00     0.058 A 
ATOM      5  C   UNL d   1      48.270  34.947  52.141  0.00  0.00     0.005 A 
ATOM      6  C   UNL d   1      47.546  35.265  51.904  0.00  0.00     0.013 A 
ATOM      7  C   UNL d   1      47.267  35.972  52.228  0.00  0.00     0.104 A 
ATOM      8  C   UNL d   1      47.722  36.362  52.794  0.00  0.00     0.013 A 
ATOM      9  C   UNL d   1      48.451  36.045  53.034  0.00  0.00     0.005 A 
BRANCH   7  10
ATOM     10  S   UNL d   1      46.532  36.291  51.985  0.00  0.00     0.271 S 
ATOM     11  O   UNL d   1      45.800  36.605  51.753  0.00  0.00    -0.200 OA
ATOM     12  O   UNL d   1      46.827  36.402  51.229  0.00  0.00    -0.200 OA
BRANCH  10  13
ATOM     13  N   UNL d   1      46.240  36.174  52.756  0.00  0.00    -0.228 N 
ATOM     14  C   UNL d   1      46.430  36.708  53.363  0.00  0.00     0.111 C 
BRANCH  13  15
ATOM     15  C   UNL d   1      45.760  35.524  52.918  0.00  0.00     0.092 C 
BRANCH  15  16
ATOM     16  C   UNL d   1      45.162  35.588  53.475  0.00  0.00     0.020 C 
BRANCH  16  17
ATOM     17  C   UNL d   1      44.644  34.970  53.588  0.00  0.00     0.002 C 
ATOM     18  C   UNL d   1      44.343  34.820  54.357  0.00  0.00     0.000 C 
ENDBRANCH  16  17
ENDBRANCH  15  16
ENDBRANCH  13  15
ENDBRANCH  10  13
ENDBRANCH   7  10
ENDBRANCH   2   4
BRANCH   1  19
ATOM     19  C   UNL d   1      50.591  34.186  52.691  0.00  0.00     0.182 A 
ATOM     20  N   UNL d   1      51.271  34.145  52.231  0.00  0.00    -0.283 N 
ATOM     21  C   UNL d   1      51.871  33.794  52.670  0.00  0.00     0.072 A 
ATOM     22  C   UNL d   1      51.336  34.419  51.444  0.00  0.00     0.101 C 
ATOM     23  C   UNL d   1      52.660  33.615  52.490  0.00  0.00     0.020 A 
ATOM     24  C   UNL d   1      51.576  33.607  53.417  0.00  0.00     0.050 A 
ATOM     25  C   UNL d   1      53.136  33.255  53.055  0.00  0.00     0.021 A 
ATOM     26  C   UNL d   1      52.838  33.070  53.799  0.00  0.00     0.085 A 
ATOM     27  C   UNL d   1      52.052  33.247  53.982  0.00  0.00     0.027 A 
ATOM     28  S   UNL d   1      50.780  33.850  53.432  0.00  0.00    -0.048 SA
BRANCH  26  29
ATOM     29  N   UNL d   1      53.329  32.704  54.371  0.00  0.00    -0.208 NA
ATOM     30  C   UNL d   1      53.897  33.160  54.772  0.00  0.00     0.279 C 
ATOM     31  O   UNL d   1      54.382  32.805  55.334  0.00  0.00    -0.265 OA
ATOM     32  C   UNL d   1      53.965  33.965  54.599  0.00  0.00     0.068 C 
ENDBRANCH  26  29
ENDBRANCH   1  19
TORSDOF 8
ENDMDL
