MODEL 1
REMARK VINA RESULT:      -6.0      0.000      0.000
REMARK  6 active torsions:
REMARK  status: ('A' for Active; 'I' for Inactive)
REMARK    1  A    between atoms: N_2  and  S_1 
REMARK    2  A    between atoms: C_3  and  S_1 
REMARK    3  A    between atoms: C_8  and  N_2 
REMARK    4  A    between atoms: C_6  and  O_7 
REMARK    5  A    between atoms: O_7  and  C_13 
REMARK    6  A    between atoms: O_16  and  C_10 
ROOT
ATOM      1  C   UNL d   1     -41.202-122.633 -52.260  0.00  0.00     0.105 A 
ATOM      2  C   UNL d   1     -41.123-123.401 -51.989  0.00  0.00     0.015 A 
ATOM      3  C   UNL d   1     -41.322-122.014 -51.724  0.00  0.00     0.015 A 
ATOM      4  C   UNL d   1     -41.283-122.937 -50.650  0.00  0.00     0.100 A 
ATOM      5  C   UNL d   1     -41.362-122.170 -50.922  0.00  0.00     0.025 A 
ATOM      6  C   UNL d   1     -41.163-123.556 -51.186  0.00  0.00     0.025 A 
ENDROOT
BRANCH   1   7
ATOM      7  S   UNL d   1     -41.160-122.485 -53.073  0.00  0.00     0.285 S 
ATOM      8  O   UNL d   1     -41.125-123.115 -53.606  0.00  0.00    -0.198 OA
ATOM      9  O   UNL d   1     -41.153-121.708 -53.348  0.00  0.00    -0.198 OA
BRANCH   7  10
ATOM     10  N   UNL d   1     -41.123-122.137 -53.824  0.00  0.00    -0.157 NA
BRANCH  10  11
ATOM     11  C   UNL d   1     -41.785-122.178 -54.330  0.00  0.00     0.113 A 
ATOM     12  C   UNL d   1     -42.323-121.553 -54.353  0.00  0.00     0.119 A 
ATOM     13  N   UNL d   1     -42.985-121.593 -54.858  0.00  0.00    -0.241 NA
ATOM     14  C   UNL d   1     -43.098-122.265 -55.336  0.00  0.00     0.099 A 
ATOM     15  C   UNL d   1     -42.553-122.892 -55.310  0.00  0.00     0.022 A 
ATOM     16  C   UNL d   1     -41.898-122.842 -54.804  0.00  0.00     0.023 A 
ENDBRANCH  10  11
ENDBRANCH   7  10
ENDBRANCH   1   7
BRANCH   4  17
ATOM     17  O   UNL d   1     -41.324-123.096 -49.836  0.00  0.00    -0.305 OA
BRANCH  17  18
ATOM     18  C   UNL d   1     -42.048-123.286 -49.481  0.00  0.00     0.122 A 
ATOM     19  C   UNL d   1     -42.080-123.438 -48.673  0.00  0.00     0.117 A 
ATOM     20  C   UNL d   1     -42.802-123.627 -48.322  0.00  0.00     0.026 A 
ATOM     21  C   UNL d   1     -43.483-123.663 -48.776  0.00  0.00     0.002 A 
ATOM     22  C   UNL d   1     -43.450-123.510 -49.587  0.00  0.00     0.002 A 
ATOM     23  C   UNL d   1     -42.728-123.321 -49.939  0.00  0.00     0.027 A 
BRANCH  19  24
ATOM     24  O   UNL d   1     -41.394-123.399 -48.227  0.00  0.00    -0.326 OA
ATOM     25  C   UNL d   1     -41.428-123.433 -47.415  0.00  0.00     0.181 C 
ENDBRANCH  19  24
ENDBRANCH  17  18
ENDBRANCH   4  17
TORSDOF 6
ENDMDL
MODEL 2
REMARK VINA RESULT:      -3.5      0.867      1.472
REMARK  6 active torsions:
REMARK  status: ('A' for Active; 'I' for Inactive)
REMARK    1  A    between atoms: N_2  and  S_1 
REMARK    2  A    between atoms: C_3  and  S_1 
REMARK    3  A    between atoms: C_8  and  N_2 
REMARK    4  A    between atoms: C_6  and  O_7 
REMARK    5  A    between atoms: O_7  and  C_13 
REMARK    6  A    between atoms: O_16  and  C_10 
ROOT
ATOM      1  C   UNL d   1     -41.592-122.514 -52.088  0.00  0.00     0.105 A 
ATOM      2  C   UNL d   1     -42.232-122.243 -51.657  0.00  0.00     0.015 A 
ATOM      3  C   UNL d   1     -41.181-123.190 -51.842  0.00  0.00     0.015 A 
ATOM      4  C   UNL d   1     -42.055-123.317 -50.735  0.00  0.00     0.100 A 
ATOM      5  C   UNL d   1     -41.416-123.587 -51.166  0.00  0.00     0.025 A 
ATOM      6  C   UNL d   1     -42.466-122.641 -50.981  0.00  0.00     0.025 A 
ENDROOT
BRANCH   1   7
ATOM      7  S   UNL d   1     -41.361-122.106 -52.771  0.00  0.00     0.285 S 
ATOM      8  O   UNL d   1     -41.299-121.283 -52.758  0.00  0.00    -0.198 OA
ATOM      9  O   UNL d   1     -41.194-122.524 -53.461  0.00  0.00    -0.198 OA
BRANCH   7  10
ATOM     10  N   UNL d   1     -41.123-121.891 -53.535  0.00  0.00    -0.157 NA
BRANCH  10  11
ATOM     11  C   UNL d   1     -41.627-122.042 -54.181  0.00  0.00     0.113 A 
ATOM     12  C   UNL d   1     -41.637-122.790 -54.528  0.00  0.00     0.119 A 
ATOM     13  N   UNL d   1     -42.141-122.942 -55.175  0.00  0.00    -0.241 NA
ATOM     14  C   UNL d   1     -42.630-122.335 -55.466  0.00  0.00     0.099 A 
ATOM     15  C   UNL d   1     -42.616-121.582 -55.113  0.00  0.00     0.022 A 
ATOM     16  C   UNL d   1     -42.112-121.442 -54.471  0.00  0.00     0.023 A 
ENDBRANCH  10  11
ENDBRANCH   7  10
ENDBRANCH   1   7
BRANCH   4  17
ATOM     17  O   UNL d   1     -42.294-123.719 -50.049  0.00  0.00    -0.305 OA
BRANCH  17  18
ATOM     18  C   UNL d   1     -42.103-123.422 -49.299  0.00  0.00     0.122 A 
ATOM     19  C   UNL d   1     -42.702-123.193 -48.785  0.00  0.00     0.117 A 
ATOM     20  C   UNL d   1     -42.509-122.897 -48.039  0.00  0.00     0.026 A 
ATOM     21  C   UNL d   1     -41.723-122.832 -47.814  0.00  0.00     0.002 A 
ATOM     22  C   UNL d   1     -41.123-123.063 -48.332  0.00  0.00     0.002 A 
ATOM     23  C   UNL d   1     -41.316-123.358 -49.077  0.00  0.00     0.027 A 
BRANCH  19  24
ATOM     24  O   UNL d   1     -43.484-123.261 -49.019  0.00  0.00    -0.326 OA
ATOM     25  C   UNL d   1     -43.970-123.817 -48.678  0.00  0.00     0.181 C 
ENDBRANCH  19  24
ENDBRANCH  17  18
ENDBRANCH   4  17
TORSDOF 6
ENDMDL
