MODEL 1
REMARK VINA RESULT:      -8.2      0.000      0.000
REMARK  1 active torsions:
REMARK  status: ('A' for Active; 'I' for Inactive)
REMARK    1  A    between atoms: C_7  and  C_1 
ROOT
ATOM      1  C   UNL d   1     -46.768  12.936  23.076  0.00  0.00     0.102 A 
ATOM      2  C   UNL d   1     -46.625  12.248  23.482  0.00  0.00     0.303 A 
ATOM      3  C   UNL d   1     -47.544  13.143  22.873  0.00  0.00     0.011 A 
ATOM      4  O   UNL d   1     -47.256  11.754  23.692  0.00  0.00    -0.273 OA
ATOM      5  C   UNL d   1     -48.029  11.960  23.488  0.00  0.00     0.106 A 
ATOM      6  C   UNL d   1     -48.172  12.649  23.082  0.00  0.00     0.023 A 
ATOM      7  C   UNL d   1     -48.660  11.466  23.698  0.00  0.00     0.067 A 
ATOM      8  O   UNL d   1     -45.856  12.040  23.686  0.00  0.00    -0.259 OA
ATOM      9  C   UNL d   1     -48.948  12.855  22.879  0.00  0.00     0.005 A 
ATOM     10  C   UNL d   1     -49.437  11.672  23.495  0.00  0.00     0.198 A 
ATOM     11  C   UNL d   1     -49.580  12.361  23.089  0.00  0.00     0.042 A 
ATOM     12  O   UNL d   1     -50.121  11.240  23.663  0.00  0.00    -0.286 OA
ENDROOT
BRANCH   1  13
ATOM     13  C   UNL d   1     -46.144  13.429  22.867  0.00  0.00     0.201 C 
ATOM     14  O   UNL d   1     -45.932  14.062  23.356  0.00  0.00    -0.286 OA
ATOM     15  C   UNL d   1     -45.734  13.301  22.183  0.00  0.00     0.045 C 
ENDBRANCH   1  13
TORSDOF 1
ENDMDL
MODEL 2
REMARK VINA RESULT:      -7.9      1.907      3.287
REMARK  1 active torsions:
REMARK  status: ('A' for Active; 'I' for Inactive)
REMARK    1  A    between atoms: C_7  and  C_1 
ROOT
ATOM      1  C   UNL d   1     -48.963  14.601  22.884  0.00  0.00     0.102 A 
ATOM      2  C   UNL d   1     -49.187  13.852  23.102  0.00  0.00     0.303 A 
ATOM      3  C   UNL d   1     -48.162  14.778  22.775  0.00  0.00     0.011 A 
ATOM      4  O   UNL d   1     -48.612  13.266  23.215  0.00  0.00    -0.273 OA
ATOM      5  C   UNL d   1     -47.813  13.444  23.106  0.00  0.00     0.106 A 
ATOM      6  C   UNL d   1     -47.590  14.193  22.888  0.00  0.00     0.023 A 
ATOM      7  C   UNL d   1     -47.238  12.858  23.218  0.00  0.00     0.067 A 
ATOM      8  O   UNL d   1     -49.982  13.673  23.211  0.00  0.00    -0.259 OA
ATOM      9  C   UNL d   1     -46.788  14.370  22.779  0.00  0.00     0.005 A 
ATOM     10  C   UNL d   1     -46.436  13.034  23.109  0.00  0.00     0.198 A 
ATOM     11  C   UNL d   1     -46.212  13.784  22.891  0.00  0.00     0.042 A 
ATOM     12  O   UNL d   1     -45.800  12.514  23.200  0.00  0.00    -0.286 OA
ENDROOT
BRANCH   1  13
ATOM     13  C   UNL d   1     -49.532  15.185  22.771  0.00  0.00     0.201 C 
ATOM     14  O   UNL d   1     -49.860  15.306  22.021  0.00  0.00    -0.286 OA
ATOM     15  C   UNL d   1     -49.774  15.644  23.389  0.00  0.00     0.045 C 
ENDBRANCH   1  13
TORSDOF 1
ENDMDL
MODEL 3
REMARK VINA RESULT:      -7.8      1.793      2.236
REMARK  1 active torsions:
REMARK  status: ('A' for Active; 'I' for Inactive)
REMARK    1  A    between atoms: C_7  and  C_1 
ROOT
ATOM      1  C   UNL d   1     -47.162  13.569  22.918  0.00  0.00     0.102 A 
ATOM      2  C   UNL d   1     -47.723  12.995  23.042  0.00  0.00     0.303 A 
ATOM      3  C   UNL d   1     -47.395  14.345  22.748  0.00  0.00     0.011 A 
ATOM      4  O   UNL d   1     -48.527  13.188  22.997  0.00  0.00    -0.273 OA
ATOM      5  C   UNL d   1     -48.759  13.963  22.827  0.00  0.00     0.106 A 
ATOM      6  C   UNL d   1     -48.197  14.536  22.704  0.00  0.00     0.023 A 
ATOM      7  C   UNL d   1     -49.563  14.155  22.783  0.00  0.00     0.067 A 
ATOM      8  O   UNL d   1     -47.495  12.224  23.212  0.00  0.00    -0.259 OA
ATOM      9  C   UNL d   1     -48.430  15.312  22.533  0.00  0.00     0.005 A 
ATOM     10  C   UNL d   1     -49.797  14.932  22.612  0.00  0.00     0.198 A 
ATOM     11  C   UNL d   1     -49.235  15.506  22.488  0.00  0.00     0.042 A 
ATOM     12  O   UNL d   1     -50.573  15.211  22.549  0.00  0.00    -0.286 OA
ENDROOT
BRANCH   1  13
ATOM     13  C   UNL d   1     -46.363  13.381  22.962  0.00  0.00     0.201 C 
ATOM     14  O   UNL d   1     -45.984  13.340  23.698  0.00  0.00    -0.286 OA
ATOM     15  C   UNL d   1     -45.940  13.234  22.290  0.00  0.00     0.045 C 
ENDBRANCH   1  13
TORSDOF 1
ENDMDL
