MODEL 1
REMARK VINA RESULT:      -6.2      0.000      0.000
REMARK  6 active torsions:
REMARK  status: ('A' for Active; 'I' for Inactive)
REMARK    1  A    between atoms: C_3  and  C_1 
REMARK    2  A    between atoms: C_7  and  C_2 
REMARK       I    between atoms: N_5  and  C_3 
REMARK    3  A    between atoms: C_6  and  N_5 
REMARK    4  A    between atoms: N_10  and  C_6 
REMARK    5  A    between atoms: C_11  and  N_10 
REMARK    6  A    between atoms: O_18  and  C_15 
ROOT
ATOM      1  C   UNL d   1     -49.428  12.867  22.724  0.00  0.00     0.285 C 
ATOM      2  N   UNL d   1     -48.615  12.838  22.646  0.00  0.00    -0.179 NA
ATOM      3  O   UNL d   1     -49.768  12.687  23.456  0.00  0.00    -0.265 OA
ENDROOT
BRANCH   1   4
ATOM      4  C   UNL d   1     -49.914  13.070  22.100  0.00  0.00     0.103 A 
ATOM      5  C   UNL d   1     -50.252  13.816  21.987  0.00  0.00     0.116 A 
ATOM      6  N   UNL d   1     -50.698  13.784  21.297  0.00  0.00    -0.126 NA
ATOM      7  O   UNL d   1     -50.638  13.023  20.983  0.00  0.00    -0.211 OA
ATOM      8  C   UNL d   1     -50.157  12.595  21.480  0.00  0.00     0.131 A 
ATOM      9  C   UNL d   1     -49.949  11.810  21.376  0.00  0.00     0.029 C 
BRANCH   5  10
ATOM     10  C   UNL d   1     -50.159  14.471  22.475  0.00  0.00     0.031 A 
ATOM     11  C   UNL d   1     -49.700  15.104  22.229  0.00  0.00     0.059 A 
ATOM     12 CL   UNL d   1     -49.333  15.083  21.495  0.00  0.00    -0.082 Cl
ATOM     13  C   UNL d   1     -49.611  15.752  22.717  0.00  0.00     0.011 A 
ATOM     14  C   UNL d   1     -49.980  15.776  23.458  0.00  0.00     0.001 A 
ATOM     15  C   UNL d   1     -50.438  15.137  23.697  0.00  0.00     0.000 A 
ATOM     16  C   UNL d   1     -50.536  14.475  23.211  0.00  0.00     0.002 A 
ENDBRANCH   5  10
ENDBRANCH   1   4
BRANCH   2  17
ATOM     17  C   UNL d   1     -48.129  12.635  23.271  0.00  0.00     0.224 C 
ATOM     18  S   UNL d   1     -48.290  11.945  23.698  0.00  0.00    -0.037 SA
BRANCH  17  19
ATOM     19  N   UNL d   1     -47.487  13.100  23.481  0.00  0.00    -0.215 NA
BRANCH  19  20
ATOM     20  C   UNL d   1     -46.743  12.917  23.193  0.00  0.00     0.106 A 
ATOM     21  C   UNL d   1     -46.271  13.517  22.853  0.00  0.00     0.112 A 
ATOM     22  C   UNL d   1     -45.520  13.331  22.562  0.00  0.00     0.026 A 
ATOM     23  C   UNL d   1     -45.239  12.557  22.606  0.00  0.00     0.002 A 
ATOM     24  C   UNL d   1     -45.703  11.959  22.942  0.00  0.00     0.002 A 
ATOM     25  C   UNL d   1     -46.454  12.141  23.234  0.00  0.00     0.021 A 
BRANCH  21  26
ATOM     26  O   UNL d   1     -46.558  14.285  22.812  0.00  0.00    -0.327 OA
ATOM     27  C   UNL d   1     -46.048  14.901  22.628  0.00  0.00     0.181 C 
ENDBRANCH  21  26
ENDBRANCH  19  20
ENDBRANCH  17  19
ENDBRANCH   2  17
TORSDOF 6
ENDMDL
MODEL 2
REMARK VINA RESULT:      -5.3      9.430     10.539
REMARK  6 active torsions:
REMARK  status: ('A' for Active; 'I' for Inactive)
REMARK    1  A    between atoms: C_3  and  C_1 
REMARK    2  A    between atoms: C_7  and  C_2 
REMARK       I    between atoms: N_5  and  C_3 
REMARK    3  A    between atoms: C_6  and  N_5 
REMARK    4  A    between atoms: N_10  and  C_6 
REMARK    5  A    between atoms: C_11  and  N_10 
REMARK    6  A    between atoms: O_18  and  C_15 
ROOT
ATOM      1  C   UNL d   1     -39.267  15.082  18.800  0.00  0.00     0.285 C 
ATOM      2  N   UNL d   1     -39.237  14.958  19.607  0.00  0.00    -0.179 NA
ATOM      3  O   UNL d   1     -38.623  15.439  18.424  0.00  0.00    -0.265 OA
ENDROOT
BRANCH   1   4
ATOM      4  C   UNL d   1     -39.916  14.863  18.354  0.00  0.00     0.103 A 
ATOM      5  C   UNL d   1     -39.939  14.218  17.839  0.00  0.00     0.116 A 
ATOM      6  N   UNL d   1     -40.690  14.196  17.504  0.00  0.00    -0.126 NA
ATOM      7  O   UNL d   1     -41.130  14.823  17.809  0.00  0.00    -0.211 OA
ATOM      8  C   UNL d   1     -40.649  15.224  18.327  0.00  0.00     0.131 A 
ATOM      9  C   UNL d   1     -40.866  15.887  18.756  0.00  0.00     0.029 C 
BRANCH   5  10
ATOM     10  C   UNL d   1     -39.324  13.694  17.688  0.00  0.00     0.031 A 
ATOM     11  C   UNL d   1     -38.906  13.743  16.984  0.00  0.00     0.059 A 
ATOM     12 CL   UNL d   1     -39.103  14.317  16.431  0.00  0.00    -0.082 Cl
ATOM     13  C   UNL d   1     -38.297  13.221  16.839  0.00  0.00     0.011 A 
ATOM     14  C   UNL d   1     -38.096  12.641  17.395  0.00  0.00     0.001 A 
ATOM     15  C   UNL d   1     -38.520  12.598  18.098  0.00  0.00     0.000 A 
ATOM     16  C   UNL d   1     -39.140  13.123  18.256  0.00  0.00     0.002 A 
ENDBRANCH   5  10
ENDBRANCH   1   4
BRANCH   2  17
ATOM     17  C   UNL d   1     -38.589  15.177  20.053  0.00  0.00     0.224 C 
ATOM     18  S   UNL d   1     -38.235  15.912  19.914  0.00  0.00    -0.037 SA
BRANCH  17  19
ATOM     19  N   UNL d   1     -38.283  14.684  20.634  0.00  0.00    -0.215 NA
BRANCH  19  20
ATOM     20  C   UNL d   1     -38.522  14.778  21.410  0.00  0.00     0.106 A 
ATOM     21  C   UNL d   1     -38.510  14.124  21.930  0.00  0.00     0.112 A 
ATOM     22  C   UNL d   1     -38.752  14.219  22.715  0.00  0.00     0.026 A 
ATOM     23  C   UNL d   1     -39.003  14.958  22.983  0.00  0.00     0.002 A 
ATOM     24  C   UNL d   1     -39.018  15.610  22.472  0.00  0.00     0.002 A 
ATOM     25  C   UNL d   1     -38.777  15.518  21.687  0.00  0.00     0.021 A 
BRANCH  21  26
ATOM     26  O   UNL d   1     -38.258  13.393  21.656  0.00  0.00    -0.327 OA
ATOM     27  C   UNL d   1     -37.949  12.844  22.183  0.00  0.00     0.181 C 
ENDBRANCH  21  26
ENDBRANCH  19  20
ENDBRANCH  17  19
ENDBRANCH   2  17
TORSDOF 6
ENDMDL
MODEL 3
REMARK VINA RESULT:      -4.6      8.367     10.277
REMARK  6 active torsions:
REMARK  status: ('A' for Active; 'I' for Inactive)
REMARK    1  A    between atoms: C_3  and  C_1 
REMARK    2  A    between atoms: C_7  and  C_2 
REMARK       I    between atoms: N_5  and  C_3 
REMARK    3  A    between atoms: C_6  and  N_5 
REMARK    4  A    between atoms: N_10  and  C_6 
REMARK    5  A    between atoms: C_11  and  N_10 
REMARK    6  A    between atoms: O_18  and  C_15 
ROOT
ATOM      1  C   UNL d   1     -38.692  14.290  18.566  0.00  0.00     0.285 C 
ATOM      2  N   UNL d   1     -38.864  14.157  19.353  0.00  0.00    -0.179 NA
ATOM      3  O   UNL d   1     -38.327  15.000  18.348  0.00  0.00    -0.265 OA
ENDROOT
BRANCH   1   4
ATOM      4  C   UNL d   1     -38.872  13.742  17.987  0.00  0.00     0.103 A 
ATOM      5  C   UNL d   1     -39.442  13.845  17.398  0.00  0.00     0.116 A 
ATOM      6  N   UNL d   1     -39.445  13.166  16.934  0.00  0.00    -0.126 NA
ATOM      7  O   UNL d   1     -38.880  12.644  17.233  0.00  0.00    -0.211 OA
ATOM      8  C   UNL d   1     -38.536  13.004  17.875  0.00  0.00     0.131 A 
ATOM      9  C   UNL d   1     -37.944  12.679  18.339  0.00  0.00     0.029 C 
BRANCH   5  10
ATOM     10  C   UNL d   1     -39.919  14.506  17.294  0.00  0.00     0.031 A 
ATOM     11  C   UNL d   1     -39.742  15.053  16.709  0.00  0.00     0.059 A 
ATOM     12 CL   UNL d   1     -39.088  14.939  16.228  0.00  0.00    -0.082 Cl
ATOM     13  C   UNL d   1     -40.219  15.708  16.610  0.00  0.00     0.011 A 
ATOM     14  C   UNL d   1     -40.880  15.825  17.095  0.00  0.00     0.001 A 
ATOM     15  C   UNL d   1     -41.051  15.272  17.679  0.00  0.00     0.000 A 
ATOM     16  C   UNL d   1     -40.575  14.605  17.788  0.00  0.00     0.002 A 
ENDBRANCH   5  10
ENDBRANCH   1   4
BRANCH   2  17
ATOM     17  C   UNL d   1     -38.685  14.706  19.932  0.00  0.00     0.224 C 
ATOM     18  S   UNL d   1     -37.945  15.076  19.920  0.00  0.00    -0.037 SA
BRANCH  17  19
ATOM     19  N   UNL d   1     -39.223  14.895  20.523  0.00  0.00    -0.215 NA
BRANCH  19  20
ATOM     20  C   UNL d   1     -39.242  14.450  21.209  0.00  0.00     0.106 A 
ATOM     21  C   UNL d   1     -39.977  14.217  21.531  0.00  0.00     0.112 A 
ATOM     22  C   UNL d   1     -39.996  13.767  22.224  0.00  0.00     0.026 A 
ATOM     23  C   UNL d   1     -39.292  13.550  22.595  0.00  0.00     0.002 A 
ATOM     24  C   UNL d   1     -38.561  13.777  22.281  0.00  0.00     0.002 A 
ATOM     25  C   UNL d   1     -38.538  14.227  21.587  0.00  0.00     0.021 A 
BRANCH  21  26
ATOM     26  O   UNL d   1     -40.673  14.438  21.156  0.00  0.00    -0.327 OA
ATOM     27  C   UNL d   1     -41.391  14.145  21.424  0.00  0.00     0.181 C 
ENDBRANCH  21  26
ENDBRANCH  19  20
ENDBRANCH  17  19
ENDBRANCH   2  17
TORSDOF 6
ENDMDL
MODEL 4
REMARK VINA RESULT:      -4.2      1.647      2.672
REMARK  6 active torsions:
REMARK  status: ('A' for Active; 'I' for Inactive)
REMARK    1  A    between atoms: C_3  and  C_1 
REMARK    2  A    between atoms: C_7  and  C_2 
REMARK       I    between atoms: N_5  and  C_3 
REMARK    3  A    between atoms: C_6  and  N_5 
REMARK    4  A    between atoms: N_10  and  C_6 
REMARK    5  A    between atoms: C_11  and  N_10 
REMARK    6  A    between atoms: O_18  and  C_15 
ROOT
ATOM      1  C   UNL d   1     -47.463  13.273  22.640  0.00  0.00     0.285 C 
ATOM      2  N   UNL d   1     -47.067  13.004  23.301  0.00  0.00    -0.179 NA
ATOM      3  O   UNL d   1     -47.405  12.844  21.935  0.00  0.00    -0.265 OA
ENDROOT
BRANCH   1   4
ATOM      4  C   UNL d   1     -47.916  13.953  22.654  0.00  0.00     0.103 A 
ATOM      5  C   UNL d   1     -48.737  13.976  22.566  0.00  0.00     0.116 A 
ATOM      6  N   UNL d   1     -48.969  14.764  22.615  0.00  0.00    -0.126 NA
ATOM      7  O   UNL d   1     -48.296  15.227  22.734  0.00  0.00    -0.211 OA
ATOM      8  C   UNL d   1     -47.659  14.723  22.756  0.00  0.00     0.131 A 
ATOM      9  C   UNL d   1     -46.880  14.951  22.864  0.00  0.00     0.029 C 
BRANCH   5  10
ATOM     10  C   UNL d   1     -49.232  13.331  22.450  0.00  0.00     0.031 A 
ATOM     11  C   UNL d   1     -49.797  13.140  23.013  0.00  0.00     0.059 A 
ATOM     12 CL   UNL d   1     -49.867  13.595  23.692  0.00  0.00    -0.082 Cl
ATOM     13  C   UNL d   1     -50.286  12.498  22.893  0.00  0.00     0.011 A 
ATOM     14  C   UNL d   1     -50.218  12.038  22.209  0.00  0.00     0.001 A 
ATOM     15  C   UNL d   1     -49.649  12.235  21.649  0.00  0.00     0.000 A 
ATOM     16  C   UNL d   1     -49.148  12.884  21.760  0.00  0.00     0.002 A 
ENDBRANCH   5  10
ENDBRANCH   1   4
BRANCH   2  17
ATOM     17  C   UNL d   1     -46.615  12.324  23.287  0.00  0.00     0.224 C 
ATOM     18  S   UNL d   1     -46.897  11.645  23.666  0.00  0.00    -0.037 SA
BRANCH  17  19
ATOM     19  N   UNL d   1     -45.889  12.302  22.904  0.00  0.00    -0.215 NA
BRANCH  19  20
ATOM     20  C   UNL d   1     -45.359  11.704  23.078  0.00  0.00     0.106 A 
ATOM     21  C   UNL d   1     -44.569  11.759  22.809  0.00  0.00     0.112 A 
ATOM     22  C   UNL d   1     -44.033  11.154  22.985  0.00  0.00     0.026 A 
ATOM     23  C   UNL d   1     -44.278  10.500  23.424  0.00  0.00     0.002 A 
ATOM     24  C   UNL d   1     -45.059  10.441  23.693  0.00  0.00     0.002 A 
ATOM     25  C   UNL d   1     -45.598  11.043  23.519  0.00  0.00     0.021 A 
BRANCH  21  26
ATOM     26  O   UNL d   1     -44.333  12.413  22.373  0.00  0.00    -0.327 OA
ATOM     27  C   UNL d   1     -43.616  12.400  21.975  0.00  0.00     0.181 C 
ENDBRANCH  21  26
ENDBRANCH  19  20
ENDBRANCH  17  19
ENDBRANCH   2  17
TORSDOF 6
ENDMDL
MODEL 5
REMARK VINA RESULT:      -3.4      1.779      4.084
REMARK  6 active torsions:
REMARK  status: ('A' for Active; 'I' for Inactive)
REMARK    1  A    between atoms: C_3  and  C_1 
REMARK    2  A    between atoms: C_7  and  C_2 
REMARK       I    between atoms: N_5  and  C_3 
REMARK    3  A    between atoms: C_6  and  N_5 
REMARK    4  A    between atoms: N_10  and  C_6 
REMARK    5  A    between atoms: C_11  and  N_10 
REMARK    6  A    between atoms: O_18  and  C_15 
ROOT
ATOM      1  C   UNL d   1     -47.303  11.916  23.259  0.00  0.00     0.285 C 
ATOM      2  N   UNL d   1     -47.795  11.425  22.831  0.00  0.00    -0.179 NA
ATOM      3  O   UNL d   1     -47.634  12.534  23.698  0.00  0.00    -0.265 OA
ENDROOT
BRANCH   1   4
ATOM      4  C   UNL d   1     -46.492  11.814  23.266  0.00  0.00     0.103 A 
ATOM      5  C   UNL d   1     -45.941  12.396  23.066  0.00  0.00     0.116 A 
ATOM      6  N   UNL d   1     -45.192  12.066  23.147  0.00  0.00    -0.126 NA
ATOM      7  O   UNL d   1     -45.277  11.284  23.395  0.00  0.00    -0.211 OA
ATOM      8  C   UNL d   1     -46.074  11.140  23.465  0.00  0.00     0.131 A 
ATOM      9  C   UNL d   1     -46.407  10.429  23.698  0.00  0.00     0.029 C 
BRANCH   5  10
ATOM     10  C   UNL d   1     -46.109  13.165  22.830  0.00  0.00     0.031 A 
ATOM     11  C   UNL d   1     -45.848  13.438  22.102  0.00  0.00     0.059 A 
ATOM     12 CL   UNL d   1     -45.418  12.942  21.611  0.00  0.00    -0.082 Cl
ATOM     13  C   UNL d   1     -46.018  14.202  21.873  0.00  0.00     0.011 A 
ATOM     14  C   UNL d   1     -46.452  14.705  22.367  0.00  0.00     0.001 A 
ATOM     15  C   UNL d   1     -46.711  14.424  23.096  0.00  0.00     0.000 A 
ATOM     16  C   UNL d   1     -46.544  13.651  23.339  0.00  0.00     0.002 A 
ENDBRANCH   5  10
ENDBRANCH   1   4
BRANCH   2  17
ATOM     17  C   UNL d   1     -48.606  11.527  22.824  0.00  0.00     0.224 C 
ATOM     18  S   UNL d   1     -49.030  11.422  23.526  0.00  0.00    -0.037 SA
BRANCH  17  19
ATOM     19  N   UNL d   1     -49.005  11.730  22.136  0.00  0.00    -0.215 NA
BRANCH  19  20
ATOM     20  C   UNL d   1     -49.687  12.179  22.183  0.00  0.00     0.106 A 
ATOM     21  C   UNL d   1     -49.809  12.804  21.641  0.00  0.00     0.112 A 
ATOM     22  C   UNL d   1     -50.498  13.259  21.689  0.00  0.00     0.026 A 
ATOM     23  C   UNL d   1     -51.062  13.095  22.268  0.00  0.00     0.002 A 
ATOM     24  C   UNL d   1     -50.946  12.477  22.807  0.00  0.00     0.002 A 
ATOM     25  C   UNL d   1     -50.258  12.020  22.763  0.00  0.00     0.021 A 
BRANCH  21  26
ATOM     26  O   UNL d   1     -49.243  12.961  21.068  0.00  0.00    -0.327 OA
ATOM     27  C   UNL d   1     -49.440  13.420  20.416  0.00  0.00     0.181 C 
ENDBRANCH  21  26
ENDBRANCH  19  20
ENDBRANCH  17  19
ENDBRANCH   2  17
TORSDOF 6
ENDMDL
