MODEL 1
REMARK VINA RESULT:       6.0      0.000      0.000
REMARK  10 active torsions:
REMARK  status: ('A' for Active; 'I' for Inactive)
REMARK    1  A    between atoms: C_10  and  N_1 
REMARK    2  A    between atoms: S_7  and  C_2 
REMARK    3  A    between atoms: C_9  and  C_3 
REMARK       I    between atoms: C_6  and  N_8 
REMARK    4  A    between atoms: C_11  and  C_6 
REMARK    5  A    between atoms: C_15  and  S_7 
REMARK    6  A    between atoms: N_8  and  C_9 
REMARK    7  A    between atoms: C_12  and  C_15 
REMARK    8  A    between atoms: O_21  and  C_12 
REMARK    9  A    between atoms: O_22  and  C_18 
REMARK   10  A    between atoms: C_25  and  O_21 
ROOT
ATOM      1  N   UNL d   1     -41.559-122.396 -52.490  0.00  0.00    -0.268 N 
ATOM      2  C   UNL d   1     -41.810-122.868 -53.119  0.00  0.00     0.201 A 
ATOM      3  C   UNL d   1     -41.392-122.906 -51.854  0.00  0.00     0.190 A 
ATOM      4  N   UNL d   1     -41.798-123.659 -52.873  0.00  0.00    -0.121 NA
ATOM      5  N   UNL d   1     -41.542-123.686 -52.100  0.00  0.00    -0.126 NA
ENDROOT
BRANCH   3   6
ATOM      6  C   UNL d   1     -41.123-122.679 -51.106  0.00  0.00     0.141 C 
BRANCH   6   7
ATOM      7  N   UNL d   1     -41.715-122.959 -50.597  0.00  0.00    -0.203 NA
ATOM      8  C   UNL d   1     -41.741-122.695 -49.815  0.00  0.00     0.279 C 
ATOM      9  O   UNL d   1     -41.185-122.158 -49.538  0.00  0.00    -0.265 OA
BRANCH   8  10
ATOM     10  C   UNL d   1     -42.333-122.977 -49.314  0.00  0.00     0.058 A 
ATOM     11  C   UNL d   1     -42.143-123.434 -48.661  0.00  0.00     0.007 A 
ATOM     12  C   UNL d   1     -42.734-123.717 -48.160  0.00  0.00     0.024 A 
ATOM     13  C   UNL d   1     -43.524-123.534 -48.324  0.00  0.00     0.094 A 
ATOM     14  C   UNL d   1     -43.713-123.077 -48.976  0.00  0.00     0.024 A 
ATOM     15  C   UNL d   1     -43.122-122.795 -49.477  0.00  0.00     0.007 A 
BRANCH  13  16
ATOM     16  O   UNL d   1     -44.114-123.817 -47.822  0.00  0.00    -0.328 OA
ATOM     17  C   UNL d   1     -44.012-123.777 -47.011  0.00  0.00     0.181 C 
ENDBRANCH  13  16
ENDBRANCH   8  10
ENDBRANCH   6   7
ENDBRANCH   3   6
BRANCH   1  18
ATOM     18  C   UNL d   1     -41.489-121.585 -52.493  0.00  0.00     0.067 A 
ATOM     19  C   UNL d   1     -41.249-121.192 -51.812  0.00  0.00     0.018 A 
ATOM     20  C   UNL d   1     -41.178-120.368 -51.816  0.00  0.00     0.002 A 
ATOM     21  C   UNL d   1     -41.348-119.941 -52.500  0.00  0.00     0.000 A 
ATOM     22  C   UNL d   1     -41.588-120.339 -53.178  0.00  0.00     0.002 A 
ATOM     23  C   UNL d   1     -41.658-121.154 -53.175  0.00  0.00     0.018 A 
ENDBRANCH   1  18
BRANCH   2  24
ATOM     24  S   UNL d   1     -42.037-122.599 -53.868  0.00  0.00    -0.042 SA
BRANCH  24  25
ATOM     25  C   UNL d   1     -42.541-123.052 -54.340  0.00  0.00     0.107 C 
BRANCH  25  26
ATOM     26  C   UNL d   1     -42.670-122.833 -55.120  0.00  0.00     0.307 C 
ATOM     27  O   UNL d   1     -43.420-122.633 -55.373  0.00  0.00    -0.258 OA
BRANCH  26  28
ATOM     28  O   UNL d   1     -42.036-122.817 -55.648  0.00  0.00    -0.271 OA
BRANCH  28  29
ATOM     29  C   UNL d   1     -42.008-122.239 -56.230  0.00  0.00     0.126 C 
ATOM     30  C   UNL d   1     -42.046-121.443 -56.018  0.00  0.00     0.029 C 
ENDBRANCH  28  29
ENDBRANCH  26  28
ENDBRANCH  25  26
ENDBRANCH  24  25
ENDBRANCH   2  24
TORSDOF 10
ENDMDL
MODEL 2
REMARK VINA RESULT:       9.0      1.810      2.808
REMARK  10 active torsions:
REMARK  status: ('A' for Active; 'I' for Inactive)
REMARK    1  A    between atoms: C_10  and  N_1 
REMARK    2  A    between atoms: S_7  and  C_2 
REMARK    3  A    between atoms: C_9  and  C_3 
REMARK       I    between atoms: C_6  and  N_8 
REMARK    4  A    between atoms: C_11  and  C_6 
REMARK    5  A    between atoms: C_15  and  S_7 
REMARK    6  A    between atoms: N_8  and  C_9 
REMARK    7  A    between atoms: C_12  and  C_15 
REMARK    8  A    between atoms: O_21  and  C_12 
REMARK    9  A    between atoms: O_22  and  C_18 
REMARK   10  A    between atoms: C_25  and  O_21 
ROOT
ATOM      1  N   UNL d   1     -41.504-121.742 -52.780  0.00  0.00    -0.268 N 
ATOM      2  C   UNL d   1     -41.271-120.961 -52.646  0.00  0.00     0.201 A 
ATOM      3  C   UNL d   1     -41.541-122.116 -52.038  0.00  0.00     0.190 A 
ATOM      4  N   UNL d   1     -41.166-120.856 -51.830  0.00  0.00    -0.121 NA
ATOM      5  N   UNL d   1     -41.330-121.561 -51.455  0.00  0.00    -0.126 NA
ENDROOT
BRANCH   3   6
ATOM      6  C   UNL d   1     -41.751-122.904 -51.901  0.00  0.00     0.141 C 
BRANCH   6   7
ATOM      7  N   UNL d   1     -41.659-122.985 -51.080  0.00  0.00    -0.203 NA
ATOM      8  C   UNL d   1     -42.308-123.199 -50.616  0.00  0.00     0.279 C 
ATOM      9  O   UNL d   1     -43.041-123.332 -50.961  0.00  0.00    -0.265 OA
BRANCH   8  10
ATOM     10  C   UNL d   1     -42.211-123.278 -49.800  0.00  0.00     0.058 A 
ATOM     11  C   UNL d   1     -41.590-122.907 -49.417  0.00  0.00     0.007 A 
ATOM     12  C   UNL d   1     -41.492-122.986 -48.602  0.00  0.00     0.024 A 
ATOM     13  C   UNL d   1     -42.030-123.445 -48.173  0.00  0.00     0.094 A 
ATOM     14  C   UNL d   1     -42.651-123.816 -48.556  0.00  0.00     0.024 A 
ATOM     15  C   UNL d   1     -42.749-123.737 -49.371  0.00  0.00     0.007 A 
BRANCH  13  16
ATOM     16  O   UNL d   1     -41.932-123.524 -47.358  0.00  0.00    -0.328 OA
ATOM     17  C   UNL d   1     -41.261-123.222 -46.998  0.00  0.00     0.181 C 
ENDBRANCH  13  16
ENDBRANCH   8  10
ENDBRANCH   6   7
ENDBRANCH   3   6
BRANCH   1  18
ATOM     18  C   UNL d   1     -41.666-122.078 -53.503  0.00  0.00     0.067 A 
ATOM     19  C   UNL d   1     -42.250-121.755 -53.983  0.00  0.00     0.018 A 
ATOM     20  C   UNL d   1     -42.415-122.098 -54.718  0.00  0.00     0.002 A 
ATOM     21  C   UNL d   1     -41.995-122.761 -54.969  0.00  0.00     0.000 A 
ATOM     22  C   UNL d   1     -41.412-123.080 -54.485  0.00  0.00     0.002 A 
ATOM     23  C   UNL d   1     -41.249-122.742 -53.758  0.00  0.00     0.018 A 
ENDBRANCH   1  18
BRANCH   2  24
ATOM     24  S   UNL d   1     -41.161-120.379 -53.224  0.00  0.00    -0.042 SA
BRANCH  24  25
ATOM     25  C   UNL d   1     -41.126-119.582 -53.014  0.00  0.00     0.107 C 
BRANCH  25  26
ATOM     26  C   UNL d   1     -41.417-119.014 -53.531  0.00  0.00     0.307 C 
ATOM     27  O   UNL d   1     -41.390-119.139 -54.337  0.00  0.00    -0.258 OA
BRANCH  26  28
ATOM     28  O   UNL d   1     -41.736-118.316 -53.230  0.00  0.00    -0.271 OA
BRANCH  28  29
ATOM     29  C   UNL d   1     -41.806-117.659 -53.717  0.00  0.00     0.126 C 
ATOM     30  C   UNL d   1     -41.504-116.933 -53.468  0.00  0.00     0.029 C 
ENDBRANCH  28  29
ENDBRANCH  26  28
ENDBRANCH  25  26
ENDBRANCH  24  25
ENDBRANCH   2  24
TORSDOF 10
ENDMDL
