MODEL 1
REMARK VINA RESULT:      -7.5      0.000      0.000
REMARK  4 active torsions:
REMARK  status: ('A' for Active; 'I' for Inactive)
REMARK    1  A    between atoms: C_7  and  N_1 
REMARK    2  A    between atoms: C_6  and  C_4 
REMARK    3  A    between atoms: C_12  and  C_6 
REMARK    4  A    between atoms: C_8  and  C_7 
ROOT
ATOM      1  N   UNL d   1     -49.467  14.014  22.181  0.00  0.00    -0.229 N 
ATOM      2  C   UNL d   1     -49.069  13.512  21.662  0.00  0.00     0.299 A 
ATOM      3  C   UNL d   1     -48.905  14.400  22.659  0.00  0.00     0.274 A 
ATOM      4  C   UNL d   1     -48.150  14.133  22.433  0.00  0.00     0.090 A 
ATOM      5  S   UNL d   1     -48.252  13.585  21.819  0.00  0.00    -0.022 SA
ATOM      6  O   UNL d   1     -49.413  13.022  21.090  0.00  0.00    -0.259 OA
ATOM      7  O   UNL d   1     -49.071  14.951  23.253  0.00  0.00    -0.266 OA
ENDROOT
BRANCH   4   8
ATOM      8  C   UNL d   1     -47.432  14.369  22.759  0.00  0.00     0.011 C 
BRANCH   8   9
ATOM      9  C   UNL d   1     -46.940  13.718  22.897  0.00  0.00     0.001 A 
ATOM     10  C   UNL d   1     -46.297  13.575  22.396  0.00  0.00     0.003 A 
ATOM     11  C   UNL d   1     -45.809  12.927  22.535  0.00  0.00     0.042 A 
ATOM     12  C   UNL d   1     -45.958  12.423  23.170  0.00  0.00     0.196 A 
ATOM     13  C   UNL d   1     -46.598  12.571  23.664  0.00  0.00     0.042 A 
ATOM     14  O   UNL d   1     -45.466  11.770  23.311  0.00  0.00    -0.287 OA
ATOM     15  C   UNL d   1     -47.089  13.214  23.532  0.00  0.00     0.003 A 
ENDBRANCH   8   9
ENDBRANCH   4   8
BRANCH   1  16
ATOM     16  C   UNL d   1     -50.286  13.998  22.088  0.00  0.00     0.157 C 
BRANCH  16  17
ATOM     17  C   UNL d   1     -50.761  14.552  22.482  0.00  0.00     0.230 C 
ATOM     18  O   UNL d   1     -51.064  14.382  23.234  0.00  0.00    -0.643 OA
ATOM     19  O   UNL d   1     -50.935  15.276  22.127  0.00  0.00    -0.643 OA
ENDBRANCH  16  17
ENDBRANCH   1  16
TORSDOF 4
ENDMDL
MODEL 2
REMARK VINA RESULT:      -7.2      1.450      4.018
REMARK  4 active torsions:
REMARK  status: ('A' for Active; 'I' for Inactive)
REMARK    1  A    between atoms: C_7  and  N_1 
REMARK    2  A    between atoms: C_6  and  C_4 
REMARK    3  A    between atoms: C_12  and  C_6 
REMARK    4  A    between atoms: C_8  and  C_7 
ROOT
ATOM      1  N   UNL d   1     -46.734  13.235  23.078  0.00  0.00    -0.229 N 
ATOM      2  C   UNL d   1     -47.200  13.904  22.956  0.00  0.00     0.299 A 
ATOM      3  C   UNL d   1     -47.235  12.586  23.225  0.00  0.00     0.274 A 
ATOM      4  C   UNL d   1     -48.021  12.858  23.193  0.00  0.00     0.090 A 
ATOM      5  S   UNL d   1     -47.998  13.670  23.027  0.00  0.00    -0.022 SA
ATOM      6  O   UNL d   1     -46.929  14.669  22.792  0.00  0.00    -0.259 OA
ATOM      7  O   UNL d   1     -46.992  11.811  23.376  0.00  0.00    -0.266 OA
ENDROOT
BRANCH   4   8
ATOM      8  C   UNL d   1     -48.698  12.404  23.306  0.00  0.00     0.011 C 
BRANCH   8   9
ATOM      9  C   UNL d   1     -49.290  12.614  22.768  0.00  0.00     0.001 A 
ATOM     10  C   UNL d   1     -49.298  12.277  22.012  0.00  0.00     0.003 A 
ATOM     11  C   UNL d   1     -49.889  12.487  21.478  0.00  0.00     0.042 A 
ATOM     12  C   UNL d   1     -50.469  13.031  21.694  0.00  0.00     0.196 A 
ATOM     13  C   UNL d   1     -50.455  13.362  22.446  0.00  0.00     0.042 A 
ATOM     14  O   UNL d   1     -51.064  13.243  21.157  0.00  0.00    -0.287 OA
ATOM     15  C   UNL d   1     -49.871  13.158  22.983  0.00  0.00     0.003 A 
ENDBRANCH   8   9
ENDBRANCH   4   8
BRANCH   1  16
ATOM     16  C   UNL d   1     -45.925  13.385  23.024  0.00  0.00     0.157 C 
BRANCH  16  17
ATOM     17  C   UNL d   1     -45.435  12.877  22.588  0.00  0.00     0.230 C 
ATOM     18  O   UNL d   1     -45.042  12.254  22.965  0.00  0.00    -0.643 OA
ATOM     19  O   UNL d   1     -45.337  12.991  21.777  0.00  0.00    -0.643 OA
ENDBRANCH  16  17
ENDBRANCH   1  16
TORSDOF 4
ENDMDL
MODEL 3
REMARK VINA RESULT:      -6.3      1.359      3.936
REMARK  4 active torsions:
REMARK  status: ('A' for Active; 'I' for Inactive)
REMARK    1  A    between atoms: C_7  and  N_1 
REMARK    2  A    between atoms: C_6  and  C_4 
REMARK    3  A    between atoms: C_12  and  C_6 
REMARK    4  A    between atoms: C_8  and  C_7 
ROOT
ATOM      1  N   UNL d   1     -47.482  12.216  23.173  0.00  0.00    -0.229 N 
ATOM      2  C   UNL d   1     -48.222  11.926  22.953  0.00  0.00     0.299 A 
ATOM      3  C   UNL d   1     -47.359  12.945  22.790  0.00  0.00     0.274 A 
ATOM      4  C   UNL d   1     -48.031  13.108  22.327  0.00  0.00     0.090 A 
ATOM      5  S   UNL d   1     -48.563  12.480  22.428  0.00  0.00    -0.022 SA
ATOM      6  O   UNL d   1     -48.567  11.217  23.204  0.00  0.00    -0.259 OA
ATOM      7  O   UNL d   1     -46.686  13.420  22.859  0.00  0.00    -0.266 OA
ENDROOT
BRANCH   4   8
ATOM      8  C   UNL d   1     -48.148  13.772  21.855  0.00  0.00     0.011 C 
BRANCH   8   9
ATOM      9  C   UNL d   1     -48.837  14.174  22.073  0.00  0.00     0.001 A 
ATOM     10  C   UNL d   1     -48.788  14.839  22.563  0.00  0.00     0.003 A 
ATOM     11  C   UNL d   1     -49.475  15.238  22.778  0.00  0.00     0.042 A 
ATOM     12  C   UNL d   1     -50.209  14.978  22.507  0.00  0.00     0.196 A 
ATOM     13  C   UNL d   1     -50.250  14.317  22.020  0.00  0.00     0.042 A 
ATOM     14  O   UNL d   1     -50.902  15.379  22.723  0.00  0.00    -0.287 OA
ATOM     15  C   UNL d   1     -49.570  13.914  21.801  0.00  0.00     0.003 A 
ENDBRANCH   8   9
ENDBRANCH   4   8
BRANCH   1  16
ATOM     16  C   UNL d   1     -47.079  11.721  23.695  0.00  0.00     0.157 C 
BRANCH  16  17
ATOM     17  C   UNL d   1     -46.288  11.519  23.551  0.00  0.00     0.230 C 
ATOM     18  O   UNL d   1     -45.685  12.068  23.698  0.00  0.00    -0.643 OA
ATOM     19  O   UNL d   1     -46.096  10.771  23.261  0.00  0.00    -0.643 OA
ENDBRANCH  16  17
ENDBRANCH   1  16
TORSDOF 4
ENDMDL
MODEL 4
REMARK VINA RESULT:      -5.7      8.728      9.401
REMARK  4 active torsions:
REMARK  status: ('A' for Active; 'I' for Inactive)
REMARK    1  A    between atoms: C_7  and  N_1 
REMARK    2  A    between atoms: C_6  and  C_4 
REMARK    3  A    between atoms: C_12  and  C_6 
REMARK    4  A    between atoms: C_8  and  C_7 
ROOT
ATOM      1  N   UNL d   1     -40.127  14.838  18.200  0.00  0.00    -0.229 N 
ATOM      2  C   UNL d   1     -40.576  14.306  18.641  0.00  0.00     0.299 A 
ATOM      3  C   UNL d   1     -39.692  15.317  18.725  0.00  0.00     0.274 A 
ATOM      4  C   UNL d   1     -39.875  15.077  19.501  0.00  0.00     0.090 A 
ATOM      5  S   UNL d   1     -40.420  14.454  19.448  0.00  0.00    -0.022 SA
ATOM      6  O   UNL d   1     -41.090  13.729  18.343  0.00  0.00    -0.259 OA
ATOM      7  O   UNL d   1     -39.171  15.922  18.510  0.00  0.00    -0.266 OA
ENDROOT
BRANCH   4   8
ATOM      8  C   UNL d   1     -39.571  15.399  20.194  0.00  0.00     0.011 C 
BRANCH   8   9
ATOM      9  C   UNL d   1     -39.297  14.806  20.703  0.00  0.00     0.001 A 
ATOM     10  C   UNL d   1     -39.785  14.529  21.311  0.00  0.00     0.003 A 
ATOM     11  C   UNL d   1     -39.510  13.939  21.816  0.00  0.00     0.042 A 
ATOM     12  C   UNL d   1     -38.755  13.626  21.717  0.00  0.00     0.196 A 
ATOM     13  C   UNL d   1     -38.275  13.906  21.111  0.00  0.00     0.042 A 
ATOM     14  O   UNL d   1     -38.477  13.032  22.225  0.00  0.00    -0.287 OA
ATOM     15  C   UNL d   1     -38.541  14.493  20.604  0.00  0.00     0.003 A 
ENDBRANCH   8   9
ENDBRANCH   4   8
BRANCH   1  16
ATOM     16  C   UNL d   1     -40.228  14.755  17.386  0.00  0.00     0.157 C 
BRANCH  16  17
ATOM     17  C   UNL d   1     -40.383  15.419  16.915  0.00  0.00     0.230 C 
ATOM     18  O   UNL d   1     -41.149  15.731  16.874  0.00  0.00    -0.643 OA
ATOM     19  O   UNL d   1     -39.775  15.773  16.484  0.00  0.00    -0.643 OA
ENDBRANCH  16  17
ENDBRANCH   1  16
TORSDOF 4
ENDMDL
MODEL 5
REMARK VINA RESULT:      -5.4      8.673     10.282
REMARK  4 active torsions:
REMARK  status: ('A' for Active; 'I' for Inactive)
REMARK    1  A    between atoms: C_7  and  N_1 
REMARK    2  A    between atoms: C_6  and  C_4 
REMARK    3  A    between atoms: C_12  and  C_6 
REMARK    4  A    between atoms: C_8  and  C_7 
ROOT
ATOM      1  N   UNL d   1     -38.806  14.452  17.501  0.00  0.00    -0.229 N 
ATOM      2  C   UNL d   1     -38.875  15.254  17.680  0.00  0.00     0.299 A 
ATOM      3  C   UNL d   1     -39.424  14.042  17.882  0.00  0.00     0.274 A 
ATOM      4  C   UNL d   1     -39.880  14.598  18.301  0.00  0.00     0.090 A 
ATOM      5  S   UNL d   1     -39.541  15.345  18.175  0.00  0.00    -0.022 SA
ATOM      6  O   UNL d   1     -38.376  15.860  17.417  0.00  0.00    -0.259 OA
ATOM      7  O   UNL d   1     -39.558  13.227  17.848  0.00  0.00    -0.266 OA
ENDROOT
BRANCH   4   8
ATOM      8  C   UNL d   1     -40.546  14.438  18.756  0.00  0.00     0.011 C 
BRANCH   8   9
ATOM      9  C   UNL d   1     -40.498  14.808  19.495  0.00  0.00     0.001 A 
ATOM     10  C   UNL d   1     -40.123  14.422  20.124  0.00  0.00     0.003 A 
ATOM     11  C   UNL d   1     -40.076  14.791  20.858  0.00  0.00     0.042 A 
ATOM     12  C   UNL d   1     -40.400  15.540  20.968  0.00  0.00     0.196 A 
ATOM     13  C   UNL d   1     -40.771  15.918  20.339  0.00  0.00     0.042 A 
ATOM     14  O   UNL d   1     -40.353  15.913  21.707  0.00  0.00    -0.287 OA
ATOM     15  C   UNL d   1     -40.822  15.557  19.605  0.00  0.00     0.003 A 
ENDBRANCH   8   9
ENDBRANCH   4   8
BRANCH   1  16
ATOM     16  C   UNL d   1     -38.167  14.279  17.011  0.00  0.00     0.157 C 
BRANCH  16  17
ATOM     17  C   UNL d   1     -38.234  13.692  16.430  0.00  0.00     0.230 C 
ATOM     18  O   UNL d   1     -38.596  13.863  15.705  0.00  0.00    -0.643 OA
ATOM     19  O   UNL d   1     -37.940  12.934  16.570  0.00  0.00    -0.643 OA
ENDBRANCH  16  17
ENDBRANCH   1  16
TORSDOF 4
ENDMDL
