MODEL 1
REMARK VINA RESULT:      88.6      0.000      0.000
REMARK  7 active torsions:
REMARK  status: ('A' for Active; 'I' for Inactive)
REMARK    1  A    between atoms: S_2  and  C_1 
REMARK    2  A    between atoms: C_7  and  S_2 
REMARK    3  A    between atoms: C_9  and  N_3 
REMARK    4  A    between atoms: C_11  and  C_7 
REMARK    5  A    between atoms: C_8  and  C_9 
REMARK       I    between atoms: N_10  and  C_8 
REMARK       I    between atoms: N_15  and  C_11 
REMARK    6  A    between atoms: C_12  and  C_16 
REMARK    7  A    between atoms: C_23  and  N_15 
ROOT
ATOM      1  C   UNL d   1      60.589  48.683  50.443  0.00  0.00     0.107 A 
ATOM      2  N   UNL d   1      59.496  49.351  50.803  0.00  0.00    -0.299 N 
ATOM      3  C   UNL d   1      59.841  48.929  50.186  0.00  0.00     0.092 A 
ATOM      4  C   UNL d   1      60.699  48.955  51.214  0.00  0.00     0.028 A 
ATOM      5  C   UNL d   1      60.019  49.369  51.436  0.00  0.00     0.065 A 
ATOM      6  C   UNL d   1      61.327  48.878  51.739  0.00  0.00     0.002 A 
ATOM      7  C   UNL d   1      59.975  49.705  52.187  0.00  0.00     0.018 A 
ATOM      8  C   UNL d   1      61.284  49.216  52.495  0.00  0.00     0.000 A 
ATOM      9  C   UNL d   1      60.603  49.629  52.713  0.00  0.00     0.002 A 
ENDROOT
BRANCH   1  10
ATOM     10  S   UNL d   1      61.134  48.241  50.000  0.00  0.00     0.217 S 
ATOM     11  O   UNL d   1      60.757  47.532  50.165  0.00  0.00    -0.217 OA
ATOM     12  O   UNL d   1      61.513  48.962  49.835  0.00  0.00    -0.217 OA
BRANCH  10  13
ATOM     13  C   UNL d   1      61.680  47.802  49.557  0.00  0.00     0.161 C 
BRANCH  13  14
ATOM     14  C   UNL d   1      61.873  47.044  49.784  0.00  0.00     0.291 C 
ATOM     15  N   UNL d   1      61.531  46.395  49.407  0.00  0.00    -0.207 NA
ATOM     16  O   UNL d   1      62.415  46.922  50.398  0.00  0.00    -0.264 OA
BRANCH  15  17
ATOM     17  C   UNL d   1      61.728  45.629  49.639  0.00  0.00     0.085 A 
ATOM     18  C   UNL d   1      62.255  45.178  49.188  0.00  0.00     0.019 A 
ATOM     19  C   UNL d   1      62.456  44.414  49.414  0.00  0.00     0.006 A 
ATOM     20  C   UNL d   1      62.129  44.085  50.104  0.00  0.00     0.059 A 
ATOM     21  C   UNL d   1      61.602  44.526  50.563  0.00  0.00     0.006 A 
ATOM     22  C   UNL d   1      61.399  45.304  50.331  0.00  0.00     0.019 A 
BRANCH  20  23
ATOM     23  C   UNL d   1      62.322  43.325  50.338  0.00  0.00     0.297 C 
ATOM     24  O   UNL d   1      62.648  42.783  49.803  0.00  0.00    -0.264 OA
ATOM     25  N   UNL d   1      62.188  43.091  51.132  0.00  0.00    -0.102 N 
ENDBRANCH  20  23
ENDBRANCH  15  17
ENDBRANCH  13  14
ENDBRANCH  10  13
ENDBRANCH   1  10
BRANCH   2  26
ATOM     26  C   UNL d   1      58.748  49.697  50.787  0.00  0.00     0.142 C 
BRANCH  26  27
ATOM     27  C   UNL d   1      58.283  49.643  50.112  0.00  0.00     0.282 C 
ATOM     28  N   UNL d   1      57.463  49.599  50.177  0.00  0.00    -0.271 N 
ATOM     29  C   UNL d   1      57.028  49.603  50.874  0.00  0.00     0.083 A 
ATOM     30  C   UNL d   1      56.926  49.543  49.548  0.00  0.00     0.083 A 
ATOM     31  C   UNL d   1      56.231  49.550  50.688  0.00  0.00     0.021 A 
ATOM     32  C   UNL d   1      56.163  49.512  49.867  0.00  0.00     0.021 A 
ATOM     33  O   UNL d   1      58.639  49.633  49.370  0.00  0.00    -0.265 OA
ENDBRANCH  26  27
ENDBRANCH   2  26
TORSDOF 7
ENDMDL
