MODEL 1
REMARK VINA RESULT:      -8.5      0.000      0.000
REMARK  0 active torsions:
REMARK  status: ('A' for Active; 'I' for Inactive)
ROOT
ATOM      1  C   UNL d   1      52.781  32.409  52.938  0.00  0.00     0.282 A 
ATOM      2  N   UNL d   1      52.736  31.598  52.781  0.00  0.00    -0.189 NA
ATOM      3  N   UNL d   1      53.599  31.339  53.892  0.00  0.00    -0.227 NA
ATOM      4  C   UNL d   1      53.232  32.681  53.569  0.00  0.00     0.076 A 
ATOM      5  C   UNL d   1      53.145  31.063  53.258  0.00  0.00     0.166 A 
ATOM      6  C   UNL d   1      53.642  32.147  54.046  0.00  0.00     0.088 A 
ATOM      7  O   UNL d   1      52.372  32.943  52.461  0.00  0.00    -0.265 OA
ATOM      8  C   UNL d   1      53.276  33.489  53.724  0.00  0.00     0.006 A 
ATOM      9  C   UNL d   1      53.100  30.249  53.099  0.00  0.00     0.042 C 
ATOM     10  C   UNL d   1      54.094  32.420  54.678  0.00  0.00     0.019 A 
ATOM     11  C   UNL d   1      53.730  33.768  54.360  0.00  0.00     0.000 A 
ATOM     12  C   UNL d   1      54.139  33.233  54.837  0.00  0.00     0.002 A 
ENDROOT
TORSDOF 0
ENDMDL
MODEL 2
REMARK VINA RESULT:      -8.4      1.222      1.983
REMARK  0 active torsions:
REMARK  status: ('A' for Active; 'I' for Inactive)
ROOT
ATOM      1  C   UNL d   1      52.775  32.478  52.967  0.00  0.00     0.282 A 
ATOM      2  N   UNL d   1      52.200  32.957  52.616  0.00  0.00    -0.189 NA
ATOM      3  N   UNL d   1      52.478  33.985  53.570  0.00  0.00    -0.227 NA
ATOM      4  C   UNL d   1      53.199  32.753  53.616  0.00  0.00     0.076 A 
ATOM      5  C   UNL d   1      52.051  33.710  52.917  0.00  0.00     0.166 A 
ATOM      6  C   UNL d   1      53.051  33.506  53.918  0.00  0.00     0.088 A 
ATOM      7  O   UNL d   1      52.923  31.725  52.665  0.00  0.00    -0.265 OA
ATOM      8  C   UNL d   1      53.772  32.275  53.965  0.00  0.00     0.006 A 
ATOM      9  C   UNL d   1      51.473  34.190  52.563  0.00  0.00     0.042 C 
ATOM     10  C   UNL d   1      53.475  33.782  54.568  0.00  0.00     0.019 A 
ATOM     11  C   UNL d   1      54.201  32.548  54.620  0.00  0.00     0.000 A 
ATOM     12  C   UNL d   1      54.053  33.302  54.922  0.00  0.00     0.002 A 
ENDROOT
TORSDOF 0
ENDMDL
MODEL 3
REMARK VINA RESULT:      -8.4      1.743      2.509
REMARK  0 active torsions:
REMARK  status: ('A' for Active; 'I' for Inactive)
ROOT
ATOM      1  C   UNL d   1      53.092  34.791  54.269  0.00  0.00     0.282 A 
ATOM      2  N   UNL d   1      52.501  34.868  53.695  0.00  0.00    -0.189 NA
ATOM      3  N   UNL d   1      52.645  33.482  53.370  0.00  0.00    -0.227 NA
ATOM      4  C   UNL d   1      53.455  34.064  54.391  0.00  0.00     0.076 A 
ATOM      5  C   UNL d   1      52.278  34.213  53.246  0.00  0.00     0.166 A 
ATOM      6  C   UNL d   1      53.232  33.409  53.942  0.00  0.00     0.088 A 
ATOM      7  O   UNL d   1      53.315  35.446  54.719  0.00  0.00    -0.265 OA
ATOM      8  C   UNL d   1      54.043  33.990  54.963  0.00  0.00     0.006 A 
ATOM      9  C   UNL d   1      51.684  34.291  52.669  0.00  0.00     0.042 C 
ATOM     10  C   UNL d   1      53.596  32.680  54.064  0.00  0.00     0.019 A 
ATOM     11  C   UNL d   1      54.413  33.258  55.090  0.00  0.00     0.000 A 
ATOM     12  C   UNL d   1      54.189  32.603  54.640  0.00  0.00     0.002 A 
ENDROOT
TORSDOF 0
ENDMDL
MODEL 4
REMARK VINA RESULT:      -8.2      1.768      2.925
REMARK  0 active torsions:
REMARK  status: ('A' for Active; 'I' for Inactive)
ROOT
ATOM      1  C   UNL d   1      54.118  33.603  54.834  0.00  0.00     0.282 A 
ATOM      2  N   UNL d   1      53.848  34.384  54.861  0.00  0.00    -0.189 NA
ATOM      3  N   UNL d   1      52.921  34.094  53.810  0.00  0.00    -0.227 NA
ATOM      4  C   UNL d   1      53.792  33.072  54.297  0.00  0.00     0.076 A 
ATOM      5  C   UNL d   1      53.249  34.629  54.349  0.00  0.00     0.166 A 
ATOM      6  C   UNL d   1      53.193  33.317  53.786  0.00  0.00     0.088 A 
ATOM      7  O   UNL d   1      54.717  33.357  55.346  0.00  0.00    -0.265 OA
ATOM      8  C   UNL d   1      54.063  32.294  54.272  0.00  0.00     0.006 A 
ATOM      9  C   UNL d   1      52.978  35.414  54.377  0.00  0.00     0.042 C 
ATOM     10  C   UNL d   1      52.866  32.786  53.248  0.00  0.00     0.019 A 
ATOM     11  C   UNL d   1      53.735  31.756  53.732  0.00  0.00     0.000 A 
ATOM     12  C   UNL d   1      53.137  32.002  53.220  0.00  0.00     0.002 A 
ENDROOT
TORSDOF 0
ENDMDL
MODEL 5
REMARK VINA RESULT:      -8.1      1.865      2.783
REMARK  0 active torsions:
REMARK  status: ('A' for Active; 'I' for Inactive)
ROOT
ATOM      1  C   UNL d   1      53.272  34.837  54.421  0.00  0.00     0.282 A 
ATOM      2  N   UNL d   1      53.819  34.432  54.890  0.00  0.00    -0.189 NA
ATOM      3  N   UNL d   1      53.426  33.201  54.277  0.00  0.00    -0.227 NA
ATOM      4  C   UNL d   1      52.805  34.425  53.883  0.00  0.00     0.076 A 
ATOM      5  C   UNL d   1      53.896  33.614  54.818  0.00  0.00     0.166 A 
ATOM      6  C   UNL d   1      52.882  33.607  53.812  0.00  0.00     0.088 A 
ATOM      7  O   UNL d   1      53.195  35.656  54.493  0.00  0.00    -0.265 OA
ATOM      8  C   UNL d   1      52.261  34.830  53.417  0.00  0.00     0.006 A 
ATOM      9  C   UNL d   1      54.447  33.208  55.290  0.00  0.00     0.042 C 
ATOM     10  C   UNL d   1      52.415  33.194  53.273  0.00  0.00     0.019 A 
ATOM     11  C   UNL d   1      51.788  34.418  52.874  0.00  0.00     0.000 A 
ATOM     12  C   UNL d   1      51.865  33.600  52.802  0.00  0.00     0.002 A 
ENDROOT
TORSDOF 0
ENDMDL
MODEL 6
REMARK VINA RESULT:      -8.1      1.043      2.276
REMARK  0 active torsions:
REMARK  status: ('A' for Active; 'I' for Inactive)
ROOT
ATOM      1  C   UNL d   1      53.205  33.542  53.789  0.00  0.00     0.282 A 
ATOM      2  N   UNL d   1      53.766  33.825  54.326  0.00  0.00    -0.189 NA
ATOM      3  N   UNL d   1      54.287  32.501  54.474  0.00  0.00    -0.227 NA
ATOM      4  C   UNL d   1      53.186  32.742  53.596  0.00  0.00     0.076 A 
ATOM      5  C   UNL d   1      54.307  33.305  54.669  0.00  0.00     0.166 A 
ATOM      6  C   UNL d   1      53.727  32.222  53.939  0.00  0.00     0.088 A 
ATOM      7  O   UNL d   1      52.664  34.062  53.446  0.00  0.00    -0.265 OA
ATOM      8  C   UNL d   1      52.627  32.462  53.061  0.00  0.00     0.006 A 
ATOM      9  C   UNL d   1      54.870  33.591  55.209  0.00  0.00     0.042 C 
ATOM     10  C   UNL d   1      53.709  31.421  53.746  0.00  0.00     0.019 A 
ATOM     11  C   UNL d   1      52.605  31.656  52.864  0.00  0.00     0.000 A 
ATOM     12  C   UNL d   1      53.146  31.136  53.206  0.00  0.00     0.002 A 
ENDROOT
TORSDOF 0
ENDMDL
