MODEL 1
REMARK VINA RESULT:      -1.3      0.000      0.000
REMARK  4 active torsions:
REMARK  status: ('A' for Active; 'I' for Inactive)
REMARK    1  A    between atoms: N_2  and  S_1 
REMARK    2  A    between atoms: C_3  and  S_1 
REMARK    3  A    between atoms: C_5  and  N_4 
REMARK    4  A    between atoms: O_16  and  C_13 
ROOT
ATOM      1  N   UNL d   1     -41.626-122.003 -51.653  0.00  0.00    -0.226 N 
ATOM      2  N   UNL d   1     -41.873-122.509 -53.199  0.00  0.00    -0.300 N 
ATOM      3  C   UNL d   1     -41.125-122.573 -51.988  0.00  0.00     0.111 A 
ATOM      4  C   UNL d   1     -42.248-121.687 -52.092  0.00  0.00     0.111 A 
ATOM      5  C   UNL d   1     -41.248-122.829 -52.765  0.00  0.00     0.100 A 
ATOM      6  C   UNL d   1     -42.371-121.943 -52.869  0.00  0.00     0.100 A 
ENDROOT
BRANCH   1   7
ATOM      7  S   UNL d   1     -41.500-121.757 -50.891  0.00  0.00     0.272 S 
ATOM      8  O   UNL d   1     -41.374-121.512 -50.131  0.00  0.00    -0.200 OA
ATOM      9  O   UNL d   1     -41.145-121.085 -51.166  0.00  0.00    -0.200 OA
BRANCH   7  10
ATOM     10  C   UNL d   1     -41.858-122.435 -50.613  0.00  0.00     0.106 A 
ATOM     11  C   UNL d   1     -42.646-122.411 -50.373  0.00  0.00     0.043 A 
ATOM     12  C   UNL d   1     -43.008-123.096 -50.092  0.00  0.00     0.141 A 
ATOM     13  F   UNL d   1     -43.787-123.078 -49.854  0.00  0.00    -0.204 F 
ATOM     14  C   UNL d   1     -42.577-123.799 -50.054  0.00  0.00     0.030 A 
ATOM     15  C   UNL d   1     -41.805-123.813 -50.291  0.00  0.00     0.003 A 
ATOM     16  C   UNL d   1     -41.444-123.128 -50.572  0.00  0.00     0.013 A 
ENDBRANCH   7  10
ENDBRANCH   1   7
BRANCH   2  17
ATOM     17  C   UNL d   1     -42.000-122.758 -53.970  0.00  0.00     0.086 A 
ATOM     18  C   UNL d   1     -42.128-122.199 -54.563  0.00  0.00     0.110 A 
ATOM     19  C   UNL d   1     -42.257-122.450 -55.342  0.00  0.00     0.026 A 
ATOM     20  C   UNL d   1     -42.258-123.260 -55.528  0.00  0.00     0.002 A 
ATOM     21  C   UNL d   1     -42.130-123.817 -54.930  0.00  0.00     0.002 A 
ATOM     22  C   UNL d   1     -42.001-123.566 -54.151  0.00  0.00     0.019 A 
BRANCH  18  23
ATOM     23  O   UNL d   1     -42.126-121.402 -54.382  0.00  0.00    -0.327 OA
ATOM     24  C   UNL d   1     -42.222-120.942 -54.887  0.00  0.00     0.181 C 
ENDBRANCH  18  23
ENDBRANCH   2  17
TORSDOF 4
ENDMDL
MODEL 2
REMARK VINA RESULT:      -0.6      1.669      3.989
REMARK  4 active torsions:
REMARK  status: ('A' for Active; 'I' for Inactive)
REMARK    1  A    between atoms: N_2  and  S_1 
REMARK    2  A    between atoms: C_3  and  S_1 
REMARK    3  A    between atoms: C_5  and  N_4 
REMARK    4  A    between atoms: O_16  and  C_13 
ROOT
ATOM      1  N   UNL d   1     -41.564-123.113 -53.626  0.00  0.00    -0.226 N 
ATOM      2  N   UNL d   1     -41.613-123.088 -51.982  0.00  0.00    -0.300 N 
ATOM      3  C   UNL d   1     -41.126-122.548 -53.207  0.00  0.00     0.111 A 
ATOM      4  C   UNL d   1     -42.025-123.664 -53.224  0.00  0.00     0.111 A 
ATOM      5  C   UNL d   1     -41.150-122.533 -52.380  0.00  0.00     0.100 A 
ATOM      6  C   UNL d   1     -42.049-123.650 -52.396  0.00  0.00     0.100 A 
ENDROOT
BRANCH   1   7
ATOM      7  S   UNL d   1     -41.536-123.121 -54.437  0.00  0.00     0.272 S 
ATOM      8  O   UNL d   1     -41.508-123.129 -55.244  0.00  0.00    -0.200 OA
ATOM      9  O   UNL d   1     -41.125-123.817 -54.416  0.00  0.00    -0.200 OA
BRANCH   7  10
ATOM     10  C   UNL d   1     -41.951-122.419 -54.458  0.00  0.00     0.106 A 
ATOM     11  C   UNL d   1     -42.769-122.431 -54.560  0.00  0.00     0.043 A 
ATOM     12  C   UNL d   1     -43.188-121.722 -54.581  0.00  0.00     0.141 A 
ATOM     13  F   UNL d   1     -43.997-121.729 -54.681  0.00  0.00    -0.204 F 
ATOM     14  C   UNL d   1     -42.785-121.007 -54.501  0.00  0.00     0.030 A 
ATOM     15  C   UNL d   1     -41.983-121.005 -54.402  0.00  0.00     0.003 A 
ATOM     16  C   UNL d   1     -41.564-121.714 -54.381  0.00  0.00     0.013 A 
ENDBRANCH   7  10
ENDBRANCH   1   7
BRANCH   2  17
ATOM     17  C   UNL d   1     -41.642-123.080 -51.163  0.00  0.00     0.086 A 
ATOM     18  C   UNL d   1     -42.147-122.554 -50.777  0.00  0.00     0.110 A 
ATOM     19  C   UNL d   1     -42.176-122.546 -49.950  0.00  0.00     0.026 A 
ATOM     20  C   UNL d   1     -41.699-123.064 -49.507  0.00  0.00     0.002 A 
ATOM     21  C   UNL d   1     -41.194-123.589 -49.897  0.00  0.00     0.002 A 
ATOM     22  C   UNL d   1     -41.165-123.597 -50.725  0.00  0.00     0.019 A 
BRANCH  18  23
ATOM     23  O   UNL d   1     -42.616-122.045 -51.211  0.00  0.00    -0.327 OA
ATOM     24  C   UNL d   1     -43.039-121.613 -50.880  0.00  0.00     0.181 C 
ENDBRANCH  18  23
ENDBRANCH   2  17
TORSDOF 4
ENDMDL
MODEL 3
REMARK VINA RESULT:      -0.3      1.600      3.956
REMARK  4 active torsions:
REMARK  status: ('A' for Active; 'I' for Inactive)
REMARK    1  A    between atoms: N_2  and  S_1 
REMARK    2  A    between atoms: C_3  and  S_1 
REMARK    3  A    between atoms: C_5  and  N_4 
REMARK    4  A    between atoms: O_16  and  C_13 
ROOT
ATOM      1  N   UNL d   1     -41.888-121.889 -53.314  0.00  0.00    -0.226 N 
ATOM      2  N   UNL d   1     -41.788-122.546 -51.809  0.00  0.00    -0.300 N 
ATOM      3  C   UNL d   1     -42.545-122.272 -52.985  0.00  0.00     0.111 A 
ATOM      4  C   UNL d   1     -41.183-121.835 -52.891  0.00  0.00     0.111 A 
ATOM      5  C   UNL d   1     -42.497-122.604 -52.227  0.00  0.00     0.100 A 
ATOM      6  C   UNL d   1     -41.134-122.166 -52.134  0.00  0.00     0.100 A 
ENDROOT
BRANCH   1   7
ATOM      7  S   UNL d   1     -41.943-121.567 -54.056  0.00  0.00     0.272 S 
ATOM      8  O   UNL d   1     -41.997-121.246 -54.796  0.00  0.00    -0.200 OA
ATOM      9  O   UNL d   1     -42.017-120.831 -53.731  0.00  0.00    -0.200 OA
BRANCH   7  10
ATOM     10  C   UNL d   1     -41.867-122.311 -54.384  0.00  0.00     0.106 A 
ATOM     11  C   UNL d   1     -42.478-122.616 -54.847  0.00  0.00     0.043 A 
ATOM     12  C   UNL d   1     -42.402-123.367 -55.178  0.00  0.00     0.141 A 
ATOM     13  F   UNL d   1     -43.002-123.674 -55.635  0.00  0.00    -0.204 F 
ATOM     14  C   UNL d   1     -41.716-123.805 -55.044  0.00  0.00     0.030 A 
ATOM     15  C   UNL d   1     -41.123-123.497 -54.590  0.00  0.00     0.003 A 
ATOM     16  C   UNL d   1     -41.199-122.746 -54.258  0.00  0.00     0.013 A 
ENDBRANCH   7  10
ENDBRANCH   1   7
BRANCH   2  17
ATOM     17  C   UNL d   1     -41.733-122.872 -51.058  0.00  0.00     0.086 A 
ATOM     18  C   UNL d   1     -42.231-122.602 -50.459  0.00  0.00     0.110 A 
ATOM     19  C   UNL d   1     -42.175-122.931 -49.701  0.00  0.00     0.026 A 
ATOM     20  C   UNL d   1     -41.621-123.530 -49.542  0.00  0.00     0.002 A 
ATOM     21  C   UNL d   1     -41.123-123.797 -50.146  0.00  0.00     0.002 A 
ATOM     22  C   UNL d   1     -41.179-123.469 -50.904  0.00  0.00     0.019 A 
BRANCH  18  23
ATOM     23  O   UNL d   1     -42.776-122.014 -50.614  0.00  0.00    -0.327 OA
ATOM     24  C   UNL d   1     -43.209-121.817 -50.115  0.00  0.00     0.181 C 
ENDBRANCH  18  23
ENDBRANCH   2  17
TORSDOF 4
ENDMDL
MODEL 4
REMARK VINA RESULT:       0.2      1.590      4.095
REMARK  4 active torsions:
REMARK  status: ('A' for Active; 'I' for Inactive)
REMARK    1  A    between atoms: N_2  and  S_1 
REMARK    2  A    between atoms: C_3  and  S_1 
REMARK    3  A    between atoms: C_5  and  N_4 
REMARK    4  A    between atoms: O_16  and  C_13 
ROOT
ATOM      1  N   UNL d   1     -41.749-121.888 -51.759  0.00  0.00    -0.226 N 
ATOM      2  N   UNL d   1     -42.059-122.534 -50.278  0.00  0.00    -0.300 N 
ATOM      3  C   UNL d   1     -42.532-121.978 -51.502  0.00  0.00     0.111 A 
ATOM      4  C   UNL d   1     -41.123-122.120 -51.276  0.00  0.00     0.111 A 
ATOM      5  C   UNL d   1     -42.690-122.303 -50.757  0.00  0.00     0.100 A 
ATOM      6  C   UNL d   1     -41.281-122.445 -50.531  0.00  0.00     0.100 A 
ENDROOT
BRANCH   1   7
ATOM      7  S   UNL d   1     -41.602-121.569 -52.490  0.00  0.00     0.272 S 
ATOM      8  O   UNL d   1     -41.455-121.251 -53.218  0.00  0.00    -0.200 OA
ATOM      9  O   UNL d   1     -41.591-120.829 -52.165  0.00  0.00    -0.200 OA
BRANCH   7  10
ATOM     10  C   UNL d   1     -41.612-122.316 -52.818  0.00  0.00     0.106 A 
ATOM     11  C   UNL d   1     -42.040-122.451 -53.511  0.00  0.00     0.043 A 
ATOM     12  C   UNL d   1     -42.050-123.205 -53.842  0.00  0.00     0.141 A 
ATOM     13  F   UNL d   1     -42.471-123.345 -54.526  0.00  0.00    -0.204 F 
ATOM     14  C   UNL d   1     -41.634-123.817 -53.478  0.00  0.00     0.030 A 
ATOM     15  C   UNL d   1     -41.219-123.675 -52.800  0.00  0.00     0.003 A 
ATOM     16  C   UNL d   1     -41.208-122.921 -52.468  0.00  0.00     0.013 A 
ENDBRANCH   7  10
ENDBRANCH   1   7
BRANCH   2  17
ATOM     17  C   UNL d   1     -42.208-122.857 -49.539  0.00  0.00     0.086 A 
ATOM     18  C   UNL d   1     -42.873-123.332 -49.428  0.00  0.00     0.110 A 
ATOM     19  C   UNL d   1     -43.023-123.658 -48.682  0.00  0.00     0.026 A 
ATOM     20  C   UNL d   1     -42.508-123.509 -48.046  0.00  0.00     0.002 A 
ATOM     21  C   UNL d   1     -41.842-123.031 -48.162  0.00  0.00     0.002 A 
ATOM     22  C   UNL d   1     -41.692-122.705 -48.908  0.00  0.00     0.019 A 
BRANCH  18  23
ATOM     23  O   UNL d   1     -43.379-123.480 -50.051  0.00  0.00    -0.327 OA
ATOM     24  C   UNL d   1     -43.968-123.817 -49.933  0.00  0.00     0.181 C 
ENDBRANCH  18  23
ENDBRANCH   2  17
TORSDOF 4
ENDMDL
