MODEL 1
REMARK VINA RESULT:      53.9      0.000      0.000
REMARK  5 active torsions:
REMARK  status: ('A' for Active; 'I' for Inactive)
REMARK    1  A    between atoms: N_2  and  S_1 
REMARK    2  A    between atoms: C_5  and  S_1 
REMARK    3  A    between atoms: S_8  and  C_3 
REMARK    4  A    between atoms: C_18  and  S_8 
REMARK    5  A    between atoms: C_17  and  C_18 
ROOT
ATOM      1  N   UNL d   1      15.112  14.826  -0.779  0.00  0.00    -0.208 N 
ATOM      2  C   UNL d   1      14.771  15.381  -1.299  0.00  0.00     0.189 A 
ATOM      3  N   UNL d   1      14.262  15.869  -0.860  0.00  0.00    -0.219 NA
ATOM      4  C   UNL d   1      14.811  14.974  -0.015  0.00  0.00     0.114 A 
ATOM      5  C   UNL d   1      14.290  15.614  -0.070  0.00  0.00     0.121 A 
ENDROOT
BRANCH   1   6
ATOM      6  S   UNL d   1      15.655  14.234  -0.989  0.00  0.00     0.273 S 
ATOM      7  O   UNL d   1      16.348  13.844  -1.228  0.00  0.00    -0.200 OA
ATOM      8  O   UNL d   1      16.206  14.830  -1.106  0.00  0.00    -0.200 OA
BRANCH   6   9
ATOM      9  C   UNL d   1      15.112  13.618  -0.875  0.00  0.00     0.104 A 
ATOM     10  C   UNL d   1      14.815  13.478  -0.118  0.00  0.00     0.014 A 
ATOM     11  C   UNL d   1      14.274  12.862  -0.015  0.00  0.00     0.012 A 
ATOM     12  C   UNL d   1      14.036  12.398  -0.654  0.00  0.00     0.058 A 
ATOM     13  C   UNL d   1      14.336  12.543  -1.408  0.00  0.00     0.012 A 
ATOM     14 CL   UNL d   1      13.494  11.784  -0.541  0.00  0.00    -0.082 Cl
ATOM     15  C   UNL d   1      14.881  13.164  -1.511  0.00  0.00     0.014 A 
ENDBRANCH   6   9
ENDBRANCH   1   6
BRANCH   2  16
ATOM     16  S   UNL d   1      14.916  15.436  -2.118  0.00  0.00    -0.049 SA
BRANCH  16  17
ATOM     17  C   UNL d   1      14.841  16.165  -2.501  0.00  0.00     0.038 C 
BRANCH  17  18
ATOM     18  C   UNL d   1      14.802  16.193  -3.321  0.00  0.00     0.007 A 
ATOM     19  C   UNL d   1      15.226  16.763  -3.746  0.00  0.00     0.013 A 
ATOM     20  C   UNL d   1      15.185  16.789  -4.565  0.00  0.00     0.068 A 
ATOM     21 CL   UNL d   1      15.613  17.362  -4.968  0.00  0.00    -0.082 Cl
ATOM     22  C   UNL d   1      14.717  16.241  -4.966  0.00  0.00     0.068 A 
ATOM     23  C   UNL d   1      14.294  15.673  -4.563  0.00  0.00     0.012 A 
ATOM     24 CL   UNL d   1      14.681  16.273  -5.790  0.00  0.00    -0.082 Cl
ATOM     25  C   UNL d   1      14.335  15.647  -3.730  0.00  0.00     0.001 A 
ENDBRANCH  17  18
ENDBRANCH  16  17
ENDBRANCH   2  16
TORSDOF 5
ENDMDL
