MODEL 1
REMARK VINA RESULT:      53.8      0.000      0.000
REMARK  7 active torsions:
REMARK  status: ('A' for Active; 'I' for Inactive)
REMARK    1  A    between atoms: C_4  and  C_1 
REMARK    2  A    between atoms: N_5  and  C_3 
REMARK    3  A    between atoms: C_9  and  C_4 
REMARK       I    between atoms: C_7  and  N_5 
REMARK    4  A    between atoms: C_10  and  C_7 
REMARK       I    between atoms: N_14  and  C_9 
REMARK    5  A    between atoms: C_20  and  N_14 
REMARK    6  A    between atoms: C_21  and  C_20 
REMARK    7  A    between atoms: O_29  and  C_22 
ROOT
ATOM      1  C   UNL d   1      45.528 -17.451  43.843  0.00  0.00     0.144 C 
ATOM      2  C   UNL d   1      44.789 -17.115  43.701  0.00  0.00     0.107 C 
ATOM      3  N   UNL d   1      44.054 -16.787  43.554  0.00  0.00    -0.191 NA
ENDROOT
BRANCH   1   4
ATOM      4  C   UNL d   1      45.804 -18.083  43.374  0.00  0.00     0.097 A 
ATOM      5  N   UNL d   1      45.886 -18.140  42.555  0.00  0.00    -0.226 NA
ATOM      6  C   UNL d   1      46.186 -18.889  42.377  0.00  0.00     0.166 A 
ATOM      7  C   UNL d   1      46.291 -19.297  43.087  0.00  0.00     0.037 A 
ATOM      8  C   UNL d   1      46.057 -18.804  43.710  0.00  0.00     0.021 A 
ATOM      9  C   UNL d   1      46.570 -20.055  43.251  0.00  0.00     0.003 A 
ATOM     10  C   UNL d   1      46.101 -19.067  44.486  0.00  0.00     0.002 A 
ATOM     11  C   UNL d   1      46.380 -19.825  44.652  0.00  0.00     0.000 A 
ATOM     12  C   UNL d   1      46.615 -20.318  44.029  0.00  0.00     0.000 A 
BRANCH   6  13
ATOM     13  N   UNL d   1      46.362 -19.210  41.648  0.00  0.00    -0.189 NA
ATOM     14  C   UNL d   1      45.939 -19.142  40.931  0.00  0.00     0.286 C 
ATOM     15  O   UNL d   1      45.246 -18.697  40.925  0.00  0.00    -0.265 OA
BRANCH  14  16
ATOM     16  C   UNL d   1      46.198 -19.507  40.238  0.00  0.00     0.087 A 
ATOM     17  S   UNL d   1      46.233 -19.078  39.533  0.00  0.00    -0.082 SA
ATOM     18  C   UNL d   1      46.511 -19.588  38.944  0.00  0.00     0.036 A 
ATOM     19  C   UNL d   1      46.646 -20.330  39.287  0.00  0.00     0.008 A 
ATOM     20  C   UNL d   1      46.453 -20.278  40.085  0.00  0.00     0.012 A 
ENDBRANCH  14  16
ENDBRANCH   6  13
ENDBRANCH   1   4
BRANCH   1  21
ATOM     21  C   UNL d   1      46.002 -17.159  44.456  0.00  0.00     0.290 C 
ATOM     22  N   UNL d   1      46.076 -16.350  44.570  0.00  0.00    -0.206 NA
ATOM     23  O   UNL d   1      46.401 -17.680  44.953  0.00  0.00    -0.264 OA
BRANCH  22  24
ATOM     24  C   UNL d   1      45.672 -15.825  44.068  0.00  0.00     0.102 C 
BRANCH  24  25
ATOM     25  C   UNL d   1      45.636 -15.000  43.992  0.00  0.00     0.019 A 
ATOM     26  C   UNL d   1      45.324 -14.551  44.607  0.00  0.00     0.004 A 
ATOM     27  C   UNL d   1      45.285 -13.735  44.538  0.00  0.00     0.024 A 
ATOM     28  C   UNL d   1      45.559 -13.361  43.848  0.00  0.00     0.094 A 
ATOM     29  C   UNL d   1      45.871 -13.811  43.234  0.00  0.00     0.024 A 
ATOM     30  C   UNL d   1      45.907 -14.635  43.310  0.00  0.00     0.004 A 
BRANCH  28  31
ATOM     31  O   UNL d   1      45.521 -12.543  43.777  0.00  0.00    -0.328 OA
ATOM     32  C   UNL d   1      45.625 -12.180  43.042  0.00  0.00     0.181 C 
ENDBRANCH  28  31
ENDBRANCH  24  25
ENDBRANCH  22  24
ENDBRANCH   1  21
TORSDOF 7
ENDMDL
