MODEL 1
REMARK VINA RESULT:      -5.9      0.000      0.000
REMARK  9 active torsions:
REMARK  status: ('A' for Active; 'I' for Inactive)
REMARK    1  A    between atoms: C_8  and  N_1 
REMARK    2  A    between atoms: C_6  and  C_2 
REMARK    3  A    between atoms: O_12  and  C_11 
REMARK    4  A    between atoms: C_18  and  O_12 
REMARK    5  A    between atoms: C_14  and  C_18 
REMARK    6  A    between atoms: C_16  and  C_14 
REMARK    7  A    between atoms: N_15  and  C_16 
REMARK    8  A    between atoms: C_23  and  N_15 
REMARK    9  A    between atoms: C_24  and  N_15 
ROOT
ATOM      1  N   UNL d   1     -48.801  13.693  22.978  0.00  0.00    -0.306 N 
ATOM      2  C   UNL d   1     -48.367  12.365  22.935  0.00  0.00     0.057 A 
ATOM      3  C   UNL d   1     -49.082  12.869  23.000  0.00  0.00     0.067 A 
ATOM      4  C   UNL d   1     -47.940  13.680  22.902  0.00  0.00     0.064 A 
ATOM      5  C   UNL d   1     -47.683  12.896  22.877  0.00  0.00     0.023 A 
ATOM      6  C   UNL d   1     -47.402  14.278  22.857  0.00  0.00     0.020 A 
ATOM      7  C   UNL d   1     -46.895  12.730  22.806  0.00  0.00     0.026 A 
ATOM      8  C   UNL d   1     -46.357  13.334  22.761  0.00  0.00     0.100 A 
ATOM      9  C   UNL d   1     -49.856  12.614  23.067  0.00  0.00     0.019 C 
ATOM     10  C   UNL d   1     -46.613  14.117  22.787  0.00  0.00     0.026 A 
ENDROOT
BRANCH   8  11
ATOM     11  O   UNL d   1     -45.511  13.186  22.686  0.00  0.00    -0.302 OA
BRANCH  11  12
ATOM     12  C   UNL d   1     -45.144  13.169  21.968  0.00  0.00     0.166 C 
BRANCH  12  13
ATOM     13  C   UNL d   1     -44.373  12.798  21.858  0.00  0.00     0.238 C 
ATOM     14  O   UNL d   1     -44.115  12.203  22.449  0.00  0.00    -0.283 OA
BRANCH  13  15
ATOM     15  C   UNL d   1     -43.893  12.985  21.235  0.00  0.00     0.125 C 
BRANCH  15  16
ATOM     16  N   UNL d   1     -43.055  13.142  21.339  0.00  0.00    -0.300 N 
BRANCH  16  17
ATOM     17  C   UNL d   1     -42.363  12.652  21.422  0.00  0.00     0.080 C 
ATOM     18  C   UNL d   1     -41.767  13.026  21.005  0.00  0.00     0.021 C 
ENDBRANCH  16  17
BRANCH  16  19
ATOM     19  C   UNL d   1     -42.760  13.899  21.381  0.00  0.00     0.080 C 
ATOM     20  C   UNL d   1     -42.252  14.224  20.769  0.00  0.00     0.021 C 
ENDBRANCH  16  19
ENDBRANCH  15  16
ENDBRANCH  13  15
ENDBRANCH  12  13
ENDBRANCH  11  12
ENDBRANCH   8  11
BRANCH   2  21
ATOM     21  C   UNL d   1     -48.408  11.552  22.935  0.00  0.00     0.197 C 
ATOM     22  O   UNL d   1     -48.441  11.014  22.227  0.00  0.00    -0.286 OA
ATOM     23  C   UNL d   1     -48.416  11.258  23.698  0.00  0.00     0.045 C 
ENDBRANCH   2  21
BRANCH   1  24
ATOM     24  C   UNL d   1     -49.313  14.321  23.026  0.00  0.00     0.064 A 
ATOM     25  C   UNL d   1     -49.453  14.823  23.698  0.00  0.00     0.018 A 
ATOM     26  C   UNL d   1     -50.009  15.466  23.673  0.00  0.00     0.002 A 
ATOM     27  C   UNL d   1     -50.428  15.611  22.979  0.00  0.00     0.000 A 
ATOM     28  C   UNL d   1     -50.330  15.149  22.290  0.00  0.00     0.002 A 
ATOM     29  C   UNL d   1     -49.774  14.504  22.310  0.00  0.00     0.018 A 
ENDBRANCH   1  24
TORSDOF 9
ENDMDL
MODEL 2
REMARK VINA RESULT:      -4.8      2.581      7.793
REMARK  9 active torsions:
REMARK  status: ('A' for Active; 'I' for Inactive)
REMARK    1  A    between atoms: C_8  and  N_1 
REMARK    2  A    between atoms: C_6  and  C_2 
REMARK    3  A    between atoms: O_12  and  C_11 
REMARK    4  A    between atoms: C_18  and  O_12 
REMARK    5  A    between atoms: C_14  and  C_18 
REMARK    6  A    between atoms: C_16  and  C_14 
REMARK    7  A    between atoms: N_15  and  C_16 
REMARK    8  A    between atoms: C_23  and  N_15 
REMARK    9  A    between atoms: C_24  and  N_15 
ROOT
ATOM      1  N   UNL d   1     -39.896  14.668  20.688  0.00  0.00    -0.306 N 
ATOM      2  C   UNL d   1     -40.644  14.413  19.535  0.00  0.00     0.057 A 
ATOM      3  C   UNL d   1     -39.907  14.790  19.825  0.00  0.00     0.067 A 
ATOM      4  C   UNL d   1     -40.609  14.230  20.904  0.00  0.00     0.064 A 
ATOM      5  C   UNL d   1     -41.050  14.079  20.224  0.00  0.00     0.023 A 
ATOM      6  C   UNL d   1     -40.876  13.971  21.620  0.00  0.00     0.020 A 
ATOM      7  C   UNL d   1     -41.748  13.674  20.275  0.00  0.00     0.026 A 
ATOM      8  C   UNL d   1     -42.014  13.416  20.996  0.00  0.00     0.100 A 
ATOM      9  C   UNL d   1     -39.344  15.177  19.375  0.00  0.00     0.019 C 
ATOM     10  C   UNL d   1     -41.573  13.566  21.677  0.00  0.00     0.026 A 
ENDROOT
BRANCH   8  11
ATOM     11  O   UNL d   1     -42.754  12.982  21.081  0.00  0.00    -0.302 OA
BRANCH  11  12
ATOM     12  C   UNL d   1     -43.411  13.321  21.402  0.00  0.00     0.166 C 
BRANCH  12  13
ATOM     13  C   UNL d   1     -44.066  12.848  21.705  0.00  0.00     0.238 C 
ATOM     14  O   UNL d   1     -43.887  12.047  22.015  0.00  0.00    -0.283 OA
BRANCH  13  15
ATOM     15  C   UNL d   1     -44.827  13.123  21.708  0.00  0.00     0.125 C 
BRANCH  15  16
ATOM     16  N   UNL d   1     -45.361  12.970  22.364  0.00  0.00    -0.300 N 
BRANCH  16  17
ATOM     17  C   UNL d   1     -45.632  12.266  22.760  0.00  0.00     0.080 C 
ATOM     18  C   UNL d   1     -46.276  12.491  23.210  0.00  0.00     0.021 C 
ENDBRANCH  16  17
BRANCH  16  19
ATOM     19  C   UNL d   1     -45.741  13.571  22.759  0.00  0.00     0.080 C 
ATOM     20  C   UNL d   1     -46.329  14.067  22.376  0.00  0.00     0.021 C 
ENDBRANCH  16  19
ENDBRANCH  15  16
ENDBRANCH  13  15
ENDBRANCH  12  13
ENDBRANCH  11  12
ENDBRANCH   8  11
BRANCH   2  21
ATOM     21  C   UNL d   1     -40.849  14.413  18.746  0.00  0.00     0.197 C 
ATOM     22  O   UNL d   1     -40.803  13.729  18.179  0.00  0.00    -0.286 OA
ATOM     23  C   UNL d   1     -41.119  15.148  18.513  0.00  0.00     0.045 C 
ENDBRANCH   2  21
BRANCH   1  24
ATOM     24  C   UNL d   1     -39.289  14.945  21.151  0.00  0.00     0.064 A 
ATOM     25  C   UNL d   1     -39.240  15.700  21.540  0.00  0.00     0.018 A 
ATOM     26  C   UNL d   1     -38.569  15.922  22.012  0.00  0.00     0.002 A 
ATOM     27  C   UNL d   1     -37.943  15.393  22.098  0.00  0.00     0.000 A 
ATOM     28  C   UNL d   1     -37.940  14.638  21.738  0.00  0.00     0.002 A 
ATOM     29  C   UNL d   1     -38.610  14.412  21.264  0.00  0.00     0.018 A 
ENDBRANCH   1  24
TORSDOF 9
ENDMDL
MODEL 3
REMARK VINA RESULT:      -4.6      0.950      1.432
REMARK  9 active torsions:
REMARK  status: ('A' for Active; 'I' for Inactive)
REMARK    1  A    between atoms: C_8  and  N_1 
REMARK    2  A    between atoms: C_6  and  C_2 
REMARK    3  A    between atoms: O_12  and  C_11 
REMARK    4  A    between atoms: C_18  and  O_12 
REMARK    5  A    between atoms: C_14  and  C_18 
REMARK    6  A    between atoms: C_16  and  C_14 
REMARK    7  A    between atoms: N_15  and  C_16 
REMARK    8  A    between atoms: C_23  and  N_15 
REMARK    9  A    between atoms: C_24  and  N_15 
ROOT
ATOM      1  N   UNL d   1     -47.830  13.190  22.780  0.00  0.00    -0.306 N 
ATOM      2  C   UNL d   1     -47.120  12.061  23.203  0.00  0.00     0.057 A 
ATOM      3  C   UNL d   1     -47.923  12.413  23.164  0.00  0.00     0.067 A 
ATOM      4  C   UNL d   1     -46.992  13.297  22.596  0.00  0.00     0.064 A 
ATOM      5  C   UNL d   1     -46.573  12.631  22.845  0.00  0.00     0.023 A 
ATOM      6  C   UNL d   1     -46.600  13.907  22.243  0.00  0.00     0.020 A 
ATOM      7  C   UNL d   1     -45.773  12.591  22.736  0.00  0.00     0.026 A 
ATOM      8  C   UNL d   1     -45.382  13.206  22.381  0.00  0.00     0.100 A 
ATOM      9  C   UNL d   1     -48.618  12.077  23.434  0.00  0.00     0.019 C 
ATOM     10  C   UNL d   1     -45.800  13.872  22.132  0.00  0.00     0.026 A 
ENDROOT
BRANCH   8  11
ATOM     11  O   UNL d   1     -44.531  13.192  22.253  0.00  0.00    -0.302 OA
BRANCH  11  12
ATOM     12  C   UNL d   1     -44.210  12.934  21.558  0.00  0.00     0.166 C 
BRANCH  12  13
ATOM     13  C   UNL d   1     -43.358  12.946  21.418  0.00  0.00     0.238 C 
ATOM     14  O   UNL d   1     -42.862  12.366  21.849  0.00  0.00    -0.283 OA
BRANCH  13  15
ATOM     15  C   UNL d   1     -43.016  13.471  20.906  0.00  0.00     0.125 C 
BRANCH  15  16
ATOM     16  N   UNL d   1     -42.200  13.726  20.997  0.00  0.00    -0.300 N 
BRANCH  16  17
ATOM     17  C   UNL d   1     -41.818  14.355  21.424  0.00  0.00     0.080 C 
ATOM     18  C   UNL d   1     -41.666  14.943  20.878  0.00  0.00     0.021 C 
ENDBRANCH  16  17
BRANCH  16  19
ATOM     19  C   UNL d   1     -41.585  13.341  20.630  0.00  0.00     0.080 C 
ATOM     20  C   UNL d   1     -40.790  13.667  20.611  0.00  0.00     0.021 C 
ENDBRANCH  16  19
ENDBRANCH  15  16
ENDBRANCH  13  15
ENDBRANCH  12  13
ENDBRANCH  11  12
ENDBRANCH   8  11
BRANCH   2  21
ATOM     21  C   UNL d   1     -46.984  11.328  23.529  0.00  0.00     0.197 C 
ATOM     22  O   UNL d   1     -46.195  10.953  23.698  0.00  0.00    -0.286 OA
ATOM     23  C   UNL d   1     -47.686  10.946  23.698  0.00  0.00     0.045 C 
ENDBRANCH   2  21
BRANCH   1  24
ATOM     24  C   UNL d   1     -48.463  13.680  22.648  0.00  0.00     0.064 A 
ATOM     25  C   UNL d   1     -49.024  13.638  22.010  0.00  0.00     0.018 A 
ATOM     26  C   UNL d   1     -49.666  14.191  21.936  0.00  0.00     0.002 A 
ATOM     27  C   UNL d   1     -49.752  14.787  22.498  0.00  0.00     0.000 A 
ATOM     28  C   UNL d   1     -49.230  14.874  23.145  0.00  0.00     0.002 A 
ATOM     29  C   UNL d   1     -48.585  14.323  23.223  0.00  0.00     0.018 A 
ENDBRANCH   1  24
TORSDOF 9
ENDMDL
MODEL 4
REMARK VINA RESULT:      -4.6      1.206      2.316
REMARK  9 active torsions:
REMARK  status: ('A' for Active; 'I' for Inactive)
REMARK    1  A    between atoms: C_8  and  N_1 
REMARK    2  A    between atoms: C_6  and  C_2 
REMARK    3  A    between atoms: O_12  and  C_11 
REMARK    4  A    between atoms: C_18  and  O_12 
REMARK    5  A    between atoms: C_14  and  C_18 
REMARK    6  A    between atoms: C_16  and  C_14 
REMARK    7  A    between atoms: N_15  and  C_16 
REMARK    8  A    between atoms: C_23  and  N_15 
REMARK    9  A    between atoms: C_24  and  N_15 
ROOT
ATOM      1  N   UNL d   1     -48.007  13.026  22.809  0.00  0.00    -0.306 N 
ATOM      2  C   UNL d   1     -47.359  14.251  22.628  0.00  0.00     0.057 A 
ATOM      3  C   UNL d   1     -48.145  13.884  22.759  0.00  0.00     0.067 A 
ATOM      4  C   UNL d   1     -47.160  12.886  22.710  0.00  0.00     0.064 A 
ATOM      5  C   UNL d   1     -46.777  13.609  22.603  0.00  0.00     0.023 A 
ATOM      6  C   UNL d   1     -46.732  12.203  22.708  0.00  0.00     0.020 A 
ATOM      7  C   UNL d   1     -45.976  13.631  22.497  0.00  0.00     0.026 A 
ATOM      8  C   UNL d   1     -45.548  12.943  22.495  0.00  0.00     0.100 A 
ATOM      9  C   UNL d   1     -48.862  14.273  22.822  0.00  0.00     0.019 C 
ATOM     10  C   UNL d   1     -45.931  12.220  22.602  0.00  0.00     0.026 A 
ENDROOT
BRANCH   8  11
ATOM     11  O   UNL d   1     -44.694  12.937  22.385  0.00  0.00    -0.302 OA
BRANCH  11  12
ATOM     12  C   UNL d   1     -44.360  12.982  21.652  0.00  0.00     0.166 C 
BRANCH  12  13
ATOM     13  C   UNL d   1     -43.505  12.958  21.538  0.00  0.00     0.238 C 
ATOM     14  O   UNL d   1     -43.090  12.201  21.691  0.00  0.00    -0.283 OA
BRANCH  13  15
ATOM     15  C   UNL d   1     -43.087  13.608  21.300  0.00  0.00     0.125 C 
BRANCH  15  16
ATOM     16  N   UNL d   1     -42.232  13.591  21.215  0.00  0.00    -0.300 N 
BRANCH  16  17
ATOM     17  C   UNL d   1     -41.608  13.127  21.564  0.00  0.00     0.080 C 
ATOM     18  C   UNL d   1     -40.910  13.515  21.391  0.00  0.00     0.021 C 
ENDBRANCH  16  17
BRANCH  16  19
ATOM     19  C   UNL d   1     -41.838  14.095  20.713  0.00  0.00     0.080 C 
ATOM     20  C   UNL d   1     -41.971  14.944  20.723  0.00  0.00     0.021 C 
ENDBRANCH  16  19
ENDBRANCH  15  16
ENDBRANCH  13  15
ENDBRANCH  12  13
ENDBRANCH  11  12
ENDBRANCH   8  11
BRANCH   2  21
ATOM     21  C   UNL d   1     -47.264  15.057  22.553  0.00  0.00     0.197 C 
ATOM     22  O   UNL d   1     -46.673  15.570  22.975  0.00  0.00    -0.286 OA
ATOM     23  C   UNL d   1     -47.797  15.367  22.017  0.00  0.00     0.045 C 
ENDBRANCH   2  21
BRANCH   1  24
ATOM     24  C   UNL d   1     -48.615  12.501  22.929  0.00  0.00     0.064 A 
ATOM     25  C   UNL d   1     -48.802  12.083  23.646  0.00  0.00     0.018 A 
ATOM     26  C   UNL d   1     -49.459  11.546  23.698  0.00  0.00     0.002 A 
ATOM     27  C   UNL d   1     -49.933  11.423  23.035  0.00  0.00     0.000 A 
ATOM     28  C   UNL d   1     -49.794  11.807  22.306  0.00  0.00     0.002 A 
ATOM     29  C   UNL d   1     -49.137  12.346  22.250  0.00  0.00     0.018 A 
ENDBRANCH   1  24
TORSDOF 9
ENDMDL
MODEL 5
REMARK VINA RESULT:      -4.5      1.228      1.623
REMARK  9 active torsions:
REMARK  status: ('A' for Active; 'I' for Inactive)
REMARK    1  A    between atoms: C_8  and  N_1 
REMARK    2  A    between atoms: C_6  and  C_2 
REMARK    3  A    between atoms: O_12  and  C_11 
REMARK    4  A    between atoms: C_18  and  O_12 
REMARK    5  A    between atoms: C_14  and  C_18 
REMARK    6  A    between atoms: C_16  and  C_14 
REMARK    7  A    between atoms: N_15  and  C_16 
REMARK    8  A    between atoms: C_23  and  N_15 
REMARK    9  A    between atoms: C_24  and  N_15 
ROOT
ATOM      1  N   UNL d   1     -49.128  13.772  22.976  0.00  0.00    -0.306 N 
ATOM      2  C   UNL d   1     -48.725  12.435  22.925  0.00  0.00     0.057 A 
ATOM      3  C   UNL d   1     -49.426  12.955  23.015  0.00  0.00     0.067 A 
ATOM      4  C   UNL d   1     -48.271  13.739  22.866  0.00  0.00     0.064 A 
ATOM      5  C   UNL d   1     -48.033  12.949  22.836  0.00  0.00     0.023 A 
ATOM      6  C   UNL d   1     -47.722  14.325  22.795  0.00  0.00     0.020 A 
ATOM      7  C   UNL d   1     -47.252  12.765  22.736  0.00  0.00     0.026 A 
ATOM      8  C   UNL d   1     -46.703  13.356  22.665  0.00  0.00     0.100 A 
ATOM      9  C   UNL d   1     -50.202  12.718  23.114  0.00  0.00     0.019 C 
ATOM     10  C   UNL d   1     -46.940  14.146  22.695  0.00  0.00     0.026 A 
ENDROOT
BRANCH   8  11
ATOM     11  O   UNL d   1     -45.865  13.189  22.558  0.00  0.00    -0.302 OA
BRANCH  11  12
ATOM     12  C   UNL d   1     -45.608  12.506  22.213  0.00  0.00     0.166 C 
BRANCH  12  13
ATOM     13  C   UNL d   1     -44.835  12.167  22.394  0.00  0.00     0.238 C 
ATOM     14  O   UNL d   1     -44.126  12.552  22.051  0.00  0.00    -0.283 OA
BRANCH  13  15
ATOM     15  C   UNL d   1     -44.754  11.514  22.865  0.00  0.00     0.125 C 
BRANCH  15  16
ATOM     16  N   UNL d   1     -43.993  11.132  22.982  0.00  0.00    -0.300 N 
BRANCH  16  17
ATOM     17  C   UNL d   1     -43.263  11.111  22.543  0.00  0.00     0.080 C 
ATOM     18  C   UNL d   1     -42.762  11.643  22.909  0.00  0.00     0.021 C 
ENDBRANCH  16  17
BRANCH  16  19
ATOM     19  C   UNL d   1     -43.841  10.665  23.630  0.00  0.00     0.080 C 
ATOM     20  C   UNL d   1     -44.149   9.866  23.698  0.00  0.00     0.021 C 
ENDBRANCH  16  19
ENDBRANCH  15  16
ENDBRANCH  13  15
ENDBRANCH  12  13
ENDBRANCH  11  12
ENDBRANCH   8  11
BRANCH   2  21
ATOM     21  C   UNL d   1     -48.784  11.622  22.934  0.00  0.00     0.197 C 
ATOM     22  O   UNL d   1     -48.882  11.083  22.233  0.00  0.00    -0.286 OA
ATOM     23  C   UNL d   1     -48.744  11.333  23.696  0.00  0.00     0.045 C 
ENDBRANCH   2  21
BRANCH   1  24
ATOM     24  C   UNL d   1     -49.624  14.412  23.039  0.00  0.00     0.064 A 
ATOM     25  C   UNL d   1     -49.698  14.945  23.698  0.00  0.00     0.018 A 
ATOM     26  C   UNL d   1     -50.243  15.597  23.692  0.00  0.00     0.002 A 
ATOM     27  C   UNL d   1     -50.717  15.722  23.030  0.00  0.00     0.000 A 
ATOM     28  C   UNL d   1     -50.685  15.229  22.355  0.00  0.00     0.002 A 
ATOM     29  C   UNL d   1     -50.140  14.574  22.357  0.00  0.00     0.018 A 
ENDBRANCH   1  24
TORSDOF 9
ENDMDL
MODEL 6
REMARK VINA RESULT:      -3.8      1.903      3.193
REMARK  9 active torsions:
REMARK  status: ('A' for Active; 'I' for Inactive)
REMARK    1  A    between atoms: C_8  and  N_1 
REMARK    2  A    between atoms: C_6  and  C_2 
REMARK    3  A    between atoms: O_12  and  C_11 
REMARK    4  A    between atoms: C_18  and  O_12 
REMARK    5  A    between atoms: C_14  and  C_18 
REMARK    6  A    between atoms: C_16  and  C_14 
REMARK    7  A    between atoms: N_15  and  C_16 
REMARK    8  A    between atoms: C_23  and  N_15 
REMARK    9  A    between atoms: C_24  and  N_15 
ROOT
ATOM      1  N   UNL d   1     -45.926  12.520  22.732  0.00  0.00    -0.306 N 
ATOM      2  C   UNL d   1     -44.969  11.545  23.028  0.00  0.00     0.057 A 
ATOM      3  C   UNL d   1     -45.793  11.795  23.195  0.00  0.00     0.067 A 
ATOM      4  C   UNL d   1     -45.198  12.698  22.301  0.00  0.00     0.064 A 
ATOM      5  C   UNL d   1     -44.633  12.122  22.475  0.00  0.00     0.023 A 
ATOM      6  C   UNL d   1     -45.014  13.298  21.795  0.00  0.00     0.020 A 
ATOM      7  C   UNL d   1     -43.898  12.161  22.140  0.00  0.00     0.026 A 
ATOM      8  C   UNL d   1     -43.716  12.765  21.632  0.00  0.00     0.100 A 
ATOM      9  C   UNL d   1     -46.328  11.419  23.687  0.00  0.00     0.019 C 
ATOM     10  C   UNL d   1     -44.281  13.341  21.457  0.00  0.00     0.026 A 
ENDROOT
BRANCH   8  11
ATOM     11  O   UNL d   1     -42.942  12.831  21.261  0.00  0.00    -0.302 OA
BRANCH  11  12
ATOM     12  C   UNL d   1     -42.427  13.422  21.453  0.00  0.00     0.166 C 
BRANCH  12  13
ATOM     13  C   UNL d   1     -41.741  13.607  20.962  0.00  0.00     0.238 C 
ATOM     14  O   UNL d   1     -41.604  13.119  20.247  0.00  0.00    -0.283 OA
BRANCH  13  15
ATOM     15  C   UNL d   1     -41.234  14.209  21.145  0.00  0.00     0.125 C 
BRANCH  15  16
ATOM     16  N   UNL d   1     -40.556  14.396  20.651  0.00  0.00    -0.300 N 
BRANCH  16  17
ATOM     17  C   UNL d   1     -40.426  14.441  19.810  0.00  0.00     0.080 C 
ATOM     18  C   UNL d   1     -39.987  15.118  19.683  0.00  0.00     0.021 C 
ENDBRANCH  16  17
BRANCH  16  19
ATOM     19  C   UNL d   1     -39.832  14.587  20.968  0.00  0.00     0.080 C 
ATOM     20  C   UNL d   1     -39.609  14.361  21.766  0.00  0.00     0.021 C 
ENDBRANCH  16  19
ENDBRANCH  15  16
ENDBRANCH  13  15
ENDBRANCH  12  13
ENDBRANCH  11  12
ENDBRANCH   8  11
BRANCH   2  21
ATOM     21  C   UNL d   1     -44.641  10.880  23.365  0.00  0.00     0.197 C 
ATOM     22  O   UNL d   1     -43.805  10.781  23.655  0.00  0.00    -0.286 OA
ATOM     23  C   UNL d   1     -45.187  10.275  23.415  0.00  0.00     0.045 C 
ENDBRANCH   2  21
BRANCH   1  24
ATOM     24  C   UNL d   1     -46.635  12.914  22.748  0.00  0.00     0.064 A 
ATOM     25  C   UNL d   1     -46.840  13.590  23.222  0.00  0.00     0.018 A 
ATOM     26  C   UNL d   1     -47.608  13.952  23.185  0.00  0.00     0.002 A 
ATOM     27  C   UNL d   1     -48.177  13.642  22.676  0.00  0.00     0.000 A 
ATOM     28  C   UNL d   1     -48.029  12.979  22.188  0.00  0.00     0.002 A 
ATOM     29  C   UNL d   1     -47.261  12.613  22.222  0.00  0.00     0.018 A 
ENDBRANCH   1  24
TORSDOF 9
ENDMDL
MODEL 7
REMARK VINA RESULT:      -3.0      1.592      2.678
REMARK  9 active torsions:
REMARK  status: ('A' for Active; 'I' for Inactive)
REMARK    1  A    between atoms: C_8  and  N_1 
REMARK    2  A    between atoms: C_6  and  C_2 
REMARK    3  A    between atoms: O_12  and  C_11 
REMARK    4  A    between atoms: C_18  and  O_12 
REMARK    5  A    between atoms: C_14  and  C_18 
REMARK    6  A    between atoms: C_16  and  C_14 
REMARK    7  A    between atoms: N_15  and  C_16 
REMARK    8  A    between atoms: C_23  and  N_15 
REMARK    9  A    between atoms: C_24  and  N_15 
ROOT
ATOM      1  N   UNL d   1     -48.927  13.467  22.836  0.00  0.00    -0.306 N 
ATOM      2  C   UNL d   1     -48.072  14.521  22.503  0.00  0.00     0.057 A 
ATOM      3  C   UNL d   1     -48.917  14.293  22.562  0.00  0.00     0.067 A 
ATOM      4  C   UNL d   1     -48.108  13.210  22.938  0.00  0.00     0.064 A 
ATOM      5  C   UNL d   1     -47.603  13.832  22.741  0.00  0.00     0.023 A 
ATOM      6  C   UNL d   1     -47.799  12.505  23.178  0.00  0.00     0.020 A 
ATOM      7  C   UNL d   1     -46.802  13.735  22.790  0.00  0.00     0.026 A 
ATOM      8  C   UNL d   1     -46.494  13.025  23.031  0.00  0.00     0.100 A 
ATOM      9  C   UNL d   1     -49.564  14.764  22.392  0.00  0.00     0.019 C 
ATOM     10  C   UNL d   1     -46.999  12.403  23.228  0.00  0.00     0.026 A 
ENDROOT
BRANCH   8  11
ATOM     11  O   UNL d   1     -45.646  12.893  23.092  0.00  0.00    -0.302 OA
BRANCH  11  12
ATOM     12  C   UNL d   1     -45.202  12.675  22.454  0.00  0.00     0.166 C 
BRANCH  12  13
ATOM     13  C   UNL d   1     -44.480  12.211  22.539  0.00  0.00     0.238 C 
ATOM     14  O   UNL d   1     -43.867  12.286  21.916  0.00  0.00    -0.283 OA
BRANCH  13  15
ATOM     15  C   UNL d   1     -44.359  11.718  23.168  0.00  0.00     0.125 C 
BRANCH  15  16
ATOM     16  N   UNL d   1     -43.915  10.986  23.091  0.00  0.00    -0.300 N 
BRANCH  16  17
ATOM     17  C   UNL d   1     -43.150  10.783  22.775  0.00  0.00     0.080 C 
ATOM     18  C   UNL d   1     -42.678  10.604  23.417  0.00  0.00     0.021 C 
ENDBRANCH  16  17
BRANCH  16  19
ATOM     19  C   UNL d   1     -44.209  10.274  23.351  0.00  0.00     0.080 C 
ATOM     20  C   UNL d   1     -44.997  10.202  23.687  0.00  0.00     0.021 C 
ENDBRANCH  16  19
ENDBRANCH  15  16
ENDBRANCH  13  15
ENDBRANCH  12  13
ENDBRANCH  11  12
ENDBRANCH   8  11
BRANCH   2  21
ATOM     21  C   UNL d   1     -47.839  15.264  22.261  0.00  0.00     0.197 C 
ATOM     22  O   UNL d   1     -47.215  15.779  22.632  0.00  0.00    -0.286 OA
ATOM     23  C   UNL d   1     -48.260  15.504  21.604  0.00  0.00     0.045 C 
ENDBRANCH   2  21
BRANCH   1  24
ATOM     24  C   UNL d   1     -49.622  13.064  22.956  0.00  0.00     0.064 A 
ATOM     25  C   UNL d   1     -50.123  13.092  23.643  0.00  0.00     0.018 A 
ATOM     26  C   UNL d   1     -50.841  12.640  23.698  0.00  0.00     0.002 A 
ATOM     27  C   UNL d   1     -51.063  12.158  23.068  0.00  0.00     0.000 A 
ATOM     28  C   UNL d   1     -50.608  12.093  22.369  0.00  0.00     0.002 A 
ATOM     29  C   UNL d   1     -49.888  12.544  22.310  0.00  0.00     0.018 A 
ENDBRANCH   1  24
TORSDOF 9
ENDMDL
