MODEL 1
REMARK VINA RESULT:      17.1      0.000      0.000
REMARK  3 active torsions:
REMARK  status: ('A' for Active; 'I' for Inactive)
REMARK    1  A    between atoms: C_8  and  N_1 
REMARK    2  A    between atoms: C_6  and  C_2 
REMARK    3  A    between atoms: C_14  and  C_8 
ROOT
ATOM      1  N   UNL d   1     -51.972  24.848  33.307  0.00  0.00    -0.289 N 
ATOM      2  C   UNL d   1     -52.232  25.637  33.307  0.00  0.00     0.154 A 
ATOM      3  N   UNL d   1     -53.054  25.633  33.306  0.00  0.00    -0.226 NA
ATOM      4  C   UNL d   1     -52.638  24.360  33.307  0.00  0.00     0.083 A 
ATOM      5  C   UNL d   1     -53.307  24.842  33.306  0.00  0.00     0.099 A 
ATOM      6  C   UNL d   1     -52.731  23.531  33.307  0.00  0.00     0.019 A 
ATOM      7  C   UNL d   1     -54.064  24.503  33.306  0.00  0.00     0.021 A 
ATOM      8  C   UNL d   1     -53.485  23.198  33.306  0.00  0.00     0.002 A 
ATOM      9  C   UNL d   1     -54.152  23.684  33.306  0.00  0.00     0.002 A 
ENDROOT
BRANCH   2  10
ATOM     10  C   UNL d   1     -51.746  26.303  33.307  0.00  0.00     0.064 A 
ATOM     11  S   UNL d   1     -51.855  27.017  33.307  0.00  0.00    -0.083 SA
ATOM     12  C   UNL d   1     -51.289  27.461  33.307  0.00  0.00     0.035 A 
ATOM     13  C   UNL d   1     -50.620  27.204  33.307  0.00  0.00     0.008 A 
ATOM     14  C   UNL d   1     -50.511  26.491  33.307  0.00  0.00     0.010 A 
ENDBRANCH   2  10
BRANCH   1  15
ATOM     15  C   UNL d   1     -51.152  24.762  33.307  0.00  0.00     0.082 C 
BRANCH  15  16
ATOM     16  C   UNL d   1     -50.820  24.010  33.359  0.00  0.00     0.018 C 
ATOM     17  C   UNL d   1     -50.001  23.925  33.377  0.00  0.00     0.002 C 
ATOM     18  C   UNL d   1     -51.306  23.345  33.392  0.00  0.00     0.002 C 
ENDBRANCH  15  16
ENDBRANCH   1  15
TORSDOF 3
ENDMDL
