MODEL 1
REMARK VINA RESULT:      -3.7      0.000      0.000
REMARK  5 active torsions:
REMARK  status: ('A' for Active; 'I' for Inactive)
REMARK    1  A    between atoms: C_4  and  S_1 
REMARK    2  A    between atoms: N_5  and  S_1 
REMARK    3  A    between atoms: C_2  and  C_9 
REMARK       I    between atoms: N_3  and  C_2 
REMARK    4  A    between atoms: C_14  and  N_5 
REMARK    5  A    between atoms: C_15  and  C_14 
ROOT
ATOM      1  C   UNL d   1      32.744  17.548 -23.795  0.00  0.00     0.057 A 
ATOM      2  C   UNL d   1      32.487  18.251 -24.151  0.00  0.00     0.005 A 
ATOM      3  C   UNL d   1      33.120  17.574 -23.063  0.00  0.00     0.005 A 
ATOM      4  C   UNL d   1      32.985  18.991 -23.039  0.00  0.00     0.020 A 
ATOM      5  C   UNL d   1      32.605  18.969 -23.778  0.00  0.00     0.002 A 
ATOM      6  C   UNL d   1      33.241  18.299 -22.685  0.00  0.00     0.002 A 
ENDROOT
BRANCH   4   7
ATOM      7  C   UNL d   1      33.106  19.720 -22.659  0.00  0.00     0.112 C 
BRANCH   7   8
ATOM      8  N   UNL d   1      32.887  19.814 -21.867  0.00  0.00    -0.157 NA
BRANCH   8   9
ATOM      9  S   UNL d   1      32.889  20.571 -21.523  0.00  0.00     0.285 S 
ATOM     10  O   UNL d   1      33.124  20.899 -22.250  0.00  0.00    -0.198 OA
ATOM     11  O   UNL d   1      32.654  20.243 -20.797  0.00  0.00    -0.198 OA
BRANCH   9  12
ATOM     12  C   UNL d   1      32.892  21.329 -21.181  0.00  0.00     0.106 A 
ATOM     13  C   UNL d   1      32.548  21.956 -21.581  0.00  0.00     0.024 A 
ATOM     14  C   UNL d   1      32.544  22.714 -21.250  0.00  0.00     0.059 A 
ATOM     15 CL   UNL d   1      32.200  23.346 -21.650  0.00  0.00    -0.082 Cl
ATOM     16  C   UNL d   1      32.890  22.832 -20.513  0.00  0.00     0.011 A 
ATOM     17  C   UNL d   1      33.230  22.203 -20.120  0.00  0.00     0.002 A 
ATOM     18  C   UNL d   1      33.233  21.449 -20.451  0.00  0.00     0.013 A 
ENDBRANCH   9  12
ENDBRANCH   8   9
ENDBRANCH   7   8
ENDBRANCH   4   7
BRANCH   1  19
ATOM     19  C   UNL d   1      32.625  16.815 -24.172  0.00  0.00     0.265 C 
ATOM     20  N   UNL d   1      31.911  16.404 -24.065  0.00  0.00    -0.272 N 
ATOM     21  C   UNL d   1      31.277  16.653 -23.605  0.00  0.00     0.083 A 
ATOM     22  C   UNL d   1      31.716  15.676 -24.401  0.00  0.00     0.083 A 
ATOM     23  C   UNL d   1      30.687  16.079 -23.655  0.00  0.00     0.021 A 
ATOM     24  C   UNL d   1      30.954  15.479 -24.143  0.00  0.00     0.021 A 
ATOM     25  O   UNL d   1      33.222  16.492 -24.658  0.00  0.00    -0.267 OA
ENDBRANCH   1  19
TORSDOF 5
ENDMDL
MODEL 2
REMARK VINA RESULT:      -3.1      2.200      5.790
REMARK  5 active torsions:
REMARK  status: ('A' for Active; 'I' for Inactive)
REMARK    1  A    between atoms: C_4  and  S_1 
REMARK    2  A    between atoms: N_5  and  S_1 
REMARK    3  A    between atoms: C_2  and  C_9 
REMARK       I    between atoms: N_3  and  C_2 
REMARK    4  A    between atoms: C_14  and  N_5 
REMARK    5  A    between atoms: C_15  and  C_14 
ROOT
ATOM      1  C   UNL d   1      32.411  22.104 -21.279  0.00  0.00     0.057 A 
ATOM      2  C   UNL d   1      32.927  22.141 -21.925  0.00  0.00     0.005 A 
ATOM      3  C   UNL d   1      32.165  21.371 -20.993  0.00  0.00     0.005 A 
ATOM      4  C   UNL d   1      32.943  20.717 -21.990  0.00  0.00     0.020 A 
ATOM      5  C   UNL d   1      33.193  21.455 -22.281  0.00  0.00     0.002 A 
ATOM      6  C   UNL d   1      32.433  20.676 -21.351  0.00  0.00     0.002 A 
ENDROOT
BRANCH   4   7
ATOM      7  C   UNL d   1      33.213  20.019 -22.351  0.00  0.00     0.112 C 
BRANCH   7   8
ATOM      8  N   UNL d   1      32.958  19.824 -23.113  0.00  0.00    -0.157 NA
BRANCH   8   9
ATOM      9  S   UNL d   1      33.029  19.041 -23.386  0.00  0.00     0.285 S 
ATOM     10  O   UNL d   1      32.861  19.296 -24.159  0.00  0.00    -0.198 OA
ATOM     11  O   UNL d   1      33.198  18.787 -22.613  0.00  0.00    -0.198 OA
BRANCH   9  12
ATOM     12  C   UNL d   1      33.101  18.259 -23.660  0.00  0.00     0.106 A 
ATOM     13  C   UNL d   1      33.113  17.640 -23.123  0.00  0.00     0.024 A 
ATOM     14  C   UNL d   1      33.183  16.858 -23.384  0.00  0.00     0.059 A 
ATOM     15 CL   UNL d   1      33.195  16.235 -22.846  0.00  0.00    -0.082 Cl
ATOM     16  C   UNL d   1      33.241  16.709 -24.190  0.00  0.00     0.011 A 
ATOM     17  C   UNL d   1      33.228  17.330 -24.720  0.00  0.00     0.002 A 
ATOM     18  C   UNL d   1      33.158  18.107 -24.458  0.00  0.00     0.013 A 
ENDBRANCH   9  12
ENDBRANCH   8   9
ENDBRANCH   7   8
ENDBRANCH   4   7
BRANCH   1  19
ATOM     19  C   UNL d   1      32.138  22.801 -20.914  0.00  0.00     0.265 C 
ATOM     20  N   UNL d   1      32.439  23.027 -20.174  0.00  0.00    -0.272 N 
ATOM     21  C   UNL d   1      33.005  22.620 -19.739  0.00  0.00     0.083 A 
ATOM     22  C   UNL d   1      32.222  23.701 -19.747  0.00  0.00     0.083 A 
ATOM     23  C   UNL d   1      33.141  23.040 -19.042  0.00  0.00     0.021 A 
ATOM     24  C   UNL d   1      32.661  23.702 -19.046  0.00  0.00     0.021 A 
ATOM     25  O   UNL d   1      31.561  23.273 -21.291  0.00  0.00    -0.267 OA
ENDBRANCH   1  19
TORSDOF 5
ENDMDL
MODEL 3
REMARK VINA RESULT:      -1.3      1.556      2.165
REMARK  5 active torsions:
REMARK  status: ('A' for Active; 'I' for Inactive)
REMARK    1  A    between atoms: C_4  and  S_1 
REMARK    2  A    between atoms: N_5  and  S_1 
REMARK    3  A    between atoms: C_2  and  C_9 
REMARK       I    between atoms: N_3  and  C_2 
REMARK    4  A    between atoms: C_14  and  N_5 
REMARK    5  A    between atoms: C_15  and  C_14 
ROOT
ATOM      1  C   UNL d   1      30.870  16.506 -24.169  0.00  0.00     0.057 A 
ATOM      2  C   UNL d   1      31.042  17.244 -24.502  0.00  0.00     0.005 A 
ATOM      3  C   UNL d   1      31.281  16.252 -23.501  0.00  0.00     0.005 A 
ATOM      4  C   UNL d   1      32.031  17.462 -23.499  0.00  0.00     0.020 A 
ATOM      5  C   UNL d   1      31.618  17.721 -24.173  0.00  0.00     0.002 A 
ATOM      6  C   UNL d   1      31.863  16.733 -23.167  0.00  0.00     0.002 A 
ENDROOT
BRANCH   4   7
ATOM      7  C   UNL d   1      32.616  17.947 -23.164  0.00  0.00     0.112 C 
BRANCH   7   8
ATOM      8  N   UNL d   1      32.736  18.712 -23.456  0.00  0.00    -0.157 NA
BRANCH   8   9
ATOM      9  S   UNL d   1      32.863  19.342 -22.928  0.00  0.00     0.285 S 
ATOM     10  O   UNL d   1      33.012  18.798 -22.317  0.00  0.00    -0.198 OA
ATOM     11  O   UNL d   1      32.714  19.885 -23.539  0.00  0.00    -0.198 OA
BRANCH   9  12
ATOM     12  C   UNL d   1      32.990  19.971 -22.399  0.00  0.00     0.106 A 
ATOM     13  C   UNL d   1      32.987  20.742 -22.677  0.00  0.00     0.024 A 
ATOM     14  C   UNL d   1      33.112  21.375 -22.160  0.00  0.00     0.059 A 
ATOM     15 CL   UNL d   1      33.110  22.150 -22.436  0.00  0.00    -0.082 Cl
ATOM     16  C   UNL d   1      33.240  21.222 -21.362  0.00  0.00     0.011 A 
ATOM     17  C   UNL d   1      33.241  20.452 -21.092  0.00  0.00     0.002 A 
ATOM     18  C   UNL d   1      33.116  19.824 -21.607  0.00  0.00     0.013 A 
ENDBRANCH   9  12
ENDBRANCH   8   9
ENDBRANCH   7   8
ENDBRANCH   4   7
BRANCH   1  19
ATOM     19  C   UNL d   1      30.283  16.017 -24.502  0.00  0.00     0.265 C 
ATOM     20  N   UNL d   1      29.494  16.087 -24.253  0.00  0.00    -0.272 N 
ATOM     21  C   UNL d   1      29.212  16.611 -23.686  0.00  0.00     0.083 A 
ATOM     22  C   UNL d   1      28.856  15.642 -24.533  0.00  0.00     0.083 A 
ATOM     23  C   UNL d   1      28.399  16.493 -23.613  0.00  0.00     0.021 A 
ATOM     24  C   UNL d   1      28.180  15.899 -24.131  0.00  0.00     0.021 A 
ATOM     25  O   UNL d   1      30.487  15.456 -25.086  0.00  0.00    -0.267 OA
ENDBRANCH   1  19
TORSDOF 5
ENDMDL
MODEL 4
REMARK VINA RESULT:      -0.9      2.117      5.570
REMARK  5 active torsions:
REMARK  status: ('A' for Active; 'I' for Inactive)
REMARK    1  A    between atoms: C_4  and  S_1 
REMARK    2  A    between atoms: N_5  and  S_1 
REMARK    3  A    between atoms: C_2  and  C_9 
REMARK       I    between atoms: N_3  and  C_2 
REMARK    4  A    between atoms: C_14  and  N_5 
REMARK    5  A    between atoms: C_15  and  C_14 
ROOT
ATOM      1  C   UNL d   1      33.094  21.455 -22.202  0.00  0.00     0.057 A 
ATOM      2  C   UNL d   1      33.196  21.301 -23.009  0.00  0.00     0.005 A 
ATOM      3  C   UNL d   1      33.036  20.828 -21.670  0.00  0.00     0.005 A 
ATOM      4  C   UNL d   1      33.180  19.901 -22.741  0.00  0.00     0.020 A 
ATOM      5  C   UNL d   1      33.239  20.531 -23.281  0.00  0.00     0.002 A 
ATOM      6  C   UNL d   1      33.079  20.050 -21.942  0.00  0.00     0.002 A 
ENDROOT
BRANCH   4   7
ATOM      7  C   UNL d   1      33.224  19.118 -23.015  0.00  0.00     0.112 C 
BRANCH   7   8
ATOM      8  N   UNL d   1      32.652  18.832 -23.539  0.00  0.00    -0.157 NA
BRANCH   8   9
ATOM      9  S   UNL d   1      32.511  18.014 -23.593  0.00  0.00     0.285 S 
ATOM     10  O   UNL d   1      32.104  18.038 -22.868  0.00  0.00    -0.198 OA
ATOM     11  O   UNL d   1      32.917  17.991 -24.317  0.00  0.00    -0.198 OA
BRANCH   9  12
ATOM     12  C   UNL d   1      32.370  17.196 -23.646  0.00  0.00     0.106 A 
ATOM     13  C   UNL d   1      31.630  16.926 -23.872  0.00  0.00     0.024 A 
ATOM     14  C   UNL d   1      31.478  16.115 -23.928  0.00  0.00     0.059 A 
ATOM     15 CL   UNL d   1      30.736  15.840 -24.155  0.00  0.00    -0.082 Cl
ATOM     16  C   UNL d   1      32.079  15.581 -23.753  0.00  0.00     0.011 A 
ATOM     17  C   UNL d   1      32.813  15.857 -23.528  0.00  0.00     0.002 A 
ATOM     18  C   UNL d   1      32.963  16.664 -23.473  0.00  0.00     0.013 A 
ENDBRANCH   9  12
ENDBRANCH   8   9
ENDBRANCH   7   8
ENDBRANCH   4   7
BRANCH   1  19
ATOM     19  C   UNL d   1      33.049  22.238 -21.923  0.00  0.00     0.265 C 
ATOM     20  N   UNL d   1      32.836  22.386 -21.134  0.00  0.00    -0.272 N 
ATOM     21  C   UNL d   1      32.654  21.817 -20.569  0.00  0.00     0.083 A 
ATOM     22  C   UNL d   1      32.769  23.130 -20.780  0.00  0.00     0.083 A 
ATOM     23  C   UNL d   1      32.474  22.206 -19.864  0.00  0.00     0.021 A 
ATOM     24  C   UNL d   1      32.544  23.011 -19.993  0.00  0.00     0.021 A 
ATOM     25  O   UNL d   1      33.219  22.876 -22.434  0.00  0.00    -0.267 OA
ENDBRANCH   1  19
TORSDOF 5
ENDMDL
