MODEL 1
REMARK VINA RESULT:      -5.7      0.000      0.000
REMARK  2 active torsions:
REMARK  status: ('A' for Active; 'I' for Inactive)
REMARK    1  A    between atoms: C_3  and  C_1 
REMARK       I    between atoms: N_6  and  C_3 
REMARK    2  A    between atoms: C_12  and  N_6 
ROOT
ATOM      1  C   UNL d   1     -41.256-123.213 -50.739  0.00  0.00     0.008 A 
ATOM      2  S   UNL d   1     -41.265-122.672 -49.539  0.00  0.00    -0.086 SA
ATOM      3  C   UNL d   1     -41.223-122.505 -50.330  0.00  0.00     0.030 A 
ATOM      4  C   UNL d   1     -41.323-123.467 -49.452  0.00  0.00     0.035 A 
ATOM      5  C   UNL d   1     -41.158-122.498 -51.984  0.00  0.00     0.085 A 
ATOM      6  C   UNL d   1     -41.224-123.207 -51.566  0.00  0.00     0.020 A 
ATOM      7  C   UNL d   1     -41.319-123.817 -50.191  0.00  0.00     0.007 A 
ATOM      8  C   UNL d   1     -41.156-121.775 -50.748  0.00  0.00     0.008 A 
ATOM      9  C   UNL d   1     -41.124-121.783 -51.575  0.00  0.00     0.020 A 
ENDROOT
BRANCH   5  10
ATOM     10  N   UNL d   1     -41.127-122.506 -52.811  0.00  0.00    -0.208 NA
ATOM     11  C   UNL d   1     -41.796-122.309 -53.252  0.00  0.00     0.285 C 
ATOM     12  O   UNL d   1     -42.492-122.106 -52.867  0.00  0.00    -0.265 OA
BRANCH  11  13
ATOM     13  C   UNL d   1     -41.765-122.316 -54.072  0.00  0.00     0.088 A 
ATOM     14  S   UNL d   1     -42.320-121.950 -54.593  0.00  0.00    -0.071 SA
ATOM     15  C   UNL d   1     -42.078-122.094 -55.370  0.00  0.00     0.087 A 
ATOM     16 CL   UNL d   1     -42.436-121.853 -56.013  0.00  0.00    -0.075 Cl
ATOM     17  C   UNL d   1     -41.351-122.563 -55.327  0.00  0.00     0.019 A 
ATOM     18  C   UNL d   1     -41.170-122.692 -54.543  0.00  0.00     0.013 A 
ENDBRANCH  11  13
ENDBRANCH   5  10
TORSDOF 2
ENDMDL
MODEL 2
REMARK VINA RESULT:      -5.7      0.781      1.044
REMARK  2 active torsions:
REMARK  status: ('A' for Active; 'I' for Inactive)
REMARK    1  A    between atoms: C_3  and  C_1 
REMARK       I    between atoms: N_6  and  C_3 
REMARK    2  A    between atoms: C_12  and  N_6 
ROOT
ATOM      1  C   UNL d   1     -42.126-122.511 -50.562  0.00  0.00     0.008 A 
ATOM      2  S   UNL d   1     -41.858-123.262 -49.515  0.00  0.00    -0.086 SA
ATOM      3  C   UNL d   1     -41.690-123.152 -50.299  0.00  0.00     0.030 A 
ATOM      4  C   UNL d   1     -42.386-122.703 -49.288  0.00  0.00     0.035 A 
ATOM      5  C   UNL d   1     -41.565-122.669 -51.877  0.00  0.00     0.085 A 
ATOM      6  C   UNL d   1     -42.062-122.272 -51.351  0.00  0.00     0.020 A 
ATOM      7  C   UNL d   1     -42.563-122.228 -49.930  0.00  0.00     0.007 A 
ATOM      8  C   UNL d   1     -41.180-123.565 -50.829  0.00  0.00     0.008 A 
ATOM      9  C   UNL d   1     -41.125-123.316 -51.616  0.00  0.00     0.020 A 
ENDROOT
BRANCH   5  10
ATOM     10  N   UNL d   1     -41.510-122.420 -52.665  0.00  0.00    -0.208 NA
ATOM     11  C   UNL d   1     -41.753-122.920 -53.274  0.00  0.00     0.285 C 
ATOM     12  O   UNL d   1     -42.050-123.665 -53.097  0.00  0.00    -0.265 OA
BRANCH  11  13
ATOM     13  C   UNL d   1     -41.698-122.673 -54.055  0.00  0.00     0.088 A 
ATOM     14  S   UNL d   1     -42.204-122.116 -54.436  0.00  0.00    -0.071 SA
ATOM     15  C   UNL d   1     -41.952-122.029 -55.218  0.00  0.00     0.087 A 
ATOM     16 CL   UNL d   1     -42.270-121.569 -55.754  0.00  0.00    -0.075 Cl
ATOM     17  C   UNL d   1     -41.269-122.551 -55.323  0.00  0.00     0.019 A 
ATOM     18  C   UNL d   1     -41.123-122.934 -54.619  0.00  0.00     0.013 A 
ENDBRANCH  11  13
ENDBRANCH   5  10
TORSDOF 2
ENDMDL
MODEL 3
REMARK VINA RESULT:      -5.5      1.937      4.300
REMARK  2 active torsions:
REMARK  status: ('A' for Active; 'I' for Inactive)
REMARK    1  A    between atoms: C_3  and  C_1 
REMARK       I    between atoms: N_6  and  C_3 
REMARK    2  A    between atoms: C_12  and  N_6 
ROOT
ATOM      1  C   UNL d   1     -41.995-122.041 -54.160  0.00  0.00     0.008 A 
ATOM      2  S   UNL d   1     -41.699-122.552 -55.335  0.00  0.00    -0.086 SA
ATOM      3  C   UNL d   1     -41.581-122.637 -54.539  0.00  0.00     0.030 A 
ATOM      4  C   UNL d   1     -42.175-121.920 -55.456  0.00  0.00     0.035 A 
ATOM      5  C   UNL d   1     -41.541-122.536 -52.888  0.00  0.00     0.085 A 
ATOM      6  C   UNL d   1     -41.974-121.993 -53.334  0.00  0.00     0.020 A 
ATOM      7  C   UNL d   1     -42.369-121.591 -54.732  0.00  0.00     0.007 A 
ATOM      8  C   UNL d   1     -41.136-123.196 -54.092  0.00  0.00     0.008 A 
ATOM      9  C   UNL d   1     -41.123-123.138 -53.267  0.00  0.00     0.020 A 
ENDROOT
BRANCH   5  10
ATOM     10  N   UNL d   1     -41.528-122.477 -52.062  0.00  0.00    -0.208 NA
ATOM     11  C   UNL d   1     -41.820-123.094 -51.599  0.00  0.00     0.285 C 
ATOM     12  O   UNL d   1     -42.124-123.767 -51.960  0.00  0.00    -0.265 OA
BRANCH  11  13
ATOM     13  C   UNL d   1     -41.806-123.036 -50.780  0.00  0.00     0.088 A 
ATOM     14  S   UNL d   1     -42.463-122.847 -50.285  0.00  0.00    -0.071 SA
ATOM     15  C   UNL d   1     -42.205-122.848 -49.500  0.00  0.00     0.087 A 
ATOM     16 CL   UNL d   1     -42.638-122.701 -48.875  0.00  0.00    -0.075 Cl
ATOM     17  C   UNL d   1     -41.361-123.044 -49.511  0.00  0.00     0.019 A 
ATOM     18  C   UNL d   1     -41.130-123.155 -50.285  0.00  0.00     0.013 A 
ENDBRANCH  11  13
ENDBRANCH   5  10
TORSDOF 2
ENDMDL
MODEL 4
REMARK VINA RESULT:      -5.4      2.422      4.495
REMARK  2 active torsions:
REMARK  status: ('A' for Active; 'I' for Inactive)
REMARK    1  A    between atoms: C_3  and  C_1 
REMARK       I    between atoms: N_6  and  C_3 
REMARK    2  A    between atoms: C_12  and  N_6 
ROOT
ATOM      1  C   UNL d   1     -41.150-123.335 -52.741  0.00  0.00     0.008 A 
ATOM      2  S   UNL d   1     -41.220-122.565 -53.807  0.00  0.00    -0.086 SA
ATOM      3  C   UNL d   1     -41.210-122.560 -52.997  0.00  0.00     0.030 A 
ATOM      4  C   UNL d   1     -41.167-123.325 -54.055  0.00  0.00     0.035 A 
ATOM      5  C   UNL d   1     -41.167-122.885 -51.375  0.00  0.00     0.085 A 
ATOM      6  C   UNL d   1     -41.129-123.495 -51.930  0.00  0.00     0.020 A 
ATOM      7  C   UNL d   1     -41.123-123.817 -53.403  0.00  0.00     0.007 A 
ATOM      8  C   UNL d   1     -41.250-121.929 -52.438  0.00  0.00     0.008 A 
ATOM      9  C   UNL d   1     -41.227-122.102 -51.630  0.00  0.00     0.020 A 
ENDROOT
BRANCH   5  10
ATOM     10  N   UNL d   1     -41.144-123.058 -50.566  0.00  0.00    -0.208 NA
ATOM     11  C   UNL d   1     -41.833-123.012 -50.114  0.00  0.00     0.285 C 
ATOM     12  O   UNL d   1     -42.540-122.793 -50.470  0.00  0.00    -0.265 OA
BRANCH  11  13
ATOM     13  C   UNL d   1     -41.811-123.183 -49.312  0.00  0.00     0.088 A 
ATOM     14  S   UNL d   1     -42.460-123.132 -48.775  0.00  0.00    -0.071 SA
ATOM     15  C   UNL d   1     -42.194-123.354 -48.025  0.00  0.00     0.087 A 
ATOM     16 CL   UNL d   1     -42.619-123.382 -47.378  0.00  0.00    -0.075 Cl
ATOM     17  C   UNL d   1     -41.354-123.548 -48.101  0.00  0.00     0.019 A 
ATOM     18  C   UNL d   1     -41.131-123.443 -48.879  0.00  0.00     0.013 A 
ENDBRANCH  11  13
ENDBRANCH   5  10
TORSDOF 2
ENDMDL
