MODEL 1
REMARK VINA RESULT:      55.3      0.000      0.000
REMARK  3 active torsions:
REMARK  status: ('A' for Active; 'I' for Inactive)
REMARK    1  A    between atoms: C_6  and  N_3 
REMARK    2  A    between atoms: C_5  and  C_4 
REMARK    3  A    between atoms: O_18  and  C_14 
ROOT
ATOM      1  C   UNL d   1      61.136  49.353  50.268  0.00  0.00     0.366 A 
ATOM      2  C   UNL d   1      60.536  49.512  49.724  0.00  0.00     0.308 A 
ATOM      3  N   UNL d   1      59.971  49.411  50.294  0.00  0.00    -0.272 N 
ATOM      4  C   UNL d   1      60.573  49.246  50.862  0.00  0.00     0.115 A 
ATOM      5  O   UNL d   1      60.503  49.700  48.923  0.00  0.00    -0.265 OA
ATOM      6  F   UNL d   1      61.584  49.486  49.588  0.00  0.00    -0.188 F 
ATOM      7  F   UNL d   1      61.927  49.262  50.469  0.00  0.00    -0.188 F 
ENDROOT
BRANCH   3   8
ATOM      8  C   UNL d   1      59.130  49.449  50.328  0.00  0.00     0.067 A 
ATOM      9  C   UNL d   1      58.759  49.512  51.052  0.00  0.00     0.020 A 
ATOM     10  C   UNL d   1      57.936  49.550  51.101  0.00  0.00     0.026 A 
ATOM     11  C   UNL d   1      57.500  49.524  50.402  0.00  0.00     0.094 A 
ATOM     12  C   UNL d   1      57.859  49.460  49.667  0.00  0.00     0.026 A 
ATOM     13  C   UNL d   1      58.682  49.422  49.618  0.00  0.00     0.020 A 
BRANCH  11  14
ATOM     14  O   UNL d   1      56.662  49.562  50.439  0.00  0.00    -0.328 OA
ATOM     15  C   UNL d   1      56.282  49.697  51.169  0.00  0.00     0.181 C 
ENDBRANCH  11  14
ENDBRANCH   3   8
BRANCH   4  16
ATOM     16  C   UNL d   1      60.581  49.057  51.672  0.00  0.00     0.045 A 
ATOM     17  C   UNL d   1      60.625  48.274  51.900  0.00  0.00     0.141 A 
ATOM     18  F   UNL d   1      60.662  47.659  51.329  0.00  0.00    -0.204 F 
ATOM     19  C   UNL d   1      60.633  48.095  52.726  0.00  0.00     0.030 A 
ATOM     20  C   UNL d   1      60.596  48.712  53.262  0.00  0.00     0.002 A 
ATOM     21  C   UNL d   1      60.552  49.494  53.040  0.00  0.00     0.000 A 
ATOM     22  C   UNL d   1      60.544  49.684  52.226  0.00  0.00     0.004 A 
ENDBRANCH   4  16
TORSDOF 3
ENDMDL
