MODEL 1
REMARK VINA RESULT:      58.9      0.000      0.000
REMARK  4 active torsions:
REMARK  status: ('A' for Active; 'I' for Inactive)
REMARK    1  A    between atoms: N_7  and  C_1 
REMARK    2  A    between atoms: C_8  and  C_4 
REMARK    3  A    between atoms: C_10  and  N_7 
REMARK    4  A    between atoms: C_12  and  C_8 
ROOT
ATOM      1  C   UNL d   1     -51.490  24.640  33.413  0.00  0.00     0.184 A 
ATOM      2  N   UNL d   1     -51.919  25.349  33.405  0.00  0.00    -0.129 NA
ATOM      3  N   UNL d   1     -51.519  26.072  33.395  0.00  0.00    -0.147 NA
ATOM      4  C   UNL d   1     -50.691  26.095  33.394  0.00  0.00     0.103 A 
ATOM      5  C   UNL d   1     -50.666  24.665  33.412  0.00  0.00     0.039 A 
ATOM      6  C   UNL d   1     -50.266  25.388  33.402  0.00  0.00     0.022 A 
ATOM      7  C   UNL d   1     -50.238  23.956  33.420  0.00  0.00     0.003 A 
ATOM      8  C   UNL d   1     -49.436  25.406  33.401  0.00  0.00     0.002 A 
ATOM      9  C   UNL d   1     -49.012  24.699  33.409  0.00  0.00     0.000 A 
ATOM     10  C   UNL d   1     -49.414  23.972  33.419  0.00  0.00     0.000 A 
ENDROOT
BRANCH   1  11
ATOM     11  N   UNL d   1     -51.883  23.914  33.423  0.00  0.00    -0.225 NA
BRANCH  11  12
ATOM     12  C   UNL d   1     -52.690  23.891  33.586  0.00  0.00     0.083 A 
ATOM     13  C   UNL d   1     -53.038  24.501  34.007  0.00  0.00     0.020 A 
ATOM     14  C   UNL d   1     -53.841  24.487  34.175  0.00  0.00     0.013 A 
ATOM     15  C   UNL d   1     -54.309  23.847  33.917  0.00  0.00     0.058 A 
ATOM     16  C   UNL d   1     -53.955  23.233  33.493  0.00  0.00     0.013 A 
ATOM     17 CL   UNL d   1     -55.119  23.830  34.084  0.00  0.00    -0.082 Cl
ATOM     18  C   UNL d   1     -53.144  23.253  33.326  0.00  0.00     0.020 A 
ENDBRANCH  11  12
ENDBRANCH   1  11
BRANCH   4  19
ATOM     19  C   UNL d   1     -50.291  26.818  33.385  0.00  0.00     0.021 C 
BRANCH  19  20
ATOM     20  C   UNL d   1     -50.713  27.525  33.442  0.00  0.00     0.005 A 
ATOM     21  C   UNL d   1     -50.312  28.233  33.569  0.00  0.00     0.021 A 
ATOM     22  C   UNL d   1     -50.734  28.940  33.626  0.00  0.00     0.099 A 
ATOM     23  N   UNL d   1     -51.557  28.936  33.556  0.00  0.00    -0.242 NA
ATOM     24  C   UNL d   1     -51.958  28.215  33.428  0.00  0.00     0.099 A 
ATOM     25  C   UNL d   1     -51.527  27.514  33.372  0.00  0.00     0.021 A 
ENDBRANCH  19  20
ENDBRANCH   4  19
TORSDOF 4
ENDMDL
