MODEL 1
REMARK VINA RESULT:      -8.1      0.000      0.000
REMARK  4 active torsions:
REMARK  status: ('A' for Active; 'I' for Inactive)
REMARK    1  A    between atoms: C_10  and  N_4 
REMARK    2  A    between atoms: C_11  and  C_10 
REMARK       I    between atoms: N_15  and  C_11 
REMARK    3  A    between atoms: C_12  and  C_20 
REMARK    4  A    between atoms: C_20  and  N_15 
ROOT
ATOM      1  C   UNL d   1      52.526  33.130  53.760  0.00  0.00     0.174 A 
ATOM      2  C   UNL d   1      52.766  33.877  54.000  0.00  0.00     0.112 A 
ATOM      3  C   UNL d   1      51.805  33.024  53.378  0.00  0.00     0.290 A 
ATOM      4  N   UNL d   1      51.321  33.675  53.236  0.00  0.00    -0.249 N 
ATOM      5  O   UNL d   1      53.120  32.593  53.974  0.00  0.00    -0.301 OA
ATOM      6  N   UNL d   1      52.282  34.527  53.859  0.00  0.00    -0.223 NA
ATOM      7  C   UNL d   1      53.504  33.808  54.363  0.00  0.00     0.043 A 
ATOM      8  C   UNL d   1      51.557  34.430  53.476  0.00  0.00     0.185 A 
ATOM      9  C   UNL d   1      53.722  33.010  54.346  0.00  0.00     0.102 A 
ATOM     10  O   UNL d   1      51.565  32.275  53.136  0.00  0.00    -0.264 OA
ATOM     11  C   UNL d   1      54.002  34.366  54.704  0.00  0.00     0.004 A 
ATOM     12  C   UNL d   1      54.442  32.778  54.674  0.00  0.00     0.025 A 
ATOM     13  C   UNL d   1      54.728  34.134  55.035  0.00  0.00     0.000 A 
ATOM     14  C   UNL d   1      54.942  33.336  55.016  0.00  0.00     0.002 A 
ENDROOT
BRANCH   4  15
ATOM     15  C   UNL d   1      50.592  33.582  52.852  0.00  0.00     0.147 C 
BRANCH  15  16
ATOM     16  C   UNL d   1      50.300  34.174  52.360  0.00  0.00     0.297 C 
ATOM     17  N   UNL d   1      49.558  34.478  52.506  0.00  0.00    -0.203 NA
ATOM     18  O   UNL d   1      50.751  34.455  51.730  0.00  0.00    -0.264 OA
BRANCH  17  19
ATOM     19  C   UNL d   1      49.256  35.071  52.019  0.00  0.00     0.127 C 
BRANCH  19  20
ATOM     20  C   UNL d   1      48.530  35.418  52.205  0.00  0.00     0.119 A 
ATOM     21  O   UNL d   1      48.340  35.839  52.890  0.00  0.00    -0.304 OA
ATOM     22  C   UNL d   1      47.546  36.085  52.837  0.00  0.00     0.123 A 
ATOM     23  C   UNL d   1      47.243  35.814  52.113  0.00  0.00     0.029 A 
ATOM     24  C   UNL d   1      47.845  35.403  51.720  0.00  0.00     0.028 A 
ENDBRANCH  19  20
ENDBRANCH  17  19
ENDBRANCH  15  16
ENDBRANCH   4  15
TORSDOF 4
ENDMDL
MODEL 2
REMARK VINA RESULT:      -8.1      1.291      1.832
REMARK  4 active torsions:
REMARK  status: ('A' for Active; 'I' for Inactive)
REMARK    1  A    between atoms: C_10  and  N_4 
REMARK    2  A    between atoms: C_11  and  C_10 
REMARK       I    between atoms: N_15  and  C_11 
REMARK    3  A    between atoms: C_12  and  C_20 
REMARK    4  A    between atoms: C_20  and  N_15 
ROOT
ATOM      1  C   UNL d   1      52.495  33.368  53.321  0.00  0.00     0.174 A 
ATOM      2  C   UNL d   1      52.110  32.655  53.189  0.00  0.00     0.112 A 
ATOM      3  C   UNL d   1      52.082  34.079  53.291  0.00  0.00     0.290 A 
ATOM      4  N   UNL d   1      51.275  34.074  53.126  0.00  0.00    -0.249 N 
ATOM      5  O   UNL d   1      53.292  33.199  53.470  0.00  0.00    -0.301 OA
ATOM      6  N   UNL d   1      51.303  32.651  53.025  0.00  0.00    -0.223 NA
ATOM      7  C   UNL d   1      52.662  32.046  53.255  0.00  0.00     0.043 A 
ATOM      8  C   UNL d   1      50.882  33.359  52.992  0.00  0.00     0.185 A 
ATOM      9  C   UNL d   1      53.396  32.385  53.430  0.00  0.00     0.102 A 
ATOM     10  O   UNL d   1      52.470  34.793  53.423  0.00  0.00    -0.264 OA
ATOM     11  C   UNL d   1      52.591  31.229  53.179  0.00  0.00     0.004 A 
ATOM     12  C   UNL d   1      54.056  31.900  53.528  0.00  0.00     0.025 A 
ATOM     13  C   UNL d   1      53.254  30.741  53.277  0.00  0.00     0.000 A 
ATOM     14  C   UNL d   1      53.985  31.083  53.452  0.00  0.00     0.002 A 
ENDROOT
BRANCH   4  15
ATOM     15  C   UNL d   1      50.849  34.783  53.093  0.00  0.00     0.147 C 
BRANCH  15  16
ATOM     16  C   UNL d   1      50.080  34.796  52.798  0.00  0.00     0.297 C 
ATOM     17  N   UNL d   1      49.520  35.252  53.175  0.00  0.00    -0.203 NA
ATOM     18  O   UNL d   1      49.880  34.353  52.132  0.00  0.00    -0.264 OA
BRANCH  17  19
ATOM     19  C   UNL d   1      48.747  35.271  52.888  0.00  0.00     0.127 C 
BRANCH  19  20
ATOM     20  C   UNL d   1      48.211  35.816  53.201  0.00  0.00     0.119 A 
ATOM     21  O   UNL d   1      48.159  36.069  53.986  0.00  0.00    -0.304 OA
ATOM     22  C   UNL d   1      47.538  36.620  54.046  0.00  0.00     0.123 A 
ATOM     23  C   UNL d   1      47.204  36.709  53.290  0.00  0.00     0.029 A 
ATOM     24  C   UNL d   1      47.614  36.217  52.767  0.00  0.00     0.028 A 
ENDBRANCH  19  20
ENDBRANCH  17  19
ENDBRANCH  15  16
ENDBRANCH   4  15
TORSDOF 4
ENDMDL
MODEL 3
REMARK VINA RESULT:      -7.4      0.918      5.434
REMARK  4 active torsions:
REMARK  status: ('A' for Active; 'I' for Inactive)
REMARK    1  A    between atoms: C_10  and  N_4 
REMARK    2  A    between atoms: C_11  and  C_10 
REMARK       I    between atoms: N_15  and  C_11 
REMARK    3  A    between atoms: C_12  and  C_20 
REMARK    4  A    between atoms: C_20  and  N_15 
ROOT
ATOM      1  C   UNL d   1      49.045  34.950  52.136  0.00  0.00     0.174 A 
ATOM      2  C   UNL d   1      48.956  35.343  52.851  0.00  0.00     0.112 A 
ATOM      3  C   UNL d   1      49.696  34.466  52.002  0.00  0.00     0.290 A 
ATOM      4  N   UNL d   1      50.264  34.375  52.592  0.00  0.00    -0.249 N 
ATOM      5  O   UNL d   1      48.396  35.146  51.660  0.00  0.00    -0.301 OA
ATOM      6  N   UNL d   1      49.524  35.252  53.441  0.00  0.00    -0.223 NA
ATOM      7  C   UNL d   1      48.258  35.781  52.822  0.00  0.00     0.043 A 
ATOM      8  C   UNL d   1      50.180  34.768  53.315  0.00  0.00     0.185 A 
ATOM      9  C   UNL d   1      47.911  35.658  52.081  0.00  0.00     0.102 A 
ATOM     10  O   UNL d   1      49.784  34.072  51.284  0.00  0.00    -0.264 OA
ATOM     11  C   UNL d   1      47.895  36.274  53.372  0.00  0.00     0.004 A 
ATOM     12  C   UNL d   1      47.200  36.032  51.897  0.00  0.00     0.025 A 
ATOM     13  C   UNL d   1      47.179  36.651  53.188  0.00  0.00     0.000 A 
ATOM     14  C   UNL d   1      46.836  36.525  52.447  0.00  0.00     0.002 A 
ENDROOT
BRANCH   4  15
ATOM     15  C   UNL d   1      50.924  33.890  52.470  0.00  0.00     0.147 C 
BRANCH  15  16
ATOM     16  C   UNL d   1      51.666  34.115  52.748  0.00  0.00     0.297 C 
ATOM     17  N   UNL d   1      52.091  33.591  53.206  0.00  0.00    -0.203 NA
ATOM     18  O   UNL d   1      51.973  34.858  52.567  0.00  0.00    -0.264 OA
BRANCH  17  19
ATOM     19  C   UNL d   1      52.834  33.806  53.490  0.00  0.00     0.127 C 
BRANCH  19  20
ATOM     20  C   UNL d   1      53.282  33.255  53.912  0.00  0.00     0.119 A 
ATOM     21  O   UNL d   1      53.474  32.486  53.680  0.00  0.00    -0.304 OA
ATOM     22  C   UNL d   1      53.934  32.136  54.280  0.00  0.00     0.123 A 
ATOM     23  C   UNL d   1      54.027  32.695  54.888  0.00  0.00     0.029 A 
ATOM     24  C   UNL d   1      53.628  33.385  54.667  0.00  0.00     0.028 A 
ENDBRANCH  19  20
ENDBRANCH  17  19
ENDBRANCH  15  16
ENDBRANCH   4  15
TORSDOF 4
ENDMDL
MODEL 4
REMARK VINA RESULT:      -6.8      2.893      5.133
REMARK  4 active torsions:
REMARK  status: ('A' for Active; 'I' for Inactive)
REMARK    1  A    between atoms: C_10  and  N_4 
REMARK    2  A    between atoms: C_11  and  C_10 
REMARK       I    between atoms: N_15  and  C_11 
REMARK    3  A    between atoms: C_12  and  C_20 
REMARK    4  A    between atoms: C_20  and  N_15 
ROOT
ATOM      1  C   UNL d   1      53.661  33.451  53.792  0.00  0.00     0.174 A 
ATOM      2  C   UNL d   1      52.887  33.675  53.636  0.00  0.00     0.112 A 
ATOM      3  C   UNL d   1      53.947  32.724  53.533  0.00  0.00     0.290 A 
ATOM      4  N   UNL d   1      53.451  32.218  53.112  0.00  0.00    -0.249 N 
ATOM      5  O   UNL d   1      54.020  34.064  54.218  0.00  0.00    -0.301 OA
ATOM      6  N   UNL d   1      52.391  33.170  53.216  0.00  0.00    -0.223 NA
ATOM      7  C   UNL d   1      52.764  34.423  53.962  0.00  0.00     0.043 A 
ATOM      8  C   UNL d   1      52.670  32.439  52.952  0.00  0.00     0.185 A 
ATOM      9  C   UNL d   1      53.468  34.663  54.323  0.00  0.00     0.102 A 
ATOM     10  O   UNL d   1      54.723  32.499  53.690  0.00  0.00    -0.264 OA
ATOM     11  C   UNL d   1      52.103  34.914  53.975  0.00  0.00     0.004 A 
ATOM     12  C   UNL d   1      53.504  35.397  54.697  0.00  0.00     0.025 A 
ATOM     13  C   UNL d   1      52.139  35.653  54.352  0.00  0.00     0.000 A 
ATOM     14  C   UNL d   1      52.844  35.888  54.711  0.00  0.00     0.002 A 
ENDROOT
BRANCH   4  15
ATOM     15  C   UNL d   1      53.726  31.484  52.846  0.00  0.00     0.147 C 
BRANCH  15  16
ATOM     16  C   UNL d   1      53.279  30.802  52.960  0.00  0.00     0.297 C 
ATOM     17  N   UNL d   1      53.486  30.289  53.558  0.00  0.00    -0.203 NA
ATOM     18  O   UNL d   1      52.631  30.641  52.477  0.00  0.00    -0.264 OA
BRANCH  17  19
ATOM     19  C   UNL d   1      53.045  29.604  53.682  0.00  0.00     0.127 C 
BRANCH  19  20
ATOM     20  C   UNL d   1      53.187  29.145  54.353  0.00  0.00     0.119 A 
ATOM     21  O   UNL d   1      52.866  29.252  55.107  0.00  0.00    -0.304 OA
ATOM     22  C   UNL d   1      53.165  28.659  55.609  0.00  0.00     0.123 A 
ATOM     23  C   UNL d   1      53.676  28.181  55.160  0.00  0.00     0.029 A 
ATOM     24  C   UNL d   1      53.693  28.476  54.388  0.00  0.00     0.028 A 
ENDBRANCH  19  20
ENDBRANCH  17  19
ENDBRANCH  15  16
ENDBRANCH   4  15
TORSDOF 4
ENDMDL
MODEL 5
REMARK VINA RESULT:      -6.7      2.329      3.152
REMARK  4 active torsions:
REMARK  status: ('A' for Active; 'I' for Inactive)
REMARK    1  A    between atoms: C_10  and  N_4 
REMARK    2  A    between atoms: C_11  and  C_10 
REMARK       I    between atoms: N_15  and  C_11 
REMARK    3  A    between atoms: C_12  and  C_20 
REMARK    4  A    between atoms: C_20  and  N_15 
ROOT
ATOM      1  C   UNL d   1      53.067  30.902  53.333  0.00  0.00     0.174 A 
ATOM      2  C   UNL d   1      53.318  30.893  54.115  0.00  0.00     0.112 A 
ATOM      3  C   UNL d   1      52.978  31.614  52.930  0.00  0.00     0.290 A 
ATOM      4  N   UNL d   1      53.143  32.323  53.315  0.00  0.00    -0.249 N 
ATOM      5  O   UNL d   1      52.946  30.117  53.099  0.00  0.00    -0.301 OA
ATOM      6  N   UNL d   1      53.482  31.602  54.500  0.00  0.00    -0.223 NA
ATOM      7  C   UNL d   1      53.353  30.108  54.366  0.00  0.00     0.043 A 
ATOM      8  C   UNL d   1      53.396  32.320  54.103  0.00  0.00     0.185 A 
ATOM      9  C   UNL d   1      53.122  29.628  53.734  0.00  0.00     0.102 A 
ATOM     10  O   UNL d   1      52.727  31.622  52.146  0.00  0.00    -0.264 OA
ATOM     11  C   UNL d   1      53.565  29.771  55.087  0.00  0.00     0.004 A 
ATOM     12  C   UNL d   1      53.106  28.808  53.830  0.00  0.00     0.025 A 
ATOM     13  C   UNL d   1      53.549  28.947  55.184  0.00  0.00     0.000 A 
ATOM     14  C   UNL d   1      53.318  28.471  54.551  0.00  0.00     0.002 A 
ENDROOT
BRANCH   4  15
ATOM     15  C   UNL d   1      53.058  33.046  52.921  0.00  0.00     0.147 C 
BRANCH  15  16
ATOM     16  C   UNL d   1      52.556  33.628  53.217  0.00  0.00     0.297 C 
ATOM     17  N   UNL d   1      51.853  33.777  52.833  0.00  0.00    -0.203 NA
ATOM     18  O   UNL d   1      52.763  34.054  53.892  0.00  0.00    -0.264 OA
BRANCH  17  19
ATOM     19  C   UNL d   1      51.344  34.357  53.121  0.00  0.00     0.127 C 
BRANCH  19  20
ATOM     20  C   UNL d   1      50.610  34.470  52.759  0.00  0.00     0.119 A 
ATOM     21  O   UNL d   1      50.406  34.287  51.980  0.00  0.00    -0.304 OA
ATOM     22  C   UNL d   1      49.609  34.496  51.859  0.00  0.00     0.123 A 
ATOM     23  C   UNL d   1      49.319  34.811  52.571  0.00  0.00     0.029 A 
ATOM     24  C   UNL d   1      49.930  34.797  53.128  0.00  0.00     0.028 A 
ENDBRANCH  19  20
ENDBRANCH  17  19
ENDBRANCH  15  16
ENDBRANCH   4  15
TORSDOF 4
ENDMDL
MODEL 6
REMARK VINA RESULT:      -6.7      1.921      5.189
REMARK  4 active torsions:
REMARK  status: ('A' for Active; 'I' for Inactive)
REMARK    1  A    between atoms: C_10  and  N_4 
REMARK    2  A    between atoms: C_11  and  C_10 
REMARK       I    between atoms: N_15  and  C_11 
REMARK    3  A    between atoms: C_12  and  C_20 
REMARK    4  A    between atoms: C_20  and  N_15 
ROOT
ATOM      1  C   UNL d   1      51.465  34.069  53.370  0.00  0.00     0.174 A 
ATOM      2  C   UNL d   1      51.366  33.901  52.573  0.00  0.00     0.112 A 
ATOM      3  C   UNL d   1      52.145  33.833  53.767  0.00  0.00     0.290 A 
ATOM      4  N   UNL d   1      52.733  33.424  53.360  0.00  0.00    -0.249 N 
ATOM      5  O   UNL d   1      50.792  34.479  53.625  0.00  0.00    -0.301 OA
ATOM      6  N   UNL d   1      51.954  33.492  52.166  0.00  0.00    -0.223 NA
ATOM      7  C   UNL d   1      50.638  34.203  52.332  0.00  0.00     0.043 A 
ATOM      8  C   UNL d   1      52.640  33.252  52.557  0.00  0.00     0.185 A 
ATOM      9  C   UNL d   1      50.282  34.562  52.986  0.00  0.00     0.102 A 
ATOM     10  O   UNL d   1      52.243  34.003  54.567  0.00  0.00    -0.264 OA
ATOM     11  C   UNL d   1      50.255  34.197  51.603  0.00  0.00     0.004 A 
ATOM     12  C   UNL d   1      49.541  34.915  52.905  0.00  0.00     0.025 A 
ATOM     13  C   UNL d   1      49.509  34.552  51.520  0.00  0.00     0.000 A 
ATOM     14  C   UNL d   1      49.157  34.910  52.176  0.00  0.00     0.002 A 
ENDROOT
BRANCH   4  15
ATOM     15  C   UNL d   1      53.423  33.182  53.749  0.00  0.00     0.147 C 
BRANCH  15  16
ATOM     16  C   UNL d   1      53.808  32.489  53.525  0.00  0.00     0.297 C 
ATOM     17  N   UNL d   1      53.526  31.775  53.796  0.00  0.00    -0.203 NA
ATOM     18  O   UNL d   1      54.469  32.519  53.033  0.00  0.00    -0.264 OA
BRANCH  17  19
ATOM     19  C   UNL d   1      53.904  31.076  53.578  0.00  0.00     0.127 C 
BRANCH  19  20
ATOM     20  C   UNL d   1      53.562  30.350  53.774  0.00  0.00     0.119 A 
ATOM     21  O   UNL d   1      53.595  29.965  54.503  0.00  0.00    -0.304 OA
ATOM     22  C   UNL d   1      53.171  29.250  54.444  0.00  0.00     0.123 A 
ATOM     23  C   UNL d   1      52.873  29.195  53.671  0.00  0.00     0.029 A 
ATOM     24  C   UNL d   1      53.110  29.869  53.254  0.00  0.00     0.028 A 
ENDBRANCH  19  20
ENDBRANCH  17  19
ENDBRANCH  15  16
ENDBRANCH   4  15
TORSDOF 4
ENDMDL
MODEL 7
REMARK VINA RESULT:      -6.3      9.677     10.785
REMARK  4 active torsions:
REMARK  status: ('A' for Active; 'I' for Inactive)
REMARK    1  A    between atoms: C_10  and  N_4 
REMARK    2  A    between atoms: C_11  and  C_10 
REMARK       I    between atoms: N_15  and  C_11 
REMARK    3  A    between atoms: C_12  and  C_20 
REMARK    4  A    between atoms: C_20  and  N_15 
ROOT
ATOM      1  C   UNL d   1      45.294  28.495  58.162  0.00  0.00     0.174 A 
ATOM      2  C   UNL d   1      45.075  29.034  57.583  0.00  0.00     0.112 A 
ATOM      3  C   UNL d   1      45.429  27.706  57.970  0.00  0.00     0.290 A 
ATOM      4  N   UNL d   1      45.344  27.456  57.190  0.00  0.00    -0.249 N 
ATOM      5  O   UNL d   1      45.334  28.902  58.882  0.00  0.00    -0.301 OA
ATOM      6  N   UNL d   1      44.991  28.784  56.802  0.00  0.00    -0.223 NA
ATOM      7  C   UNL d   1      44.980  29.772  57.938  0.00  0.00     0.043 A 
ATOM      8  C   UNL d   1      45.125  27.995  56.602  0.00  0.00     0.185 A 
ATOM      9  C   UNL d   1      45.141  29.688  58.745  0.00  0.00     0.102 A 
ATOM     10  O   UNL d   1      45.648  27.166  58.552  0.00  0.00    -0.264 OA
ATOM     11  C   UNL d   1      44.768  30.506  57.632  0.00  0.00     0.004 A 
ATOM     12  C   UNL d   1      45.088  30.345  59.241  0.00  0.00     0.025 A 
ATOM     13  C   UNL d   1      44.714  31.167  58.130  0.00  0.00     0.000 A 
ATOM     14  C   UNL d   1      44.876  31.080  58.935  0.00  0.00     0.002 A 
ENDROOT
BRANCH   4  15
ATOM     15  C   UNL d   1      45.478  26.665  56.985  0.00  0.00     0.147 C 
BRANCH  15  16
ATOM     16  C   UNL d   1      44.982  26.282  56.450  0.00  0.00     0.297 C 
ATOM     17  N   UNL d   1      45.160  25.520  56.222  0.00  0.00    -0.203 NA
ATOM     18  O   UNL d   1      44.315  26.664  56.151  0.00  0.00    -0.264 OA
BRANCH  17  19
ATOM     19  C   UNL d   1      44.670  25.128  55.688  0.00  0.00     0.127 C 
BRANCH  19  20
ATOM     20  C   UNL d   1      44.854  24.355  55.461  0.00  0.00     0.119 A 
ATOM     21  O   UNL d   1      45.124  23.744  55.947  0.00  0.00    -0.304 OA
ATOM     22  C   UNL d   1      45.235  23.064  55.479  0.00  0.00     0.123 A 
ATOM     23  C   UNL d   1      45.031  23.257  54.698  0.00  0.00     0.029 A 
ATOM     24  C   UNL d   1      44.796  24.050  54.681  0.00  0.00     0.028 A 
ENDBRANCH  19  20
ENDBRANCH  17  19
ENDBRANCH  15  16
ENDBRANCH   4  15
TORSDOF 4
ENDMDL
MODEL 8
REMARK VINA RESULT:      -5.9      1.437      6.349
REMARK  4 active torsions:
REMARK  status: ('A' for Active; 'I' for Inactive)
REMARK    1  A    between atoms: C_10  and  N_4 
REMARK    2  A    between atoms: C_11  and  C_10 
REMARK       I    between atoms: N_15  and  C_11 
REMARK    3  A    between atoms: C_12  and  C_20 
REMARK    4  A    between atoms: C_20  and  N_15 
ROOT
ATOM      1  C   UNL d   1      47.113  36.021  52.544  0.00  0.00     0.174 A 
ATOM      2  C   UNL d   1      46.927  35.661  51.830  0.00  0.00     0.112 A 
ATOM      3  C   UNL d   1      47.845  35.896  52.898  0.00  0.00     0.290 A 
ATOM      4  N   UNL d   1      48.396  35.405  52.532  0.00  0.00    -0.249 N 
ATOM      5  O   UNL d   1      46.460  36.475  52.774  0.00  0.00    -0.301 OA
ATOM      6  N   UNL d   1      47.478  35.170  51.464  0.00  0.00    -0.223 NA
ATOM      7  C   UNL d   1      46.164  35.888  51.615  0.00  0.00     0.043 A 
ATOM      8  C   UNL d   1      48.215  35.039  51.813  0.00  0.00     0.185 A 
ATOM      9  C   UNL d   1      45.875  36.394  52.203  0.00  0.00     0.102 A 
ATOM     10  O   UNL d   1      48.031  36.258  53.614  0.00  0.00    -0.264 OA
ATOM     11  C   UNL d   1      45.698  35.700  50.964  0.00  0.00     0.004 A 
ATOM     12  C   UNL d   1      45.116  36.710  52.131  0.00  0.00     0.025 A 
ATOM     13  C   UNL d   1      44.934  36.017  50.891  0.00  0.00     0.000 A 
ATOM     14  C   UNL d   1      44.649  36.522  51.479  0.00  0.00     0.002 A 
ENDROOT
BRANCH   4  15
ATOM     15  C   UNL d   1      49.136  35.271  52.879  0.00  0.00     0.147 C 
BRANCH  15  16
ATOM     16  C   UNL d   1      49.705  34.820  52.490  0.00  0.00     0.297 C 
ATOM     17  N   UNL d   1      50.334  34.525  52.916  0.00  0.00    -0.203 NA
ATOM     18  O   UNL d   1      49.639  34.670  51.682  0.00  0.00    -0.264 OA
BRANCH  17  19
ATOM     19  C   UNL d   1      50.909  34.072  52.536  0.00  0.00     0.127 C 
BRANCH  19  20
ATOM     20  C   UNL d   1      51.631  33.935  52.913  0.00  0.00     0.119 A 
ATOM     21  O   UNL d   1      52.285  34.438  52.933  0.00  0.00    -0.304 OA
ATOM     22  C   UNL d   1      52.888  34.071  53.376  0.00  0.00     0.123 A 
ATOM     23  C   UNL d   1      52.602  33.334  53.631  0.00  0.00     0.029 A 
ATOM     24  C   UNL d   1      51.829  33.245  53.349  0.00  0.00     0.028 A 
ENDBRANCH  19  20
ENDBRANCH  17  19
ENDBRANCH  15  16
ENDBRANCH   4  15
TORSDOF 4
ENDMDL
MODEL 9
REMARK VINA RESULT:      -5.3     10.633     11.437
REMARK  4 active torsions:
REMARK  status: ('A' for Active; 'I' for Inactive)
REMARK    1  A    between atoms: C_10  and  N_4 
REMARK    2  A    between atoms: C_11  and  C_10 
REMARK       I    between atoms: N_15  and  C_11 
REMARK    3  A    between atoms: C_12  and  C_20 
REMARK    4  A    between atoms: C_20  and  N_15 
ROOT
ATOM      1  C   UNL d   1      44.377  29.703  61.713  0.00  0.00     0.174 A 
ATOM      2  C   UNL d   1      44.350  30.474  61.435  0.00  0.00     0.112 A 
ATOM      3  C   UNL d   1      44.390  29.068  61.189  0.00  0.00     0.290 A 
ATOM      4  N   UNL d   1      44.376  29.210  60.378  0.00  0.00    -0.249 N 
ATOM      5  O   UNL d   1      44.386  29.734  62.541  0.00  0.00    -0.301 OA
ATOM      6  N   UNL d   1      44.336  30.616  60.623  0.00  0.00    -0.223 NA
ATOM      7  C   UNL d   1      44.342  30.984  62.083  0.00  0.00     0.043 A 
ATOM      8  C   UNL d   1      44.349  29.985  60.091  0.00  0.00     0.185 A 
ATOM      9  C   UNL d   1      44.364  30.522  62.769  0.00  0.00     0.102 A 
ATOM     10  O   UNL d   1      44.418  28.294  61.469  0.00  0.00    -0.264 OA
ATOM     11  C   UNL d   1      44.317  31.805  62.136  0.00  0.00     0.004 A 
ATOM     12  C   UNL d   1      44.362  30.890  63.508  0.00  0.00     0.025 A 
ATOM     13  C   UNL d   1      44.314  32.176  62.879  0.00  0.00     0.000 A 
ATOM     14  C   UNL d   1      44.337  31.712  63.561  0.00  0.00     0.002 A 
ENDROOT
BRANCH   4  15
ATOM     15  C   UNL d   1      44.389  28.580  59.840  0.00  0.00     0.147 C 
BRANCH  15  16
ATOM     16  C   UNL d   1      44.762  28.661  59.110  0.00  0.00     0.297 C 
ATOM     17  N   UNL d   1      44.677  28.070  58.556  0.00  0.00    -0.203 NA
ATOM     18  O   UNL d   1      45.215  29.329  58.943  0.00  0.00    -0.264 OA
BRANCH  17  19
ATOM     19  C   UNL d   1      45.046  28.140  57.822  0.00  0.00     0.127 C 
BRANCH  19  20
ATOM     20  C   UNL d   1      44.963  27.535  57.266  0.00  0.00     0.119 A 
ATOM     21  O   UNL d   1      44.468  27.532  56.605  0.00  0.00    -0.304 OA
ATOM     22  C   UNL d   1      44.567  26.808  56.204  0.00  0.00     0.123 A 
ATOM     23  C   UNL d   1      45.128  26.361  56.622  0.00  0.00     0.029 A 
ATOM     24  C   UNL d   1      45.375  26.804  57.276  0.00  0.00     0.028 A 
ENDBRANCH  19  20
ENDBRANCH  17  19
ENDBRANCH  15  16
ENDBRANCH   4  15
TORSDOF 4
ENDMDL
