MODEL 1
REMARK VINA RESULT:      -8.1      0.000      0.000
REMARK  5 active torsions:
REMARK  status: ('A' for Active; 'I' for Inactive)
REMARK    1  A    between atoms: N_2  and  S_1 
REMARK    2  A    between atoms: C_8  and  S_1 
REMARK    3  A    between atoms: S_5  and  C_3 
REMARK    4  A    between atoms: C_13  and  S_5 
REMARK    5  A    between atoms: C_12  and  C_13 
ROOT
ATOM      1  N   UNL d   1     -49.141  13.744  22.251  0.00  0.00    -0.208 N 
ATOM      2  C   UNL d   1     -48.386  13.941  22.541  0.00  0.00     0.189 A 
ATOM      3  N   UNL d   1     -48.444  14.663  22.945  0.00  0.00    -0.219 NA
ATOM      4  C   UNL d   1     -49.669  14.350  22.479  0.00  0.00     0.114 A 
ATOM      5  C   UNL d   1     -49.235  14.912  22.905  0.00  0.00     0.121 A 
ENDROOT
BRANCH   1   6
ATOM      6  S   UNL d   1     -49.332  13.065  21.813  0.00  0.00     0.273 S 
ATOM      7  O   UNL d   1     -48.850  13.358  21.218  0.00  0.00    -0.200 OA
ATOM      8  O   UNL d   1     -49.368  12.499  21.208  0.00  0.00    -0.200 OA
BRANCH   6   9
ATOM      9  C   UNL d   1     -49.823  12.754  22.403  0.00  0.00     0.104 A 
ATOM     10  C   UNL d   1     -50.577  13.060  22.504  0.00  0.00     0.013 A 
ATOM     11  C   UNL d   1     -51.064  12.749  23.090  0.00  0.00     0.001 A 
ATOM     12  C   UNL d   1     -50.793  12.135  23.570  0.00  0.00     0.000 A 
ATOM     13  C   UNL d   1     -50.037  11.832  23.464  0.00  0.00     0.001 A 
ATOM     14  C   UNL d   1     -49.549  12.147  22.873  0.00  0.00     0.013 A 
ENDBRANCH   6   9
ENDBRANCH   1   6
BRANCH   2  15
ATOM     15  S   UNL d   1     -47.692  13.490  22.442  0.00  0.00    -0.049 SA
BRANCH  15  16
ATOM     16  C   UNL d   1     -46.982  13.749  22.777  0.00  0.00     0.040 C 
BRANCH  16  17
ATOM     17  C   UNL d   1     -46.303  13.286  22.704  0.00  0.00     0.026 A 
ATOM     18  C   UNL d   1     -46.171  12.647  23.236  0.00  0.00     0.099 A 
ATOM     19  N   UNL d   1     -45.499  12.176  23.176  0.00  0.00    -0.242 NA
ATOM     20  C   UNL d   1     -44.951  12.343  22.581  0.00  0.00     0.099 A 
ATOM     21  C   UNL d   1     -45.075  12.968  22.057  0.00  0.00     0.021 A 
ATOM     22  C   UNL d   1     -45.751  13.438  22.120  0.00  0.00     0.004 A 
ENDBRANCH  16  17
ENDBRANCH  15  16
ENDBRANCH   2  15
TORSDOF 5
ENDMDL
MODEL 2
REMARK VINA RESULT:      -7.3      1.188      2.163
REMARK  5 active torsions:
REMARK  status: ('A' for Active; 'I' for Inactive)
REMARK    1  A    between atoms: N_2  and  S_1 
REMARK    2  A    between atoms: C_8  and  S_1 
REMARK    3  A    between atoms: S_5  and  C_3 
REMARK    4  A    between atoms: C_13  and  S_5 
REMARK    5  A    between atoms: C_12  and  C_13 
ROOT
ATOM      1  N   UNL d   1     -49.933  13.005  22.710  0.00  0.00    -0.208 N 
ATOM      2  C   UNL d   1     -49.480  12.473  23.162  0.00  0.00     0.189 A 
ATOM      3  N   UNL d   1     -49.986  12.091  23.697  0.00  0.00    -0.219 NA
ATOM      4  C   UNL d   1     -50.725  12.950  22.968  0.00  0.00     0.114 A 
ATOM      5  C   UNL d   1     -50.752  12.387  23.574  0.00  0.00     0.121 A 
ENDROOT
BRANCH   1   6
ATOM      6  S   UNL d   1     -49.646  13.500  22.109  0.00  0.00     0.273 S 
ATOM      7  O   UNL d   1     -49.395  12.822  21.720  0.00  0.00    -0.200 OA
ATOM      8  O   UNL d   1     -49.290  13.770  21.409  0.00  0.00    -0.200 OA
BRANCH   6   9
ATOM      9  C   UNL d   1     -49.891  14.195  22.485  0.00  0.00     0.104 A 
ATOM     10  C   UNL d   1     -50.668  14.444  22.405  0.00  0.00     0.013 A 
ATOM     11  C   UNL d   1     -50.912  15.136  22.780  0.00  0.00     0.001 A 
ATOM     12  C   UNL d   1     -50.376  15.572  23.231  0.00  0.00     0.000 A 
ATOM     13  C   UNL d   1     -49.599  15.318  23.308  0.00  0.00     0.001 A 
ATOM     14  C   UNL d   1     -49.357  14.621  22.929  0.00  0.00     0.013 A 
ENDBRANCH   6   9
ENDBRANCH   1   6
BRANCH   2  15
ATOM     15  S   UNL d   1     -48.659  12.347  23.090  0.00  0.00    -0.049 SA
BRANCH  15  16
ATOM     16  C   UNL d   1     -48.246  11.969  23.698  0.00  0.00     0.040 C 
BRANCH  16  17
ATOM     17  C   UNL d   1     -47.434  11.842  23.623  0.00  0.00     0.026 A 
ATOM     18  C   UNL d   1     -46.900  12.490  23.692  0.00  0.00     0.099 A 
ATOM     19  N   UNL d   1     -46.088  12.380  23.621  0.00  0.00    -0.242 NA
ATOM     20  C   UNL d   1     -45.803  11.618  23.478  0.00  0.00     0.099 A 
ATOM     21  C   UNL d   1     -46.321  10.980  23.410  0.00  0.00     0.021 A 
ATOM     22  C   UNL d   1     -47.136  11.094  23.482  0.00  0.00     0.004 A 
ENDBRANCH  16  17
ENDBRANCH  15  16
ENDBRANCH   2  15
TORSDOF 5
ENDMDL
MODEL 3
REMARK VINA RESULT:      -6.7      0.869      1.655
REMARK  5 active torsions:
REMARK  status: ('A' for Active; 'I' for Inactive)
REMARK    1  A    between atoms: N_2  and  S_1 
REMARK    2  A    between atoms: C_8  and  S_1 
REMARK    3  A    between atoms: S_5  and  C_3 
REMARK    4  A    between atoms: C_13  and  S_5 
REMARK    5  A    between atoms: C_12  and  C_13 
ROOT
ATOM      1  N   UNL d   1     -49.346  12.765  22.591  0.00  0.00    -0.208 N 
ATOM      2  C   UNL d   1     -48.638  12.511  22.949  0.00  0.00     0.189 A 
ATOM      3  N   UNL d   1     -48.829  11.963  23.540  0.00  0.00    -0.219 NA
ATOM      4  C   UNL d   1     -49.978  12.369  22.966  0.00  0.00     0.114 A 
ATOM      5  C   UNL d   1     -49.655  11.878  23.548  0.00  0.00     0.121 A 
ENDROOT
BRANCH   1   6
ATOM      6  S   UNL d   1     -49.408  13.315  21.972  0.00  0.00     0.273 S 
ATOM      7  O   UNL d   1     -48.984  12.786  21.510  0.00  0.00    -0.200 OA
ATOM      8  O   UNL d   1     -49.338  13.683  21.232  0.00  0.00    -0.200 OA
BRANCH   6   9
ATOM      9  C   UNL d   1     -49.836  13.861  22.423  0.00  0.00     0.104 A 
ATOM     10  C   UNL d   1     -50.636  13.736  22.555  0.00  0.00     0.013 A 
ATOM     11  C   UNL d   1     -51.062  14.280  23.004  0.00  0.00     0.001 A 
ATOM     12  C   UNL d   1     -50.683  14.943  23.317  0.00  0.00     0.000 A 
ATOM     13  C   UNL d   1     -49.882  15.063  23.182  0.00  0.00     0.001 A 
ATOM     14  C   UNL d   1     -49.457  14.514  22.730  0.00  0.00     0.013 A 
ENDBRANCH   6   9
ENDBRANCH   1   6
BRANCH   2  15
ATOM     15  S   UNL d   1     -47.870  12.766  22.747  0.00  0.00    -0.049 SA
BRANCH  15  16
ATOM     16  C   UNL d   1     -47.220  12.492  23.177  0.00  0.00     0.040 C 
BRANCH  16  17
ATOM     17  C   UNL d   1     -46.456  12.634  22.899  0.00  0.00     0.026 A 
ATOM     18  C   UNL d   1     -45.838  12.088  23.071  0.00  0.00     0.099 A 
ATOM     19  N   UNL d   1     -45.072  12.215  22.801  0.00  0.00    -0.242 NA
ATOM     20  C   UNL d   1     -44.917  12.893  22.355  0.00  0.00     0.099 A 
ATOM     21  C   UNL d   1     -45.518  13.431  22.183  0.00  0.00     0.021 A 
ATOM     22  C   UNL d   1     -46.287  13.300  22.456  0.00  0.00     0.004 A 
ENDBRANCH  16  17
ENDBRANCH  15  16
ENDBRANCH   2  15
TORSDOF 5
ENDMDL
MODEL 4
REMARK VINA RESULT:      -6.5      1.692      3.898
REMARK  5 active torsions:
REMARK  status: ('A' for Active; 'I' for Inactive)
REMARK    1  A    between atoms: N_2  and  S_1 
REMARK    2  A    between atoms: C_8  and  S_1 
REMARK    3  A    between atoms: S_5  and  C_3 
REMARK    4  A    between atoms: C_13  and  S_5 
REMARK    5  A    between atoms: C_12  and  C_13 
ROOT
ATOM      1  N   UNL d   1     -47.385  13.101  22.326  0.00  0.00    -0.208 N 
ATOM      2  C   UNL d   1     -48.125  13.394  22.082  0.00  0.00     0.189 A 
ATOM      3  N   UNL d   1     -48.287  13.090  21.328  0.00  0.00    -0.219 NA
ATOM      4  C   UNL d   1     -47.089  12.613  21.717  0.00  0.00     0.114 A 
ATOM      5  C   UNL d   1     -47.647  12.609  21.107  0.00  0.00     0.121 A 
ENDROOT
BRANCH   1   6
ATOM      6  S   UNL d   1     -47.010  13.268  23.048  0.00  0.00     0.273 S 
ATOM      7  O   UNL d   1     -47.097  14.063  22.868  0.00  0.00    -0.200 OA
ATOM      8  O   UNL d   1     -46.675  13.673  23.690  0.00  0.00    -0.200 OA
BRANCH   6   9
ATOM      9  C   UNL d   1     -46.914  12.470  23.248  0.00  0.00     0.104 A 
ATOM     10  C   UNL d   1     -46.171  12.127  23.192  0.00  0.00     0.013 A 
ATOM     11  C   UNL d   1     -46.076  11.334  23.391  0.00  0.00     0.001 A 
ATOM     12  C   UNL d   1     -46.725  10.891  23.644  0.00  0.00     0.000 A 
ATOM     13  C   UNL d   1     -47.467  11.239  23.698  0.00  0.00     0.001 A 
ATOM     14  C   UNL d   1     -47.558  12.038  23.497  0.00  0.00     0.013 A 
ENDBRANCH   6   9
ENDBRANCH   1   6
BRANCH   2  15
ATOM     15  S   UNL d   1     -48.617  13.905  22.520  0.00  0.00    -0.049 SA
BRANCH  15  16
ATOM     16  C   UNL d   1     -49.418  13.970  22.327  0.00  0.00     0.040 C 
BRANCH  16  17
ATOM     17  C   UNL d   1     -49.900  14.488  22.751  0.00  0.00     0.026 A 
ATOM     18  C   UNL d   1     -49.821  15.319  22.642  0.00  0.00     0.099 A 
ATOM     19  N   UNL d   1     -50.294  15.849  23.057  0.00  0.00    -0.242 NA
ATOM     20  C   UNL d   1     -50.852  15.549  23.587  0.00  0.00     0.099 A 
ATOM     21  C   UNL d   1     -50.934  14.736  23.698  0.00  0.00     0.021 A 
ATOM     22  C   UNL d   1     -50.457  14.207  23.279  0.00  0.00     0.004 A 
ENDBRANCH  16  17
ENDBRANCH  15  16
ENDBRANCH   2  15
TORSDOF 5
ENDMDL
MODEL 5
REMARK VINA RESULT:      -6.0      8.741     10.121
REMARK  5 active torsions:
REMARK  status: ('A' for Active; 'I' for Inactive)
REMARK    1  A    between atoms: N_2  and  S_1 
REMARK    2  A    between atoms: C_8  and  S_1 
REMARK    3  A    between atoms: S_5  and  C_3 
REMARK    4  A    between atoms: C_13  and  S_5 
REMARK    5  A    between atoms: C_12  and  C_13 
ROOT
ATOM      1  N   UNL d   1     -40.260  14.733  17.717  0.00  0.00    -0.208 N 
ATOM      2  C   UNL d   1     -40.433  15.179  18.399  0.00  0.00     0.189 A 
ATOM      3  N   UNL d   1     -40.861  15.850  18.169  0.00  0.00    -0.219 NA
ATOM      4  C   UNL d   1     -40.585  15.135  17.061  0.00  0.00     0.114 A 
ATOM      5  C   UNL d   1     -40.953  15.820  17.344  0.00  0.00     0.121 A 
ENDROOT
BRANCH   1   6
ATOM      6  S   UNL d   1     -39.840  14.018  17.697  0.00  0.00     0.273 S 
ATOM      7  O   UNL d   1     -40.437  13.696  18.158  0.00  0.00    -0.200 OA
ATOM      8  O   UNL d   1     -39.617  13.228  17.819  0.00  0.00    -0.200 OA
BRANCH   6   9
ATOM      9  C   UNL d   1     -39.228  14.325  17.232  0.00  0.00     0.104 A 
ATOM     10  C   UNL d   1     -38.549  14.609  17.594  0.00  0.00     0.013 A 
ATOM     11  C   UNL d   1     -37.940  14.914  17.130  0.00  0.00     0.001 A 
ATOM     12  C   UNL d   1     -38.017  14.932  16.309  0.00  0.00     0.000 A 
ATOM     13  C   UNL d   1     -38.698  14.646  15.951  0.00  0.00     0.001 A 
ATOM     14  C   UNL d   1     -39.309  14.340  16.421  0.00  0.00     0.013 A 
ENDBRANCH   6   9
ENDBRANCH   1   6
BRANCH   2  15
ATOM     15  S   UNL d   1     -40.213  14.982  19.179  0.00  0.00    -0.049 SA
BRANCH  15  16
ATOM     16  C   UNL d   1     -40.447  15.466  19.807  0.00  0.00     0.040 C 
BRANCH  16  17
ATOM     17  C   UNL d   1     -40.103  15.367  20.550  0.00  0.00     0.026 A 
ATOM     18  C   UNL d   1     -39.523  15.915  20.820  0.00  0.00     0.099 A 
ATOM     19  N   UNL d   1     -39.170  15.831  21.558  0.00  0.00    -0.242 NA
ATOM     20  C   UNL d   1     -39.396  15.195  22.034  0.00  0.00     0.099 A 
ATOM     21  C   UNL d   1     -39.963  14.655  21.775  0.00  0.00     0.021 A 
ATOM     22  C   UNL d   1     -40.315  14.743  21.033  0.00  0.00     0.004 A 
ENDBRANCH  16  17
ENDBRANCH  15  16
ENDBRANCH   2  15
TORSDOF 5
ENDMDL
MODEL 6
REMARK VINA RESULT:      -5.7      9.260     10.048
REMARK  5 active torsions:
REMARK  status: ('A' for Active; 'I' for Inactive)
REMARK    1  A    between atoms: N_2  and  S_1 
REMARK    2  A    between atoms: C_8  and  S_1 
REMARK    3  A    between atoms: S_5  and  C_3 
REMARK    4  A    between atoms: C_13  and  S_5 
REMARK    5  A    between atoms: C_12  and  C_13 
ROOT
ATOM      1  N   UNL d   1     -39.103  14.663  18.008  0.00  0.00    -0.208 N 
ATOM      2  C   UNL d   1     -38.704  14.780  18.729  0.00  0.00     0.189 A 
ATOM      3  N   UNL d   1     -38.112  15.348  18.609  0.00  0.00    -0.219 NA
ATOM      4  C   UNL d   1     -38.754  15.164  17.438  0.00  0.00     0.114 A 
ATOM      5  C   UNL d   1     -38.146  15.582  17.813  0.00  0.00     0.121 A 
ENDROOT
BRANCH   1   6
ATOM      6  S   UNL d   1     -39.736  14.141  17.881  0.00  0.00     0.273 S 
ATOM      7  O   UNL d   1     -39.239  13.537  18.128  0.00  0.00    -0.200 OA
ATOM      8  O   UNL d   1     -40.194  13.451  17.834  0.00  0.00    -0.200 OA
BRANCH   6   9
ATOM      9  C   UNL d   1     -40.252  14.737  17.628  0.00  0.00     0.104 A 
ATOM     10  C   UNL d   1     -40.255  14.960  16.839  0.00  0.00     0.013 A 
ATOM     11  C   UNL d   1     -40.769  15.553  16.589  0.00  0.00     0.001 A 
ATOM     12  C   UNL d   1     -41.275  15.917  17.130  0.00  0.00     0.000 A 
ATOM     13  C   UNL d   1     -41.267  15.689  17.919  0.00  0.00     0.001 A 
ATOM     14  C   UNL d   1     -40.749  15.092  18.167  0.00  0.00     0.013 A 
ENDBRANCH   6   9
ENDBRANCH   1   6
BRANCH   2  15
ATOM     15  S   UNL d   1     -38.872  14.392  19.448  0.00  0.00    -0.049 SA
BRANCH  15  16
ATOM     16  C   UNL d   1     -38.425  14.563  20.122  0.00  0.00     0.040 C 
BRANCH  16  17
ATOM     17  C   UNL d   1     -38.607  14.196  20.838  0.00  0.00     0.026 A 
ATOM     18  C   UNL d   1     -38.176  13.516  21.083  0.00  0.00     0.099 A 
ATOM     19  N   UNL d   1     -38.345  13.138  21.793  0.00  0.00    -0.242 NA
ATOM     20  C   UNL d   1     -38.950  13.440  22.267  0.00  0.00     0.099 A 
ATOM     21  C   UNL d   1     -39.377  14.107  22.033  0.00  0.00     0.021 A 
ATOM     22  C   UNL d   1     -39.203  14.483  21.318  0.00  0.00     0.004 A 
ENDBRANCH  16  17
ENDBRANCH  15  16
ENDBRANCH   2  15
TORSDOF 5
ENDMDL
MODEL 7
REMARK VINA RESULT:      -5.6      8.287      9.939
REMARK  5 active torsions:
REMARK  status: ('A' for Active; 'I' for Inactive)
REMARK    1  A    between atoms: N_2  and  S_1 
REMARK    2  A    between atoms: C_8  and  S_1 
REMARK    3  A    between atoms: S_5  and  C_3 
REMARK    4  A    between atoms: C_13  and  S_5 
REMARK    5  A    between atoms: C_12  and  C_13 
ROOT
ATOM      1  N   UNL d   1     -39.854  14.826  20.531  0.00  0.00    -0.208 N 
ATOM      2  C   UNL d   1     -40.121  14.544  19.795  0.00  0.00     0.189 A 
ATOM      3  N   UNL d   1     -40.900  14.276  19.887  0.00  0.00    -0.219 NA
ATOM      4  C   UNL d   1     -40.475  14.731  21.081  0.00  0.00     0.114 A 
ATOM      5  C   UNL d   1     -41.115  14.393  20.680  0.00  0.00     0.121 A 
ENDROOT
BRANCH   1   6
ATOM      6  S   UNL d   1     -39.104  15.145  20.687  0.00  0.00     0.273 S 
ATOM      7  O   UNL d   1     -39.276  15.725  20.134  0.00  0.00    -0.200 OA
ATOM      8  O   UNL d   1     -38.432  15.631  20.668  0.00  0.00    -0.200 OA
BRANCH   6   9
ATOM      9  C   UNL d   1     -38.912  14.568  21.249  0.00  0.00     0.104 A 
ATOM     10  C   UNL d   1     -38.454  13.925  21.027  0.00  0.00     0.013 A 
ATOM     11  C   UNL d   1     -38.263  13.351  21.586  0.00  0.00     0.001 A 
ATOM     12  C   UNL d   1     -38.534  13.426  22.362  0.00  0.00     0.000 A 
ATOM     13  C   UNL d   1     -38.993  14.071  22.579  0.00  0.00     0.001 A 
ATOM     14  C   UNL d   1     -39.182  14.646  22.014  0.00  0.00     0.013 A 
ENDBRANCH   6   9
ENDBRANCH   1   6
BRANCH   2  15
ATOM     15  S   UNL d   1     -39.680  14.533  19.087  0.00  0.00    -0.049 SA
BRANCH  15  16
ATOM     16  C   UNL d   1     -40.012  14.217  18.400  0.00  0.00     0.040 C 
BRANCH  16  17
ATOM     17  C   UNL d   1     -39.555  14.153  17.716  0.00  0.00     0.026 A 
ATOM     18  C   UNL d   1     -39.573  14.768  17.140  0.00  0.00     0.099 A 
ATOM     19  N   UNL d   1     -39.124  14.720  16.453  0.00  0.00    -0.242 NA
ATOM     20  C   UNL d   1     -38.650  14.054  16.337  0.00  0.00     0.099 A 
ATOM     21  C   UNL d   1     -38.628  13.448  16.897  0.00  0.00     0.021 A 
ATOM     22  C   UNL d   1     -39.081  13.500  17.586  0.00  0.00     0.004 A 
ENDBRANCH  16  17
ENDBRANCH  15  16
ENDBRANCH   2  15
TORSDOF 5
ENDMDL
