MODEL 1
REMARK VINA RESULT:      -7.7      0.000      0.000
REMARK  4 active torsions:
REMARK  status: ('A' for Active; 'I' for Inactive)
REMARK    1  A    between atoms: N_9  and  C_3 
REMARK    2  A    between atoms: C_11  and  C_4 
REMARK    3  A    between atoms: C_15  and  C_10 
REMARK    4  A    between atoms: C_20  and  C_15 
ROOT
ATOM      1  N   UNL d   1     -47.556  13.848  22.655  0.00  0.00    -0.196 N 
ATOM      2  C   UNL d   1     -48.367  14.048  22.720  0.00  0.00     0.167 A 
ATOM      3  C   UNL d   1     -47.352  13.068  22.639  0.00  0.00     0.153 A 
ATOM      4  C   UNL d   1     -48.594  14.823  22.738  0.00  0.00     0.057 A 
ATOM      5  N   UNL d   1     -47.234  15.223  22.627  0.00  0.00    -0.161 NA
ATOM      6  N   UNL d   1     -48.928  13.456  22.766  0.00  0.00    -0.227 NA
ATOM      7  C   UNL d   1     -47.907  12.466  22.685  0.00  0.00     0.057 A 
ATOM      8  C   UNL d   1     -48.032  15.419  22.691  0.00  0.00     0.124 A 
ATOM      9  C   UNL d   1     -48.706  12.663  22.749  0.00  0.00     0.086 A 
ENDROOT
BRANCH   3  10
ATOM     10  N   UNL d   1     -46.528  12.865  22.573  0.00  0.00    -0.285 N 
ATOM     11  C   UNL d   1     -46.160  12.358  23.155  0.00  0.00     0.108 A 
ATOM     12  C   UNL d   1     -45.344  12.162  23.082  0.00  0.00     0.142 A 
ATOM     13  O   UNL d   1     -44.880  12.465  22.433  0.00  0.00    -0.300 OA
ATOM     14  C   UNL d   1     -45.257  12.967  21.862  0.00  0.00     0.142 A 
ATOM     15  C   UNL d   1     -46.072  13.168  21.927  0.00  0.00     0.108 A 
ENDBRANCH   3  10
BRANCH   9  16
ATOM     16  C   UNL d   1     -49.295  12.048  22.798  0.00  0.00     0.019 C 
BRANCH  16  17
ATOM     17  C   UNL d   1     -49.490  11.695  23.543  0.00  0.00     0.002 C 
ATOM     18  C   UNL d   1     -50.270  11.397  23.698  0.00  0.00     0.000 C 
ENDBRANCH  16  17
ENDBRANCH   9  16
BRANCH   4  19
ATOM     19  C   UNL d   1     -49.400  15.008  22.803  0.00  0.00     0.004 A 
ATOM     20  C   UNL d   1     -49.685  15.266  23.525  0.00  0.00     0.000 A 
ATOM     21  C   UNL d   1     -50.485  15.453  23.602  0.00  0.00     0.000 A 
ATOM     22  C   UNL d   1     -50.983  15.378  22.955  0.00  0.00     0.000 A 
ATOM     23  C   UNL d   1     -50.692  15.124  22.249  0.00  0.00     0.000 A 
ATOM     24  C   UNL d   1     -49.892  14.937  22.172  0.00  0.00     0.000 A 
ENDBRANCH   4  19
TORSDOF 4
ENDMDL
MODEL 2
REMARK VINA RESULT:      -7.2      1.115      2.529
REMARK  4 active torsions:
REMARK  status: ('A' for Active; 'I' for Inactive)
REMARK    1  A    between atoms: N_9  and  C_3 
REMARK    2  A    between atoms: C_11  and  C_4 
REMARK    3  A    between atoms: C_15  and  C_10 
REMARK    4  A    between atoms: C_20  and  C_15 
ROOT
ATOM      1  N   UNL d   1     -47.329  12.342  22.634  0.00  0.00    -0.196 N 
ATOM      2  C   UNL d   1     -48.139  12.531  22.734  0.00  0.00     0.167 A 
ATOM      3  C   UNL d   1     -46.790  12.941  22.644  0.00  0.00     0.153 A 
ATOM      4  C   UNL d   1     -48.696  11.946  22.728  0.00  0.00     0.057 A 
ATOM      5  N   UNL d   1     -47.675  10.977  22.524  0.00  0.00    -0.161 NA
ATOM      6  N   UNL d   1     -48.363  13.310  22.839  0.00  0.00    -0.227 NA
ATOM      7  C   UNL d   1     -47.004  13.725  22.748  0.00  0.00     0.057 A 
ATOM      8  C   UNL d   1     -48.472  11.164  22.623  0.00  0.00     0.124 A 
ATOM      9  C   UNL d   1     -47.802  13.912  22.847  0.00  0.00     0.086 A 
ENDROOT
BRANCH   3  10
ATOM     10  N   UNL d   1     -45.966  12.749  22.542  0.00  0.00    -0.285 N 
ATOM     11  C   UNL d   1     -45.589  12.182  23.058  0.00  0.00     0.108 A 
ATOM     12  C   UNL d   1     -44.774  11.996  22.951  0.00  0.00     0.142 A 
ATOM     13  O   UNL d   1     -44.321  12.370  22.331  0.00  0.00    -0.300 OA
ATOM     14  C   UNL d   1     -44.708  12.931  21.825  0.00  0.00     0.142 A 
ATOM     15  C   UNL d   1     -45.522  13.122  21.926  0.00  0.00     0.108 A 
ENDBRANCH   3  10
BRANCH   9  16
ATOM     16  C   UNL d   1     -48.041  14.724  22.957  0.00  0.00     0.019 C 
BRANCH  16  17
ATOM     17  C   UNL d   1     -48.347  15.174  22.308  0.00  0.00     0.002 C 
ATOM     18  C   UNL d   1     -48.821  15.867  22.438  0.00  0.00     0.000 C 
ENDBRANCH  16  17
ENDBRANCH   9  16
BRANCH   4  19
ATOM     19  C   UNL d   1     -49.495  12.146  22.828  0.00  0.00     0.004 A 
ATOM     20  C   UNL d   1     -49.805  12.145  23.585  0.00  0.00     0.000 A 
ATOM     21  C   UNL d   1     -50.599  12.343  23.698  0.00  0.00     0.000 A 
ATOM     22  C   UNL d   1     -51.064  12.537  23.051  0.00  0.00     0.000 A 
ATOM     23  C   UNL d   1     -50.748  12.534  22.311  0.00  0.00     0.000 A 
ATOM     24  C   UNL d   1     -49.955  12.337  22.198  0.00  0.00     0.000 A 
ENDBRANCH   4  19
TORSDOF 4
ENDMDL
MODEL 3
REMARK VINA RESULT:      -6.3      6.740      9.281
REMARK  4 active torsions:
REMARK  status: ('A' for Active; 'I' for Inactive)
REMARK    1  A    between atoms: N_9  and  C_3 
REMARK    2  A    between atoms: C_11  and  C_4 
REMARK    3  A    between atoms: C_15  and  C_10 
REMARK    4  A    between atoms: C_20  and  C_15 
ROOT
ATOM      1  N   UNL d   1     -39.564  14.686  19.786  0.00  0.00    -0.196 N 
ATOM      2  C   UNL d   1     -39.512  14.468  20.593  0.00  0.00     0.167 A 
ATOM      3  C   UNL d   1     -40.290  14.686  19.434  0.00  0.00     0.153 A 
ATOM      4  C   UNL d   1     -38.796  14.461  20.967  0.00  0.00     0.057 A 
ATOM      5  N   UNL d   1     -38.166  14.883  19.763  0.00  0.00    -0.161 NA
ATOM      6  N   UNL d   1     -40.189  14.261  21.002  0.00  0.00    -0.227 NA
ATOM      7  C   UNL d   1     -40.975  14.481  19.835  0.00  0.00     0.057 A 
ATOM      8  C   UNL d   1     -38.115  14.668  20.558  0.00  0.00     0.124 A 
ATOM      9  C   UNL d   1     -40.924  14.266  20.629  0.00  0.00     0.086 A 
ENDROOT
BRANCH   3  10
ATOM     10  N   UNL d   1     -40.343  14.908  18.613  0.00  0.00    -0.285 N 
ATOM     11  C   UNL d   1     -40.188  14.333  18.000  0.00  0.00     0.108 A 
ATOM     12  C   UNL d   1     -40.242  14.561  17.190  0.00  0.00     0.142 A 
ATOM     13  O   UNL d   1     -40.450  15.360  16.977  0.00  0.00    -0.300 OA
ATOM     14  C   UNL d   1     -40.601  15.922  17.596  0.00  0.00     0.142 A 
ATOM     15  C   UNL d   1     -40.549  15.702  18.407  0.00  0.00     0.108 A 
ENDBRANCH   3  10
BRANCH   9  16
ATOM     16  C   UNL d   1     -41.627  14.049  21.060  0.00  0.00     0.019 C 
BRANCH  16  17
ATOM     17  C   UNL d   1     -41.997  13.297  20.933  0.00  0.00     0.002 C 
ATOM     18  C   UNL d   1     -42.673  13.058  21.388  0.00  0.00     0.000 C 
ENDBRANCH  16  17
ENDBRANCH   9  16
BRANCH   4  19
ATOM     19  C   UNL d   1     -38.757  14.243  21.766  0.00  0.00     0.004 A 
ATOM     20  C   UNL d   1     -38.825  14.828  22.334  0.00  0.00     0.000 A 
ATOM     21  C   UNL d   1     -38.789  14.623  23.133  0.00  0.00     0.000 A 
ATOM     22  C   UNL d   1     -38.684  13.838  23.346  0.00  0.00     0.000 A 
ATOM     23  C   UNL d   1     -38.619  13.271  22.778  0.00  0.00     0.000 A 
ATOM     24  C   UNL d   1     -38.655  13.476  21.980  0.00  0.00     0.000 A 
ENDBRANCH   4  19
TORSDOF 4
ENDMDL
MODEL 4
REMARK VINA RESULT:      -5.3      8.853      9.930
REMARK  4 active torsions:
REMARK  status: ('A' for Active; 'I' for Inactive)
REMARK    1  A    between atoms: N_9  and  C_3 
REMARK    2  A    between atoms: C_11  and  C_4 
REMARK    3  A    between atoms: C_15  and  C_10 
REMARK    4  A    between atoms: C_20  and  C_15 
ROOT
ATOM      1  N   UNL d   1     -39.403  14.812  20.155  0.00  0.00    -0.196 N 
ATOM      2  C   UNL d   1     -39.536  14.867  19.329  0.00  0.00     0.167 A 
ATOM      3  C   UNL d   1     -38.832  14.308  20.419  0.00  0.00     0.153 A 
ATOM      4  C   UNL d   1     -40.104  15.365  19.042  0.00  0.00     0.057 A 
ATOM      5  N   UNL d   1     -40.421  15.767  20.369  0.00  0.00    -0.161 NA
ATOM      6  N   UNL d   1     -39.091  14.414  18.816  0.00  0.00    -0.227 NA
ATOM      7  C   UNL d   1     -38.379  13.849  19.913  0.00  0.00     0.057 A 
ATOM      8  C   UNL d   1     -40.552  15.821  19.556  0.00  0.00     0.124 A 
ATOM      9  C   UNL d   1     -38.510  13.903  19.100  0.00  0.00     0.086 A 
ENDROOT
BRANCH   3  10
ATOM     10  N   UNL d   1     -38.697  14.252  21.259  0.00  0.00    -0.285 N 
ATOM     11  C   UNL d   1     -38.129  14.765  21.639  0.00  0.00     0.108 A 
ATOM     12  C   UNL d   1     -38.000  14.705  22.470  0.00  0.00     0.142 A 
ATOM     13  O   UNL d   1     -38.433  14.135  22.935  0.00  0.00    -0.300 OA
ATOM     14  C   UNL d   1     -38.994  13.631  22.545  0.00  0.00     0.142 A 
ATOM     15  C   UNL d   1     -39.128  13.686  21.716  0.00  0.00     0.108 A 
ENDBRANCH   3  10
BRANCH   9  16
ATOM     16  C   UNL d   1     -38.047  13.432  18.560  0.00  0.00     0.019 C 
BRANCH  16  17
ATOM     17  C   UNL d   1     -38.206  12.605  18.464  0.00  0.00     0.002 C 
ATOM     18  C   UNL d   1     -37.940  12.184  17.776  0.00  0.00     0.000 C 
ENDBRANCH  16  17
ENDBRANCH   9  16
BRANCH   4  19
ATOM     19  C   UNL d   1     -40.226  15.411  18.223  0.00  0.00     0.004 A 
ATOM     20  C   UNL d   1     -40.824  14.960  17.892  0.00  0.00     0.000 A 
ATOM     21  C   UNL d   1     -40.955  14.996  17.078  0.00  0.00     0.000 A 
ATOM     22  C   UNL d   1     -40.486  15.483  16.613  0.00  0.00     0.000 A 
ATOM     23  C   UNL d   1     -39.902  15.922  16.950  0.00  0.00     0.000 A 
ATOM     24  C   UNL d   1     -39.770  15.885  17.763  0.00  0.00     0.000 A 
ENDBRANCH   4  19
TORSDOF 4
ENDMDL
