MODEL 1
REMARK VINA RESULT:      -8.5      0.000      0.000
REMARK  3 active torsions:
REMARK  status: ('A' for Active; 'I' for Inactive)
REMARK    1  A    between atoms: S_7  and  C_3 
REMARK       I    between atoms: N_4  and  C_5 
REMARK    2  A    between atoms: C_5  and  C_10 
REMARK    3  A    between atoms: C_10  and  S_7 
ROOT
ATOM      1  N   UNL d   1      53.079  33.458  53.858  0.00  0.00    -0.236 NA
ATOM      2  N   UNL d   1      52.159  34.690  53.245  0.00  0.00    -0.242 NA
ATOM      3  C   UNL d   1      52.573  33.309  53.222  0.00  0.00     0.129 A 
ATOM      4  C   UNL d   1      52.109  33.931  52.913  0.00  0.00     0.105 A 
ATOM      5  C   UNL d   1      53.131  34.205  54.186  0.00  0.00     0.100 A 
ATOM      6  C   UNL d   1      52.666  34.827  53.877  0.00  0.00     0.099 A 
ATOM      7  C   UNL d   1      51.604  33.799  52.287  0.00  0.00     0.023 C 
ATOM      8  C   UNL d   1      52.715  35.582  54.205  0.00  0.00     0.021 A 
ATOM      9  C   UNL d   1      53.635  34.351  54.818  0.00  0.00     0.021 A 
ATOM     10  C   UNL d   1      53.232  35.716  54.847  0.00  0.00     0.002 A 
ATOM     11  C   UNL d   1      53.690  35.104  55.152  0.00  0.00     0.002 A 
ENDROOT
BRANCH   3  12
ATOM     12  S   UNL d   1      52.531  32.558  52.904  0.00  0.00    -0.061 SA
BRANCH  12  13
ATOM     13  C   UNL d   1      52.871  31.926  53.291  0.00  0.00     0.098 C 
BRANCH  13  14
ATOM     14  C   UNL d   1      52.843  31.165  52.952  0.00  0.00     0.271 C 
ATOM     15  N   UNL d   1      53.002  30.506  53.431  0.00  0.00    -0.272 N 
ATOM     16  C   UNL d   1      52.974  29.741  53.093  0.00  0.00     0.083 A 
ATOM     17  C   UNL d   1      53.184  30.601  54.219  0.00  0.00     0.083 A 
ATOM     18  C   UNL d   1      53.132  29.090  53.570  0.00  0.00     0.019 A 
ATOM     19  C   UNL d   1      53.314  29.184  54.359  0.00  0.00     0.003 A 
ATOM     20  C   UNL d   1      53.342  29.932  54.690  0.00  0.00     0.019 A 
ATOM     21  C   UNL d   1      53.475  28.491  54.836  0.00  0.00     0.000 C 
ATOM     22  O   UNL d   1      52.660  31.070  52.160  0.00  0.00    -0.266 OA
ENDBRANCH  13  14
ENDBRANCH  12  13
ENDBRANCH   3  12
TORSDOF 3
ENDMDL
MODEL 2
REMARK VINA RESULT:      -8.1      1.975      4.351
REMARK  3 active torsions:
REMARK  status: ('A' for Active; 'I' for Inactive)
REMARK    1  A    between atoms: S_7  and  C_3 
REMARK       I    between atoms: N_4  and  C_5 
REMARK    2  A    between atoms: C_5  and  C_10 
REMARK    3  A    between atoms: C_10  and  S_7 
ROOT
ATOM      1  N   UNL d   1      52.812  33.789  53.686  0.00  0.00    -0.236 NA
ATOM      2  N   UNL d   1      53.447  32.267  53.835  0.00  0.00    -0.242 NA
ATOM      3  C   UNL d   1      52.503  33.173  53.230  0.00  0.00     0.129 A 
ATOM      4  C   UNL d   1      52.824  32.406  53.305  0.00  0.00     0.105 A 
ATOM      5  C   UNL d   1      53.427  33.654  54.209  0.00  0.00     0.100 A 
ATOM      6  C   UNL d   1      53.747  32.887  54.284  0.00  0.00     0.099 A 
ATOM      7  C   UNL d   1      52.529  31.789  52.861  0.00  0.00     0.023 C 
ATOM      8  C   UNL d   1      54.367  32.747  54.810  0.00  0.00     0.021 A 
ATOM      9  C   UNL d   1      53.732  34.268  54.661  0.00  0.00     0.021 A 
ATOM     10  C   UNL d   1      54.668  33.380  55.264  0.00  0.00     0.002 A 
ATOM     11  C   UNL d   1      54.352  34.137  55.190  0.00  0.00     0.002 A 
ENDROOT
BRANCH   3  12
ATOM     12  S   UNL d   1      51.890  33.321  52.711  0.00  0.00    -0.061 SA
BRANCH  12  13
ATOM     13  C   UNL d   1      51.348  33.909  52.870  0.00  0.00     0.098 C 
BRANCH  13  14
ATOM     14  C   UNL d   1      50.788  34.128  52.292  0.00  0.00     0.271 C 
ATOM     15  N   UNL d   1      50.117  34.557  52.524  0.00  0.00    -0.272 N 
ATOM     16  C   UNL d   1      49.554  34.778  51.945  0.00  0.00     0.083 A 
ATOM     17  C   UNL d   1      50.005  34.761  53.305  0.00  0.00     0.083 A 
ATOM     18  C   UNL d   1      48.890  35.203  52.180  0.00  0.00     0.019 A 
ATOM     19  C   UNL d   1      48.778  35.407  52.961  0.00  0.00     0.003 A 
ATOM     20  C   UNL d   1      49.328  35.191  53.527  0.00  0.00     0.019 A 
ATOM     21  C   UNL d   1      48.079  35.850  53.181  0.00  0.00     0.000 C 
ATOM     22  O   UNL d   1      50.901  33.923  51.507  0.00  0.00    -0.266 OA
ENDBRANCH  13  14
ENDBRANCH  12  13
ENDBRANCH   3  12
TORSDOF 3
ENDMDL
MODEL 3
REMARK VINA RESULT:      -7.7      2.028      4.826
REMARK  3 active torsions:
REMARK  status: ('A' for Active; 'I' for Inactive)
REMARK    1  A    between atoms: S_7  and  C_3 
REMARK       I    between atoms: N_4  and  C_5 
REMARK    2  A    between atoms: C_5  and  C_10 
REMARK    3  A    between atoms: C_10  and  S_7 
ROOT
ATOM      1  N   UNL d   1      52.150  32.635  53.111  0.00  0.00    -0.236 NA
ATOM      2  N   UNL d   1      53.669  32.834  53.737  0.00  0.00    -0.242 NA
ATOM      3  C   UNL d   1      52.389  33.383  53.366  0.00  0.00     0.129 A 
ATOM      4  C   UNL d   1      53.156  33.484  53.681  0.00  0.00     0.105 A 
ATOM      5  C   UNL d   1      52.654  31.993  53.166  0.00  0.00     0.100 A 
ATOM      6  C   UNL d   1      53.421  32.094  53.481  0.00  0.00     0.099 A 
ATOM      7  C   UNL d   1      53.405  34.217  53.936  0.00  0.00     0.023 C 
ATOM      8  C   UNL d   1      53.933  31.450  53.538  0.00  0.00     0.021 A 
ATOM      9  C   UNL d   1      52.414  31.250  52.912  0.00  0.00     0.021 A 
ATOM     10  C   UNL d   1      53.676  30.699  53.276  0.00  0.00     0.002 A 
ATOM     11  C   UNL d   1      52.920  30.599  52.965  0.00  0.00     0.002 A 
ENDROOT
BRANCH   3  12
ATOM     12  S   UNL d   1      51.875  34.015  53.306  0.00  0.00    -0.061 SA
BRANCH  12  13
ATOM     13  C   UNL d   1      51.201  33.958  52.851  0.00  0.00     0.098 C 
BRANCH  13  14
ATOM     14  C   UNL d   1      50.566  34.482  52.978  0.00  0.00     0.271 C 
ATOM     15  N   UNL d   1      49.977  34.549  52.397  0.00  0.00    -0.272 N 
ATOM     16  C   UNL d   1      49.338  35.075  52.523  0.00  0.00     0.083 A 
ATOM     17  C   UNL d   1      50.019  34.109  51.712  0.00  0.00     0.083 A 
ATOM     18  C   UNL d   1      48.757  35.138  51.945  0.00  0.00     0.019 A 
ATOM     19  C   UNL d   1      48.798  34.699  51.260  0.00  0.00     0.003 A 
ATOM     20  C   UNL d   1      49.423  34.185  51.136  0.00  0.00     0.019 A 
ATOM     21  C   UNL d   1      48.181  34.782  50.672  0.00  0.00     0.000 C 
ATOM     22  O   UNL d   1      50.524  34.924  53.666  0.00  0.00    -0.266 OA
ENDBRANCH  13  14
ENDBRANCH  12  13
ENDBRANCH   3  12
TORSDOF 3
ENDMDL
MODEL 4
REMARK VINA RESULT:      -7.0      3.116      4.678
REMARK  3 active torsions:
REMARK  status: ('A' for Active; 'I' for Inactive)
REMARK    1  A    between atoms: S_7  and  C_3 
REMARK       I    between atoms: N_4  and  C_5 
REMARK    2  A    between atoms: C_5  and  C_10 
REMARK    3  A    between atoms: C_10  and  S_7 
ROOT
ATOM      1  N   UNL d   1      48.999  35.212  52.937  0.00  0.00    -0.236 NA
ATOM      2  N   UNL d   1      48.087  35.324  51.560  0.00  0.00    -0.242 NA
ATOM      3  C   UNL d   1      49.208  34.766  52.274  0.00  0.00     0.129 A 
ATOM      4  C   UNL d   1      48.748  34.822  51.579  0.00  0.00     0.105 A 
ATOM      5  C   UNL d   1      48.347  35.706  52.920  0.00  0.00     0.100 A 
ATOM      6  C   UNL d   1      47.887  35.763  52.225  0.00  0.00     0.099 A 
ATOM      7  C   UNL d   1      48.942  34.389  50.917  0.00  0.00     0.023 C 
ATOM      8  C   UNL d   1      47.230  36.261  52.204  0.00  0.00     0.021 A 
ATOM      9  C   UNL d   1      48.141  36.149  53.581  0.00  0.00     0.021 A 
ATOM     10  C   UNL d   1      47.031  36.705  52.883  0.00  0.00     0.002 A 
ATOM     11  C   UNL d   1      47.485  36.649  53.568  0.00  0.00     0.002 A 
ENDROOT
BRANCH   3  12
ATOM     12  S   UNL d   1      49.861  34.276  52.304  0.00  0.00    -0.061 SA
BRANCH  12  13
ATOM     13  C   UNL d   1      50.446  34.402  52.857  0.00  0.00     0.098 C 
BRANCH  13  14
ATOM     14  C   UNL d   1      50.939  33.772  53.094  0.00  0.00     0.271 C 
ATOM     15  N   UNL d   1      51.681  33.944  53.421  0.00  0.00    -0.272 N 
ATOM     16  C   UNL d   1      52.177  33.313  53.660  0.00  0.00     0.083 A 
ATOM     17  C   UNL d   1      51.927  34.716  53.508  0.00  0.00     0.083 A 
ATOM     18  C   UNL d   1      52.913  33.488  53.983  0.00  0.00     0.019 A 
ATOM     19  C   UNL d   1      53.159  34.260  54.071  0.00  0.00     0.003 A 
ATOM     20  C   UNL d   1      52.675  34.876  53.837  0.00  0.00     0.019 A 
ATOM     21  C   UNL d   1      53.930  34.417  54.410  0.00  0.00     0.000 C 
ATOM     22  O   UNL d   1      50.691  32.996  53.006  0.00  0.00    -0.266 OA
ENDBRANCH  13  14
ENDBRANCH  12  13
ENDBRANCH   3  12
TORSDOF 3
ENDMDL
MODEL 5
REMARK VINA RESULT:      -6.8      1.307      2.399
REMARK  3 active torsions:
REMARK  status: ('A' for Active; 'I' for Inactive)
REMARK    1  A    between atoms: S_7  and  C_3 
REMARK       I    between atoms: N_4  and  C_5 
REMARK    2  A    between atoms: C_5  and  C_10 
REMARK    3  A    between atoms: C_10  and  S_7 
ROOT
ATOM      1  N   UNL d   1      51.461  33.664  52.535  0.00  0.00    -0.236 NA
ATOM      2  N   UNL d   1      51.194  34.955  53.536  0.00  0.00    -0.242 NA
ATOM      3  C   UNL d   1      52.040  33.880  53.083  0.00  0.00     0.129 A 
ATOM      4  C   UNL d   1      51.905  34.532  53.588  0.00  0.00     0.105 A 
ATOM      5  C   UNL d   1      50.759  34.081  52.483  0.00  0.00     0.100 A 
ATOM      6  C   UNL d   1      50.624  34.732  52.988  0.00  0.00     0.099 A 
ATOM      7  C   UNL d   1      52.468  34.756  54.133  0.00  0.00     0.023 C 
ATOM      8  C   UNL d   1      49.917  35.155  52.938  0.00  0.00     0.021 A 
ATOM      9  C   UNL d   1      50.184  33.864  51.938  0.00  0.00     0.021 A 
ATOM     10  C   UNL d   1      49.341  34.923  52.379  0.00  0.00     0.002 A 
ATOM     11  C   UNL d   1      49.474  34.281  51.881  0.00  0.00     0.002 A 
ENDROOT
BRANCH   3  12
ATOM     12  S   UNL d   1      52.737  33.456  53.125  0.00  0.00    -0.061 SA
BRANCH  12  13
ATOM     13  C   UNL d   1      52.733  32.647  53.030  0.00  0.00     0.098 C 
BRANCH  13  14
ATOM     14  C   UNL d   1      53.413  32.201  53.218  0.00  0.00     0.271 C 
ATOM     15  N   UNL d   1      53.335  31.386  53.352  0.00  0.00    -0.272 N 
ATOM     16  C   UNL d   1      54.016  30.938  53.541  0.00  0.00     0.083 A 
ATOM     17  C   UNL d   1      52.606  31.025  53.301  0.00  0.00     0.083 A 
ATOM     18  C   UNL d   1      53.935  30.130  53.673  0.00  0.00     0.019 A 
ATOM     19  C   UNL d   1      53.206  29.769  53.623  0.00  0.00     0.003 A 
ATOM     20  C   UNL d   1      52.540  30.207  53.438  0.00  0.00     0.019 A 
ATOM     21  C   UNL d   1      53.146  28.926  53.765  0.00  0.00     0.000 C 
ATOM     22  O   UNL d   1      54.145  32.564  53.269  0.00  0.00    -0.266 OA
ENDBRANCH  13  14
ENDBRANCH  12  13
ENDBRANCH   3  12
TORSDOF 3
ENDMDL
