MODEL 1
REMARK VINA RESULT:      48.4      0.000      0.000
REMARK  3 active torsions:
REMARK  status: ('A' for Active; 'I' for Inactive)
REMARK    1  A    between atoms: N_6  and  C_1 
REMARK       I    between atoms: C_8  and  N_6 
REMARK       I    between atoms: C_11  and  N_7 
REMARK    2  A    between atoms: C_14  and  C_8 
REMARK    3  A    between atoms: O_23  and  C_20 
ROOT
ATOM      1  C   UNL d   1      46.165 -18.489  41.124  0.00  0.00     0.124 A 
ATOM      2  C   UNL d   1      46.377 -19.283  41.203  0.00  0.00     0.093 A 
ATOM      3  C   UNL d   1      46.251 -18.776  42.426  0.00  0.00     0.049 A 
ATOM      4  C   UNL d   1      46.429 -19.455  42.021  0.00  0.00     0.021 A 
ATOM      5  S   UNL d   1      46.086 -18.170  41.886  0.00  0.00    -0.066 SA
ATOM      6  N   UNL d   1      46.444 -19.469  43.672  0.00  0.00    -0.272 N 
ATOM      7  C   UNL d   1      46.257 -18.776  43.273  0.00  0.00     0.089 A 
ATOM      8  C   UNL d   1      46.512 -19.808  40.585  0.00  0.00     0.103 C 
ATOM      9  C   UNL d   1      46.453 -19.482  44.500  0.00  0.00     0.265 C 
ATOM     10  N   UNL d   1      46.647 -20.329  39.972  0.00  0.00    -0.191 NA
ATOM     11  C   UNL d   1      46.619 -20.160  42.418  0.00  0.00     0.020 A 
ATOM     12  C   UNL d   1      46.625 -20.159  43.245  0.00  0.00     0.083 A 
ATOM     13  O   UNL d   1      46.274 -18.799  44.922  0.00  0.00    -0.267 OA
ATOM     14  C   UNL d   1      46.641 -20.178  44.903  0.00  0.00     0.066 C 
ENDROOT
BRANCH   1  15
ATOM     15  N   UNL d   1      46.051 -18.078  40.409  0.00  0.00    -0.201 NA
ATOM     16  C   UNL d   1      45.310 -17.757  40.243  0.00  0.00     0.280 C 
ATOM     17  O   UNL d   1      44.684 -17.836  40.767  0.00  0.00    -0.265 OA
BRANCH  16  18
ATOM     18  C   UNL d   1      45.197 -17.351  39.537  0.00  0.00     0.058 A 
ATOM     19  C   UNL d   1      45.820 -16.969  39.177  0.00  0.00     0.007 A 
ATOM     20  C   UNL d   1      45.706 -16.558  38.463  0.00  0.00     0.024 A 
ATOM     21  C   UNL d   1      44.959 -16.540  38.124  0.00  0.00     0.094 A 
ATOM     22  C   UNL d   1      44.328 -16.924  38.483  0.00  0.00     0.024 A 
ATOM     23  C   UNL d   1      44.441 -17.330  39.189  0.00  0.00     0.007 A 
BRANCH  21  24
ATOM     24  O   UNL d   1      44.844 -16.127  37.406  0.00  0.00    -0.328 OA
ATOM     25  C   UNL d   1      45.424 -15.605  37.120  0.00  0.00     0.181 C 
ENDBRANCH  21  24
ENDBRANCH  16  18
ENDBRANCH   1  15
TORSDOF 3
ENDMDL
