MODEL 1
REMARK VINA RESULT:      -3.4      0.000      0.000
REMARK  7 active torsions:
REMARK  status: ('A' for Active; 'I' for Inactive)
REMARK    1  A    between atoms: C_2  and  S_1 
REMARK    2  A    between atoms: N_3  and  S_1 
REMARK    3  A    between atoms: C_15  and  N_3 
REMARK    4  A    between atoms: C_6  and  C_16 
REMARK       I    between atoms: N_7  and  C_6 
REMARK    5  A    between atoms: C_8  and  N_7 
REMARK    6  A    between atoms: C_17  and  C_15 
REMARK    7  A    between atoms: C_16  and  C_17 
ROOT
ATOM      1  N   UNL d   1      32.963  18.322 -23.185  0.00  0.00    -0.228 N 
ATOM      2  C   UNL d   1      33.202  17.897 -22.513  0.00  0.00     0.111 C 
ENDROOT
BRANCH   1   3
ATOM      3  S   UNL d   1      32.779  17.918 -23.882  0.00  0.00     0.271 S 
ATOM      4  O   UNL d   1      33.241  18.034 -24.553  0.00  0.00    -0.200 OA
ATOM      5  O   UNL d   1      32.311  17.796 -23.210  0.00  0.00    -0.200 OA
BRANCH   3   6
ATOM      6  C   UNL d   1      32.129  17.397 -23.899  0.00  0.00     0.104 A 
ATOM      7  C   UNL d   1      32.227  16.630 -23.612  0.00  0.00     0.013 A 
ATOM      8  C   UNL d   1      31.583  16.114 -23.629  0.00  0.00     0.001 A 
ATOM      9  C   UNL d   1      30.854  16.364 -23.929  0.00  0.00     0.000 A 
ATOM     10  C   UNL d   1      30.770  17.134 -24.213  0.00  0.00     0.001 A 
ATOM     11  C   UNL d   1      30.214  15.843 -23.943  0.00  0.00     0.000 C 
ATOM     12  C   UNL d   1      31.412  17.652 -24.198  0.00  0.00     0.013 A 
ENDBRANCH   3   6
ENDBRANCH   1   3
BRANCH   1  13
ATOM     13  C   UNL d   1      32.911  19.144 -23.155  0.00  0.00     0.092 C 
BRANCH  13  14
ATOM     14  C   UNL d   1      33.121  19.545 -22.468  0.00  0.00     0.025 C 
BRANCH  14  15
ATOM     15  C   UNL d   1      33.197  20.367 -22.475  0.00  0.00     0.064 C 
BRANCH  15  16
ATOM     16  C   UNL d   1      33.054  20.801 -21.790  0.00  0.00     0.275 C 
ATOM     17  N   UNL d   1      32.832  21.594 -21.842  0.00  0.00    -0.238 NA
ATOM     18  O   UNL d   1      33.131  20.450 -21.054  0.00  0.00    -0.266 OA
BRANCH  17  19
ATOM     19  C   UNL d   1      32.687  22.035 -21.158  0.00  0.00     0.088 C 
ATOM     20  C   UNL d   1      33.163  22.684 -20.972  0.00  0.00     0.025 C 
ATOM     21  C   UNL d   1      32.064  21.822 -20.663  0.00  0.00     0.025 C 
ATOM     22  C   UNL d   1      33.238  22.072 -21.772  0.00  0.00     0.025 C 
ENDBRANCH  17  19
ENDBRANCH  15  16
ENDBRANCH  14  15
ENDBRANCH  13  14
ENDBRANCH   1  13
TORSDOF 7
ENDMDL
MODEL 2
REMARK VINA RESULT:      -2.1      1.476      2.232
REMARK  7 active torsions:
REMARK  status: ('A' for Active; 'I' for Inactive)
REMARK    1  A    between atoms: C_2  and  S_1 
REMARK    2  A    between atoms: N_3  and  S_1 
REMARK    3  A    between atoms: C_15  and  N_3 
REMARK    4  A    between atoms: C_6  and  C_16 
REMARK       I    between atoms: N_7  and  C_6 
REMARK    5  A    between atoms: C_8  and  N_7 
REMARK    6  A    between atoms: C_17  and  C_15 
REMARK    7  A    between atoms: C_16  and  C_17 
ROOT
ATOM      1  N   UNL d   1      31.551  17.222 -24.392  0.00  0.00    -0.228 N 
ATOM      2  C   UNL d   1      31.267  17.883 -24.806  0.00  0.00     0.111 C 
ENDROOT
BRANCH   1   3
ATOM      3  S   UNL d   1      31.312  16.463 -24.615  0.00  0.00     0.271 S 
ATOM      4  O   UNL d   1      31.851  15.957 -24.974  0.00  0.00    -0.200 OA
ATOM      5  O   UNL d   1      30.764  16.968 -24.254  0.00  0.00    -0.200 OA
BRANCH   3   6
ATOM      6  C   UNL d   1      30.528  16.219 -24.475  0.00  0.00     0.104 A 
ATOM      7  C   UNL d   1      30.350  15.849 -23.759  0.00  0.00     0.013 A 
ATOM      8  C   UNL d   1      29.572  15.606 -23.620  0.00  0.00     0.001 A 
ATOM      9  C   UNL d   1      28.986  15.732 -24.189  0.00  0.00     0.000 A 
ATOM     10  C   UNL d   1      29.179  16.103 -24.900  0.00  0.00     0.001 A 
ATOM     11  C   UNL d   1      28.212  15.487 -24.043  0.00  0.00     0.000 C 
ATOM     12  C   UNL d   1      29.954  16.347 -25.043  0.00  0.00     0.013 A 
ENDBRANCH   3   6
ENDBRANCH   1   3
BRANCH   1  13
ATOM     13  C   UNL d   1      32.070  17.326 -23.759  0.00  0.00     0.092 C 
BRANCH  13  14
ATOM     14  C   UNL d   1      32.491  18.028 -23.683  0.00  0.00     0.025 C 
BRANCH  14  15
ATOM     15  C   UNL d   1      32.835  18.228 -22.960  0.00  0.00     0.064 C 
BRANCH  15  16
ATOM     16  C   UNL d   1      32.936  19.020 -22.755  0.00  0.00     0.275 C 
ATOM     17  N   UNL d   1      32.784  19.269 -21.984  0.00  0.00    -0.238 NA
ATOM     18  O   UNL d   1      33.187  19.563 -23.314  0.00  0.00    -0.266 OA
BRANCH  17  19
ATOM     19  C   UNL d   1      32.883  20.062 -21.772  0.00  0.00     0.088 C 
ATOM     20  C   UNL d   1      33.241  20.260 -21.054  0.00  0.00     0.025 C 
ATOM     21  C   UNL d   1      32.622  20.653 -22.283  0.00  0.00     0.025 C 
ATOM     22  C   UNL d   1      33.064  19.336 -21.423  0.00  0.00     0.025 C 
ENDBRANCH  17  19
ENDBRANCH  15  16
ENDBRANCH  14  15
ENDBRANCH  13  14
ENDBRANCH   1  13
TORSDOF 7
ENDMDL
MODEL 3
REMARK VINA RESULT:      -1.0      1.433      4.804
REMARK  7 active torsions:
REMARK  status: ('A' for Active; 'I' for Inactive)
REMARK    1  A    between atoms: C_2  and  S_1 
REMARK    2  A    between atoms: N_3  and  S_1 
REMARK    3  A    between atoms: C_15  and  N_3 
REMARK    4  A    between atoms: C_6  and  C_16 
REMARK       I    between atoms: N_7  and  C_6 
REMARK    5  A    between atoms: C_8  and  N_7 
REMARK    6  A    between atoms: C_17  and  C_15 
REMARK    7  A    between atoms: C_16  and  C_17 
ROOT
ATOM      1  N   UNL d   1      32.472  17.867 -23.758  0.00  0.00    -0.228 N 
ATOM      2  C   UNL d   1      32.630  17.393 -23.095  0.00  0.00     0.111 C 
ENDROOT
BRANCH   1   3
ATOM      3  S   UNL d   1      32.898  18.565 -23.874  0.00  0.00     0.271 S 
ATOM      4  O   UNL d   1      33.241  18.715 -24.607  0.00  0.00    -0.200 OA
ATOM      5  O   UNL d   1      32.555  18.421 -23.135  0.00  0.00    -0.200 OA
BRANCH   3   6
ATOM      6  C   UNL d   1      32.976  19.111 -23.250  0.00  0.00     0.104 A 
ATOM      7  C   UNL d   1      32.973  18.829 -22.474  0.00  0.00     0.013 A 
ATOM      8  C   UNL d   1      33.051  19.371 -21.855  0.00  0.00     0.001 A 
ATOM      9  C   UNL d   1      33.130  20.179 -22.012  0.00  0.00     0.000 A 
ATOM     10  C   UNL d   1      33.131  20.446 -22.793  0.00  0.00     0.001 A 
ATOM     11  C   UNL d   1      33.207  20.713 -21.389  0.00  0.00     0.000 C 
ATOM     12  C   UNL d   1      33.054  19.908 -23.414  0.00  0.00     0.013 A 
ENDBRANCH   3   6
ENDBRANCH   1   3
BRANCH   1  13
ATOM     13  C   UNL d   1      31.891  17.639 -24.297  0.00  0.00     0.092 C 
BRANCH  13  14
ATOM     14  C   UNL d   1      31.426  16.977 -24.146  0.00  0.00     0.025 C 
BRANCH  14  15
ATOM     15  C   UNL d   1      30.715  16.871 -24.551  0.00  0.00     0.064 C 
BRANCH  15  16
ATOM     16  C   UNL d   1      30.140  16.364 -24.249  0.00  0.00     0.275 C 
ATOM     17  N   UNL d   1      29.494  16.670 -23.837  0.00  0.00    -0.238 NA
ATOM     18  O   UNL d   1      30.204  15.555 -24.357  0.00  0.00    -0.266 OA
BRANCH  17  19
ATOM     19  C   UNL d   1      28.914  16.167 -23.532  0.00  0.00     0.088 C 
ATOM     20  C   UNL d   1      28.116  16.378 -23.573  0.00  0.00     0.025 C 
ATOM     21  C   UNL d   1      29.137  15.453 -23.186  0.00  0.00     0.025 C 
ATOM     22  C   UNL d   1      28.911  16.902 -23.907  0.00  0.00     0.025 C 
ENDBRANCH  17  19
ENDBRANCH  15  16
ENDBRANCH  14  15
ENDBRANCH  13  14
ENDBRANCH   1  13
TORSDOF 7
ENDMDL
