MODEL 1
REMARK VINA RESULT:      59.5      0.000      0.000
REMARK  4 active torsions:
REMARK  status: ('A' for Active; 'I' for Inactive)
REMARK    1  A    between atoms: N_2  and  S_1 
REMARK    2  A    between atoms: C_5  and  S_1 
REMARK    3  A    between atoms: C_4  and  N_2 
REMARK    4  A    between atoms: C_7  and  C_3 
ROOT
ATOM      1  S   UNL d   1      58.411  49.418  50.907  0.00  0.00     0.285 S 
ATOM      2  O   UNL d   1      58.483  49.135  50.115  0.00  0.00    -0.198 OA
ATOM      3  O   UNL d   1      58.333  49.703  51.705  0.00  0.00    -0.198 OA
ENDROOT
BRANCH   1   4
ATOM      4  N   UNL d   1      57.570  49.382  50.843  0.00  0.00    -0.158 NA
BRANCH   4   5
ATOM      5  C   UNL d   1      57.191  48.833  50.326  0.00  0.00     0.094 A 
ATOM      6  C   UNL d   1      57.128  49.004  49.560  0.00  0.00     0.018 A 
ATOM      7  C   UNL d   1      56.766  48.499  49.014  0.00  0.00     0.002 A 
ATOM      8  C   UNL d   1      57.438  49.702  49.339  0.00  0.00     0.002 C 
ATOM      9  C   UNL d   1      56.450  47.763  49.299  0.00  0.00     0.000 A 
ATOM     10  C   UNL d   1      56.536  47.630  50.082  0.00  0.00     0.002 A 
ATOM     11  C   UNL d   1      56.075  47.197  48.842  0.00  0.00     0.000 C 
ATOM     12  C   UNL d   1      56.898  48.133  50.636  0.00  0.00     0.018 A 
ATOM     13  C   UNL d   1      56.951  47.938  51.412  0.00  0.00     0.002 C 
ENDBRANCH   4   5
ENDBRANCH   1   4
BRANCH   1  14
ATOM     14  C   UNL d   1      59.262  49.453  50.970  0.00  0.00     0.106 A 
ATOM     15  C   UNL d   1      59.597  49.243  51.703  0.00  0.00     0.020 A 
ATOM     16  C   UNL d   1      60.418  49.271  51.780  0.00  0.00     0.076 A 
ATOM     17  C   UNL d   1      60.897  49.501  51.149  0.00  0.00     0.064 A 
ATOM     18  C   UNL d   1      60.564  49.707  50.428  0.00  0.00     0.012 A 
ATOM     19 CL   UNL d   1      61.725  49.525  51.242  0.00  0.00    -0.082 Cl
ATOM     20  C   UNL d   1      59.764  49.693  50.308  0.00  0.00     0.014 A 
BRANCH  16  21
ATOM     21  C   UNL d   1      60.758  49.061  52.517  0.00  0.00     0.212 C 
ATOM     22  O   UNL d   1      61.046  49.691  52.940  0.00  0.00    -0.644 OA
ATOM     23  O   UNL d   1      60.782  48.241  52.766  0.00  0.00    -0.644 OA
ENDBRANCH  16  21
ENDBRANCH   1  14
TORSDOF 4
ENDMDL
