MODEL 1
REMARK VINA RESULT:      -0.0      0.000      0.000
REMARK  4 active torsions:
REMARK  status: ('A' for Active; 'I' for Inactive)
REMARK    1  A    between atoms: N_10  and  C_3 
REMARK    2  A    between atoms: C_11  and  C_5 
REMARK    3  A    between atoms: C_12  and  N_10 
REMARK    4  A    between atoms: O_21  and  C_14 
ROOT
ATOM      1  N   UNL d   1      32.852  18.683 -22.798  0.00  0.00    -0.184 N 
ATOM      2  C   UNL d   1      32.761  18.132 -23.424  0.00  0.00     0.168 A 
ATOM      3  C   UNL d   1      32.937  19.487 -22.971  0.00  0.00     0.217 A 
ATOM      4  N   UNL d   1      32.769  17.626 -21.856  0.00  0.00    -0.162 NA
ATOM      5  C   UNL d   1      32.678  17.347 -23.257  0.00  0.00     0.055 A 
ATOM      6  N   UNL d   1      32.760  18.405 -24.201  0.00  0.00    -0.227 NA
ATOM      7  C   UNL d   1      32.934  19.741 -23.742  0.00  0.00     0.066 A 
ATOM      8  C   UNL d   1      32.680  17.083 -22.472  0.00  0.00     0.104 A 
ATOM      9  C   UNL d   1      32.844  19.197 -24.374  0.00  0.00     0.087 A 
ATOM     10  C   UNL d   1      33.005  20.477 -24.076  0.00  0.00     0.006 A 
ATOM     11  C   UNL d   1      32.595  16.286 -22.311  0.00  0.00     0.023 C 
ATOM     12  C   UNL d   1      32.862  19.610 -25.081  0.00  0.00     0.019 A 
ATOM     13  C   UNL d   1      32.963  20.413 -24.890  0.00  0.00     0.002 A 
ENDROOT
BRANCH   3  14
ATOM     14  N   UNL d   1      33.028  20.047 -22.341  0.00  0.00    -0.383 NA
BRANCH  14  15
ATOM     15  C   UNL d   1      33.080  20.615 -21.725  0.00  0.00     0.134 A 
ATOM     16  C   UNL d   1      33.067  21.430 -21.886  0.00  0.00     0.034 A 
ATOM     17  C   UNL d   1      33.119  21.995 -21.267  0.00  0.00     0.027 A 
ATOM     18  C   UNL d   1      33.186  21.744 -20.464  0.00  0.00     0.094 A 
ATOM     19  C   UNL d   1      33.200  20.905 -20.288  0.00  0.00     0.027 A 
ATOM     20  C   UNL d   1      33.148  20.343 -20.909  0.00  0.00     0.034 A 
BRANCH  18  21
ATOM     21  O   UNL d   1      33.238  22.307 -19.843  0.00  0.00    -0.328 OA
ATOM     22  C   UNL d   1      32.803  23.030 -19.886  0.00  0.00     0.181 C 
ENDBRANCH  18  21
ENDBRANCH  14  15
ENDBRANCH   3  14
BRANCH   5  23
ATOM     23  C   UNL d   1      32.590  16.807 -23.870  0.00  0.00     0.004 A 
ATOM     24  C   UNL d   1      31.845  16.519 -24.062  0.00  0.00     0.000 A 
ATOM     25  C   UNL d   1      31.753  15.981 -24.672  0.00  0.00     0.000 A 
ATOM     26  C   UNL d   1      32.413  15.728 -25.097  0.00  0.00     0.000 A 
ATOM     27  C   UNL d   1      33.151  16.008 -24.914  0.00  0.00     0.000 A 
ATOM     28  C   UNL d   1      33.241  16.554 -24.294  0.00  0.00     0.000 A 
ENDBRANCH   5  23
TORSDOF 4
ENDMDL
MODEL 2
REMARK VINA RESULT:       1.1      1.715      5.111
REMARK  4 active torsions:
REMARK  status: ('A' for Active; 'I' for Inactive)
REMARK    1  A    between atoms: N_10  and  C_3 
REMARK    2  A    between atoms: C_11  and  C_5 
REMARK    3  A    between atoms: C_12  and  N_10 
REMARK    4  A    between atoms: O_21  and  C_14 
ROOT
ATOM      1  N   UNL d   1      32.814  20.252 -22.074  0.00  0.00    -0.184 N 
ATOM      2  C   UNL d   1      32.877  21.067 -21.885  0.00  0.00     0.168 A 
ATOM      3  C   UNL d   1      32.889  20.007 -22.861  0.00  0.00     0.217 A 
ATOM      4  N   UNL d   1      32.605  19.951 -20.703  0.00  0.00    -0.162 NA
ATOM      5  C   UNL d   1      32.804  21.307 -21.118  0.00  0.00     0.055 A 
ATOM      6  N   UNL d   1      33.014  21.608 -22.490  0.00  0.00    -0.227 NA
ATOM      7  C   UNL d   1      33.023  20.554 -23.446  0.00  0.00     0.066 A 
ATOM      8  C   UNL d   1      32.667  20.753 -20.517  0.00  0.00     0.104 A 
ATOM      9  C   UNL d   1      33.088  21.371 -23.266  0.00  0.00     0.087 A 
ATOM     10  C   UNL d   1      33.119  20.484 -24.249  0.00  0.00     0.006 A 
ATOM     11  C   UNL d   1      32.594  21.004 -19.742  0.00  0.00     0.023 C 
ATOM     12  C   UNL d   1      33.222  21.783 -23.961  0.00  0.00     0.019 A 
ATOM     13  C   UNL d   1      33.241  21.223 -24.575  0.00  0.00     0.002 A 
ENDROOT
BRANCH   3  14
ATOM     14  N   UNL d   1      32.825  19.186 -23.055  0.00  0.00    -0.383 NA
BRANCH  14  15
ATOM     15  C   UNL d   1      32.731  18.368 -23.220  0.00  0.00     0.134 A 
ATOM     16  C   UNL d   1      33.240  17.799 -22.893  0.00  0.00     0.034 A 
ATOM     17  C   UNL d   1      33.142  16.982 -23.060  0.00  0.00     0.027 A 
ATOM     18  C   UNL d   1      32.521  16.721 -23.568  0.00  0.00     0.094 A 
ATOM     19  C   UNL d   1      31.990  17.301 -23.912  0.00  0.00     0.027 A 
ATOM     20  C   UNL d   1      32.091  18.117 -23.742  0.00  0.00     0.034 A 
BRANCH  18  21
ATOM     21  O   UNL d   1      32.420  15.905 -23.738  0.00  0.00    -0.328 OA
ATOM     22  C   UNL d   1      31.818  15.460 -23.347  0.00  0.00     0.181 C 
ENDBRANCH  18  21
ENDBRANCH  14  15
ENDBRANCH   3  14
BRANCH   5  23
ATOM     23  C   UNL d   1      32.866  22.104 -20.933  0.00  0.00     0.004 A 
ATOM     24  C   UNL d   1      33.169  22.337 -20.206  0.00  0.00     0.000 A 
ATOM     25  C   UNL d   1      33.232  23.131 -20.018  0.00  0.00     0.000 A 
ATOM     26  C   UNL d   1      32.991  23.701 -20.563  0.00  0.00     0.000 A 
ATOM     27  C   UNL d   1      32.691  23.480 -21.283  0.00  0.00     0.000 A 
ATOM     28  C   UNL d   1      32.629  22.672 -21.470  0.00  0.00     0.000 A 
ENDBRANCH   5  23
TORSDOF 4
ENDMDL
MODEL 3
REMARK VINA RESULT:       1.3      1.938      3.277
REMARK  4 active torsions:
REMARK  status: ('A' for Active; 'I' for Inactive)
REMARK    1  A    between atoms: N_10  and  C_3 
REMARK    2  A    between atoms: C_11  and  C_5 
REMARK    3  A    between atoms: C_12  and  N_10 
REMARK    4  A    between atoms: O_21  and  C_14 
ROOT
ATOM      1  N   UNL d   1      33.045  21.312 -21.324  0.00  0.00    -0.184 N 
ATOM      2  C   UNL d   1      33.061  21.015 -22.108  0.00  0.00     0.168 A 
ATOM      3  C   UNL d   1      32.979  22.127 -21.196  0.00  0.00     0.217 A 
ATOM      4  N   UNL d   1      33.160  19.991 -20.821  0.00  0.00    -0.162 NA
ATOM      5  C   UNL d   1      33.125  20.221 -22.234  0.00  0.00     0.055 A 
ATOM      6  N   UNL d   1      33.010  21.543 -22.737  0.00  0.00    -0.227 NA
ATOM      7  C   UNL d   1      32.930  22.635 -21.827  0.00  0.00     0.066 A 
ATOM      8  C   UNL d   1      33.175  19.698 -21.593  0.00  0.00     0.104 A 
ATOM      9  C   UNL d   1      32.945  22.347 -22.615  0.00  0.00     0.087 A 
ATOM     10  C   UNL d   1      32.863  23.443 -21.876  0.00  0.00     0.006 A 
ATOM     11  C   UNL d   1      33.240  18.894 -21.729  0.00  0.00     0.023 C 
ATOM     12  C   UNL d   1      32.887  22.982 -23.128  0.00  0.00     0.019 A 
ATOM     13  C   UNL d   1      32.836  23.667 -22.662  0.00  0.00     0.002 A 
ENDROOT
BRANCH   3  14
ATOM     14  N   UNL d   1      32.963  22.431 -20.406  0.00  0.00    -0.383 NA
BRANCH  14  15
ATOM     15  C   UNL d   1      32.936  22.694 -19.608  0.00  0.00     0.134 A 
ATOM     16  C   UNL d   1      32.633  23.441 -19.409  0.00  0.00     0.034 A 
ATOM     17  C   UNL d   1      32.608  23.700 -18.611  0.00  0.00     0.027 A 
ATOM     18  C   UNL d   1      32.892  23.203 -17.991  0.00  0.00     0.094 A 
ATOM     19  C   UNL d   1      33.207  22.429 -18.187  0.00  0.00     0.027 A 
ATOM     20  C   UNL d   1      33.230  22.173 -18.986  0.00  0.00     0.034 A 
BRANCH  18  21
ATOM     21  O   UNL d   1      32.868  23.459 -17.192  0.00  0.00    -0.328 OA
ATOM     22  C   UNL d   1      33.236  22.999 -16.586  0.00  0.00     0.181 C 
ENDBRANCH  18  21
ENDBRANCH  14  15
ENDBRANCH   3  14
BRANCH   5  23
ATOM     23  C   UNL d   1      33.141  19.930 -23.001  0.00  0.00     0.004 A 
ATOM     24  C   UNL d   1      33.084  19.122 -23.138  0.00  0.00     0.000 A 
ATOM     25  C   UNL d   1      33.099  18.829 -23.902  0.00  0.00     0.000 A 
ATOM     26  C   UNL d   1      33.172  19.348 -24.538  0.00  0.00     0.000 A 
ATOM     27  C   UNL d   1      33.228  20.146 -24.412  0.00  0.00     0.000 A 
ATOM     28  C   UNL d   1      33.213  20.441 -23.635  0.00  0.00     0.000 A 
ENDBRANCH   5  23
TORSDOF 4
ENDMDL
