MODEL 1
REMARK VINA RESULT:       3.6      0.000      0.000
REMARK  12 active torsions:
REMARK  status: ('A' for Active; 'I' for Inactive)
REMARK    1  A    between atoms: C_18  and  N_1 
REMARK    2  A    between atoms: C_9  and  N_3 
REMARK    3  A    between atoms: C_12  and  C_9 
REMARK       I    between atoms: N_19  and  C_12 
REMARK    4  A    between atoms: C_14  and  C_22 
REMARK       I    between atoms: N_15  and  C_14 
REMARK    5  A    between atoms: C_20  and  N_15 
REMARK    6  A    between atoms: C_27  and  C_18 
REMARK    7  A    between atoms: C_23  and  N_19 
REMARK    8  A    between atoms: O_21  and  C_24 
REMARK    9  A    between atoms: C_22  and  C_29 
REMARK   10  A    between atoms: C_24  and  C_23 
REMARK   11  A    between atoms: C_30  and  C_27 
REMARK   12  A    between atoms: C_29  and  C_30 
ROOT
ATOM      1  N   UNL d   1      59.278  -6.667  28.457  0.00  0.00    -0.225 N 
ATOM      2  C   UNL d   1      58.649  -7.199  28.458  0.00  0.00     0.342 A 
ATOM      3  N   UNL d   1      58.789  -8.021  28.458  0.00  0.00    -0.253 N 
ATOM      4  C   UNL d   1      60.199  -7.753  28.456  0.00  0.00     0.102 A 
ATOM      5  C   UNL d   1      60.048  -6.948  28.456  0.00  0.00     0.276 A 
ATOM      6  C   UNL d   1      59.569  -8.304  28.457  0.00  0.00     0.080 A 
ATOM      7  S   UNL d   1      60.921  -8.191  28.456  0.00  0.00    -0.080 SA
ATOM      8  C   UNL d   1      59.890  -9.081  28.457  0.00  0.00     0.025 A 
ATOM      9  O   UNL d   1      57.870  -6.932  28.458  0.00  0.00    -0.245 OA
ATOM     10  C   UNL d   1      60.726  -9.011  28.456  0.00  0.00     0.037 A 
ATOM     11  O   UNL d   1      60.667  -6.411  28.455  0.00  0.00    -0.266 OA
ENDROOT
BRANCH   1  12
ATOM     12  C   UNL d   1      59.125  -5.868  28.457  0.00  0.00     0.087 C 
BRANCH  12  13
ATOM     13  C   UNL d   1      59.623  -5.354  28.876  0.00  0.00     0.019 C 
BRANCH  13  14
ATOM     14  C   UNL d   1      59.678  -4.565  28.651  0.00  0.00     0.002 C 
BRANCH  14  15
ATOM     15  C   UNL d   1      59.152  -4.011  28.954  0.00  0.00     0.005 C 
BRANCH  15  16
ATOM     16  C   UNL d   1      58.957  -3.343  28.519  0.00  0.00     0.062 C 
BRANCH  16  17
ATOM     17  C   UNL d   1      59.081  -2.589  28.837  0.00  0.00     0.279 C 
ATOM     18  N   UNL d   1      58.560  -1.972  28.650  0.00  0.00    -0.208 NA
ATOM     19  O   UNL d   1      59.723  -2.456  29.337  0.00  0.00    -0.265 OA
BRANCH  18  20
ATOM     20  C   UNL d   1      58.685  -1.226  28.966  0.00  0.00     0.085 A 
ATOM     21  C   UNL d   1      59.171  -0.697  28.569  0.00  0.00     0.019 A 
ATOM     22  C   UNL d   1      59.300   0.056  28.885  0.00  0.00     0.002 A 
ATOM     23  C   UNL d   1      58.937   0.270  29.599  0.00  0.00     0.000 A 
ATOM     24  C   UNL d   1      58.452  -0.265  29.990  0.00  0.00     0.002 A 
ATOM     25  C   UNL d   1      58.324  -1.014  29.677  0.00  0.00     0.019 A 
ENDBRANCH  18  20
ENDBRANCH  16  17
ENDBRANCH  15  16
ENDBRANCH  14  15
ENDBRANCH  13  14
ENDBRANCH  12  13
ENDBRANCH   1  12
BRANCH   3  26
ATOM     26  C   UNL d   1      58.151  -8.545  28.458  0.00  0.00     0.147 C 
BRANCH  26  27
ATOM     27  C   UNL d   1      57.862  -8.843  29.177  0.00  0.00     0.297 C 
ATOM     28  O   UNL d   1      57.124  -8.628  29.455  0.00  0.00    -0.264 OA
ATOM     29  N   UNL d   1      58.331  -9.373  29.624  0.00  0.00    -0.203 NA
BRANCH  29  30
ATOM     30  C   UNL d   1      58.045  -9.677  30.350  0.00  0.00     0.129 C 
BRANCH  30  31
ATOM     31  C   UNL d   1      58.527  -9.676  31.019  0.00  0.00     0.137 C 
BRANCH  31  32
ATOM     32  O   UNL d   1      58.305  -9.259  31.691  0.00  0.00    -0.325 OA
ATOM     33  C   UNL d   1      58.636  -9.453  32.420  0.00  0.00     0.182 C 
ENDBRANCH  31  32
ENDBRANCH  30  31
ENDBRANCH  29  30
ENDBRANCH  26  27
ENDBRANCH   3  26
TORSDOF 12
ENDMDL
MODEL 2
REMARK VINA RESULT:       4.9      4.715      7.917
REMARK  12 active torsions:
REMARK  status: ('A' for Active; 'I' for Inactive)
REMARK    1  A    between atoms: C_18  and  N_1 
REMARK    2  A    between atoms: C_9  and  N_3 
REMARK    3  A    between atoms: C_12  and  C_9 
REMARK       I    between atoms: N_19  and  C_12 
REMARK    4  A    between atoms: C_14  and  C_22 
REMARK       I    between atoms: N_15  and  C_14 
REMARK    5  A    between atoms: C_20  and  N_15 
REMARK    6  A    between atoms: C_27  and  C_18 
REMARK    7  A    between atoms: C_23  and  N_19 
REMARK    8  A    between atoms: O_21  and  C_24 
REMARK    9  A    between atoms: C_22  and  C_29 
REMARK   10  A    between atoms: C_24  and  C_23 
REMARK   11  A    between atoms: C_30  and  C_27 
REMARK   12  A    between atoms: C_29  and  C_30 
ROOT
ATOM      1  N   UNL d   1      57.056   0.669  32.289  0.00  0.00    -0.225 N 
ATOM      2  C   UNL d   1      56.367   0.663  32.739  0.00  0.00     0.342 A 
ATOM      3  N   UNL d   1      56.403   0.663  33.572  0.00  0.00    -0.253 N 
ATOM      4  C   UNL d   1      57.836   0.675  33.482  0.00  0.00     0.102 A 
ATOM      5  C   UNL d   1      57.785   0.675  32.664  0.00  0.00     0.276 A 
ATOM      6  C   UNL d   1      57.141   0.670  33.949  0.00  0.00     0.080 A 
ATOM      7  S   UNL d   1      58.497   0.681  34.005  0.00  0.00    -0.080 SA
ATOM      8  C   UNL d   1      57.363   0.671  34.760  0.00  0.00     0.025 A 
ATOM      9  O   UNL d   1      55.627   0.657  32.377  0.00  0.00    -0.245 OA
ATOM     10  C   UNL d   1      58.202   0.679  34.795  0.00  0.00     0.037 A 
ATOM     11  O   UNL d   1      58.467   0.681  32.208  0.00  0.00    -0.266 OA
ENDROOT
BRANCH   1  12
ATOM     12  C   UNL d   1      57.004   0.668  31.477  0.00  0.00     0.087 C 
BRANCH  12  13
ATOM     13  C   UNL d   1      57.581   0.276  31.028  0.00  0.00     0.019 C 
BRANCH  13  14
ATOM     14  C   UNL d   1      57.718   0.505  30.250  0.00  0.00     0.002 C 
BRANCH  14  15
ATOM     15  C   UNL d   1      57.948  -0.051  29.691  0.00  0.00     0.005 C 
BRANCH  15  16
ATOM     16  C   UNL d   1      58.651  -0.466  29.782  0.00  0.00     0.062 C 
BRANCH  16  17
ATOM     17  C   UNL d   1      58.770  -1.177  29.378  0.00  0.00     0.279 C 
ATOM     18  N   UNL d   1      59.312  -1.732  29.668  0.00  0.00    -0.208 NA
ATOM     19  O   UNL d   1      58.347  -1.330  28.686  0.00  0.00    -0.265 OA
BRANCH  18  20
ATOM     20  C   UNL d   1      59.429  -2.436  29.265  0.00  0.00     0.085 A 
ATOM     21  C   UNL d   1      60.192  -2.671  29.078  0.00  0.00     0.019 A 
ATOM     22  C   UNL d   1      60.313  -3.381  28.671  0.00  0.00     0.002 A 
ATOM     23  C   UNL d   1      59.662  -3.848  28.456  0.00  0.00     0.000 A 
ATOM     24  C   UNL d   1      58.901  -3.604  28.647  0.00  0.00     0.002 A 
ATOM     25  C   UNL d   1      58.780  -2.899  29.051  0.00  0.00     0.019 A 
ENDBRANCH  18  20
ENDBRANCH  16  17
ENDBRANCH  15  16
ENDBRANCH  14  15
ENDBRANCH  13  14
ENDBRANCH  12  13
ENDBRANCH   1  12
BRANCH   3  26
ATOM     26  C   UNL d   1      55.705   0.658  34.012  0.00  0.00     0.147 C 
BRANCH  26  27
ATOM     27  C   UNL d   1      55.091   0.138  33.808  0.00  0.00     0.297 C 
ATOM     28  O   UNL d   1      54.445   0.398  33.380  0.00  0.00    -0.264 OA
ATOM     29  N   UNL d   1      55.133  -0.665  34.042  0.00  0.00    -0.203 NA
BRANCH  29  30
ATOM     30  C   UNL d   1      54.517  -1.194  33.839  0.00  0.00     0.129 C 
BRANCH  30  31
ATOM     31  C   UNL d   1      54.663  -2.005  33.802  0.00  0.00     0.137 C 
BRANCH  31  32
ATOM     32  O   UNL d   1      55.261  -2.298  33.322  0.00  0.00    -0.325 OA
ATOM     33  C   UNL d   1      55.072  -2.657  32.604  0.00  0.00     0.182 C 
ENDBRANCH  31  32
ENDBRANCH  30  31
ENDBRANCH  29  30
ENDBRANCH  26  27
ENDBRANCH   3  26
TORSDOF 12
ENDMDL
