MODEL 1
REMARK VINA RESULT:      -9.3      0.000      0.000
REMARK  2 active torsions:
REMARK  status: ('A' for Active; 'I' for Inactive)
REMARK    1  A    between atoms: C_4  and  N_2 
REMARK    2  A    between atoms: C_7  and  C_4 
REMARK       I    between atoms: N_8  and  C_7 
ROOT
ATOM      1  S   UNL d   1      53.017  34.561  54.262  0.00  0.00     0.274 S 
ATOM      2  N   UNL d   1      52.460  34.085  53.906  0.00  0.00    -0.192 N 
ATOM      3  C   UNL d   1      52.697  33.299  53.956  0.00  0.00     0.275 A 
ATOM      4  C   UNL d   1      53.429  33.280  54.357  0.00  0.00     0.069 A 
ATOM      5  C   UNL d   1      53.629  34.071  54.549  0.00  0.00     0.109 A 
ATOM      6  O   UNL d   1      52.415  35.054  53.981  0.00  0.00    -0.200 OA
ATOM      7  O   UNL d   1      53.456  35.196  54.570  0.00  0.00    -0.200 OA
ATOM      8  O   UNL d   1      52.276  32.637  53.656  0.00  0.00    -0.266 OA
ATOM      9  C   UNL d   1      53.921  32.674  54.567  0.00  0.00     0.005 A 
ATOM     10  C   UNL d   1      54.316  34.229  54.944  0.00  0.00     0.013 A 
ATOM     11  C   UNL d   1      54.635  32.842  54.977  0.00  0.00     0.000 A 
ATOM     12  C   UNL d   1      54.832  33.616  55.165  0.00  0.00     0.001 A 
ENDROOT
BRANCH   2  13
ATOM     13  C   UNL d   1      51.771  34.360  53.555  0.00  0.00     0.156 C 
BRANCH  13  14
ATOM     14  C   UNL d   1      51.653  34.247  52.745  0.00  0.00     0.283 C 
ATOM     15  N   UNL d   1      50.904  34.348  52.430  0.00  0.00    -0.271 N 
ATOM     16  C   UNL d   1      50.263  34.559  52.895  0.00  0.00     0.083 A 
ATOM     17  C   UNL d   1      50.790  34.232  51.612  0.00  0.00     0.083 A 
ATOM     18  C   UNL d   1      49.518  34.656  52.564  0.00  0.00     0.019 A 
ATOM     19  C   UNL d   1      49.394  34.544  51.760  0.00  0.00     0.003 A 
ATOM     20  C   UNL d   1      50.041  34.331  51.290  0.00  0.00     0.019 A 
ATOM     21  C   UNL d   1      48.636  34.643  51.423  0.00  0.00     0.000 C 
ATOM     22  O   UNL d   1      52.301  34.032  52.265  0.00  0.00    -0.265 OA
ENDBRANCH  13  14
ENDBRANCH   2  13
TORSDOF 2
ENDMDL
MODEL 2
REMARK VINA RESULT:      -8.1      2.173      3.912
REMARK  2 active torsions:
REMARK  status: ('A' for Active; 'I' for Inactive)
REMARK    1  A    between atoms: C_4  and  N_2 
REMARK    2  A    between atoms: C_7  and  C_4 
REMARK       I    between atoms: N_8  and  C_7 
ROOT
ATOM      1  S   UNL d   1      53.879  33.667  54.769  0.00  0.00     0.274 S 
ATOM      2  N   UNL d   1      53.415  33.074  54.456  0.00  0.00    -0.192 N 
ATOM      3  C   UNL d   1      52.780  33.406  54.052  0.00  0.00     0.275 A 
ATOM      4  C   UNL d   1      52.846  34.236  54.113  0.00  0.00     0.069 A 
ATOM      5  C   UNL d   1      53.534  34.399  54.562  0.00  0.00     0.109 A 
ATOM      6  O   UNL d   1      54.226  32.946  54.978  0.00  0.00    -0.200 OA
ATOM      7  O   UNL d   1      54.462  34.113  55.157  0.00  0.00    -0.200 OA
ATOM      8  O   UNL d   1      52.175  32.982  53.651  0.00  0.00    -0.266 OA
ATOM      9  C   UNL d   1      52.391  34.842  53.832  0.00  0.00     0.005 A 
ATOM     10  C   UNL d   1      53.745  35.164  54.716  0.00  0.00     0.013 A 
ATOM     11  C   UNL d   1      52.612  35.636  53.993  0.00  0.00     0.000 A 
ATOM     12  C   UNL d   1      53.287  35.797  54.433  0.00  0.00     0.001 A 
ENDROOT
BRANCH   2  13
ATOM     13  C   UNL d   1      53.570  32.272  54.538  0.00  0.00     0.156 C 
BRANCH  13  14
ATOM     14  C   UNL d   1      53.635  31.798  53.865  0.00  0.00     0.283 C 
ATOM     15  N   UNL d   1      53.521  30.990  53.929  0.00  0.00    -0.271 N 
ATOM     16  C   UNL d   1      53.343  30.633  54.644  0.00  0.00     0.083 A 
ATOM     17  C   UNL d   1      53.589  30.516  53.246  0.00  0.00     0.083 A 
ATOM     18  C   UNL d   1      53.231  29.821  54.692  0.00  0.00     0.019 A 
ATOM     19  C   UNL d   1      53.295  29.345  54.026  0.00  0.00     0.003 A 
ATOM     20  C   UNL d   1      53.476  29.705  53.303  0.00  0.00     0.019 A 
ATOM     21  C   UNL d   1      53.182  28.519  54.075  0.00  0.00     0.000 C 
ATOM     22  O   UNL d   1      53.818  32.155  53.132  0.00  0.00    -0.265 OA
ENDBRANCH  13  14
ENDBRANCH   2  13
TORSDOF 2
ENDMDL
MODEL 3
REMARK VINA RESULT:      -8.0      2.359      3.588
REMARK  2 active torsions:
REMARK  status: ('A' for Active; 'I' for Inactive)
REMARK    1  A    between atoms: C_4  and  N_2 
REMARK    2  A    between atoms: C_7  and  C_4 
REMARK       I    between atoms: N_8  and  C_7 
ROOT
ATOM      1  S   UNL d   1      52.975  31.333  52.864  0.00  0.00     0.274 S 
ATOM      2  N   UNL d   1      53.206  31.881  53.421  0.00  0.00    -0.192 N 
ATOM      3  C   UNL d   1      53.418  31.496  54.116  0.00  0.00     0.275 A 
ATOM      4  C   UNL d   1      53.317  30.676  53.992  0.00  0.00     0.069 A 
ATOM      5  C   UNL d   1      53.040  30.574  53.208  0.00  0.00     0.109 A 
ATOM      6  O   UNL d   1      52.908  32.080  52.517  0.00  0.00    -0.200 OA
ATOM      7  O   UNL d   1      52.712  30.941  52.181  0.00  0.00    -0.200 OA
ATOM      8  O   UNL d   1      53.687  31.864  54.822  0.00  0.00    -0.266 OA
ATOM      9  C   UNL d   1      53.436  30.033  54.468  0.00  0.00     0.005 A 
ATOM     10  C   UNL d   1      52.890  29.833  52.926  0.00  0.00     0.013 A 
ATOM     11  C   UNL d   1      53.279  29.263  54.171  0.00  0.00     0.000 A 
ATOM     12  C   UNL d   1      53.007  29.163  53.403  0.00  0.00     0.001 A 
ENDROOT
BRANCH   2  13
ATOM     13  C   UNL d   1      53.220  32.692  53.296  0.00  0.00     0.156 C 
BRANCH  13  14
ATOM     14  C   UNL d   1      52.619  33.164  53.610  0.00  0.00     0.283 C 
ATOM     15  N   UNL d   1      52.785  33.936  53.827  0.00  0.00    -0.271 N 
ATOM     16  C   UNL d   1      53.534  34.258  53.742  0.00  0.00     0.083 A 
ATOM     17  C   UNL d   1      52.175  34.408  54.143  0.00  0.00     0.083 A 
ATOM     18  C   UNL d   1      53.685  35.034  53.964  0.00  0.00     0.019 A 
ATOM     19  C   UNL d   1      53.092  35.508  54.277  0.00  0.00     0.003 A 
ATOM     20  C   UNL d   1      52.336  35.183  54.363  0.00  0.00     0.019 A 
ATOM     21  C   UNL d   1      53.246  36.297  54.503  0.00  0.00     0.000 C 
ATOM     22  O   UNL d   1      51.853  32.844  53.699  0.00  0.00    -0.265 OA
ENDBRANCH  13  14
ENDBRANCH   2  13
TORSDOF 2
ENDMDL
MODEL 4
REMARK VINA RESULT:      -7.6      1.084      4.372
REMARK  2 active torsions:
REMARK  status: ('A' for Active; 'I' for Inactive)
REMARK    1  A    between atoms: C_4  and  N_2 
REMARK    2  A    between atoms: C_7  and  C_4 
REMARK       I    between atoms: N_8  and  C_7 
ROOT
ATOM      1  S   UNL d   1      50.321  34.594  53.016  0.00  0.00     0.274 S 
ATOM      2  N   UNL d   1      51.076  34.380  52.798  0.00  0.00    -0.192 N 
ATOM      3  C   UNL d   1      51.095  34.218  51.991  0.00  0.00     0.275 A 
ATOM      4  C   UNL d   1      50.325  34.334  51.691  0.00  0.00     0.069 A 
ATOM      5  C   UNL d   1      49.840  34.570  52.333  0.00  0.00     0.109 A 
ATOM      6  O   UNL d   1      50.791  34.621  53.695  0.00  0.00    -0.200 OA
ATOM      7  O   UNL d   1      49.637  34.829  53.423  0.00  0.00    -0.200 OA
ATOM      8  O   UNL d   1      51.770  33.980  51.552  0.00  0.00    -0.266 OA
ATOM      9  C   UNL d   1      50.010  34.261  50.950  0.00  0.00     0.005 A 
ATOM     10  C   UNL d   1      49.056  34.724  52.212  0.00  0.00     0.013 A 
ATOM     11  C   UNL d   1      49.194  34.422  50.828  0.00  0.00     0.000 A 
ATOM     12  C   UNL d   1      48.719  34.652  51.456  0.00  0.00     0.001 A 
ENDROOT
BRANCH   2  13
ATOM     13  C   UNL d   1      51.714  34.337  53.314  0.00  0.00     0.156 C 
BRANCH  13  14
ATOM     14  C   UNL d   1      52.060  33.604  53.473  0.00  0.00     0.283 C 
ATOM     15  N   UNL d   1      52.759  33.573  53.899  0.00  0.00    -0.271 N 
ATOM     16  C   UNL d   1      53.129  34.251  54.173  0.00  0.00     0.083 A 
ATOM     17  C   UNL d   1      53.104  32.831  54.058  0.00  0.00     0.083 A 
ATOM     18  C   UNL d   1      53.830  34.204  54.598  0.00  0.00     0.019 A 
ATOM     19  C   UNL d   1      54.178  33.478  54.760  0.00  0.00     0.003 A 
ATOM     20  C   UNL d   1      53.805  32.794  54.484  0.00  0.00     0.019 A 
ATOM     21  C   UNL d   1      54.891  33.430  55.193  0.00  0.00     0.000 C 
ATOM     22  O   UNL d   1      51.688  32.909  53.197  0.00  0.00    -0.265 OA
ENDBRANCH  13  14
ENDBRANCH   2  13
TORSDOF 2
ENDMDL
