MODEL 1
REMARK VINA RESULT:      40.2      0.000      0.000
REMARK  5 active torsions:
REMARK  status: ('A' for Active; 'I' for Inactive)
REMARK    1  A    between atoms: C_10  and  N_4 
REMARK    2  A    between atoms: C_12  and  C_10 
REMARK    3  A    between atoms: N_13  and  C_12 
REMARK    4  A    between atoms: C_19  and  N_13 
REMARK    5  A    between atoms: C_20  and  N_13 
ROOT
ATOM      1  C   UNL d   1      14.246  13.539  -2.324  0.00  0.00     0.102 A 
ATOM      2  N   UNL d   1      14.545  14.300  -2.348  0.00  0.00    -0.163 NA
ATOM      3  C   UNL d   1      14.302  13.082  -1.641  0.00  0.00     0.024 A 
ATOM      4  N   UNL d   1      15.004  14.559  -1.346  0.00  0.00    -0.192 N 
ATOM      5  C   UNL d   1      14.981  13.990  -0.760  0.00  0.00     0.280 A 
ATOM      6  C   UNL d   1      14.629  13.250  -0.908  0.00  0.00     0.059 A 
ATOM      7  C   UNL d   1      13.956  12.354  -1.786  0.00  0.00     0.002 A 
ATOM      8  C   UNL d   1      13.859  13.084  -2.895  0.00  0.00     0.019 A 
ATOM      9  C   UNL d   1      13.681  12.351  -2.561  0.00  0.00     0.002 A 
ATOM     10  O   UNL d   1      15.310  14.153  -0.015  0.00  0.00    -0.265 OA
ATOM     11  C   UNL d   1      14.606  12.673  -0.310  0.00  0.00     0.005 A 
ATOM     12  C   UNL d   1      13.931  11.781  -1.200  0.00  0.00     0.000 A 
ATOM     13  C   UNL d   1      13.647  13.241  -3.676  0.00  0.00     0.002 A 
ATOM     14  C   UNL d   1      13.290  11.780  -3.013  0.00  0.00     0.000 A 
ATOM     15  C   UNL d   1      14.260  11.945  -0.455  0.00  0.00     0.000 A 
ATOM     16  C   UNL d   1      13.257  12.671  -4.127  0.00  0.00     0.000 A 
ATOM     17  C   UNL d   1      13.077  11.937  -3.794  0.00  0.00     0.000 A 
ENDROOT
BRANCH   4  18
ATOM     18  C   UNL d   1      15.385  15.222  -1.027  0.00  0.00     0.123 C 
BRANCH  18  19
ATOM     19  C   UNL d   1      14.951  15.909  -0.859  0.00  0.00     0.101 C 
BRANCH  19  20
ATOM     20  N   UNL d   1      15.208  16.643  -1.148  0.00  0.00    -0.301 N 
BRANCH  20  21
ATOM     21  C   UNL d   1      14.854  16.978  -1.806  0.00  0.00     0.080 C 
ATOM     22  C   UNL d   1      15.307  17.197  -2.460  0.00  0.00     0.021 C 
ENDBRANCH  20  21
BRANCH  20  23
ATOM     23  C   UNL d   1      15.828  17.034  -0.764  0.00  0.00     0.080 C 
ATOM     24  C   UNL d   1      15.732  17.816  -0.526  0.00  0.00     0.021 C 
ENDBRANCH  20  23
ENDBRANCH  19  20
ENDBRANCH  18  19
ENDBRANCH   4  18
TORSDOF 5
ENDMDL
MODEL 2
REMARK VINA RESULT:      42.1      1.950      4.033
REMARK  5 active torsions:
REMARK  status: ('A' for Active; 'I' for Inactive)
REMARK    1  A    between atoms: C_10  and  N_4 
REMARK    2  A    between atoms: C_12  and  C_10 
REMARK    3  A    between atoms: N_13  and  C_12 
REMARK    4  A    between atoms: C_19  and  N_13 
REMARK    5  A    between atoms: C_20  and  N_13 
ROOT
ATOM      1  C   UNL d   1      13.959  14.218  -3.375  0.00  0.00     0.102 A 
ATOM      2  N   UNL d   1      14.125  13.879  -2.648  0.00  0.00    -0.163 NA
ATOM      3  C   UNL d   1      13.550  13.799  -3.955  0.00  0.00     0.024 A 
ATOM      4  N   UNL d   1      13.713  12.825  -2.619  0.00  0.00    -0.192 N 
ATOM      5  C   UNL d   1      13.326  12.550  -3.284  0.00  0.00     0.280 A 
ATOM      6  C   UNL d   1      13.244  13.038  -3.953  0.00  0.00     0.059 A 
ATOM      7  C   UNL d   1      13.470  14.279  -4.613  0.00  0.00     0.002 A 
ATOM      8  C   UNL d   1      14.131  14.964  -3.684  0.00  0.00     0.019 A 
ATOM      9  C   UNL d   1      13.828  15.001  -4.450  0.00  0.00     0.002 A 
ATOM     10  O   UNL d   1      13.013  11.780  -3.290  0.00  0.00    -0.265 OA
ATOM     11  C   UNL d   1      12.850  12.756  -4.629  0.00  0.00     0.005 A 
ATOM     12  C   UNL d   1      13.082  14.007  -5.283  0.00  0.00     0.000 A 
ATOM     13  C   UNL d   1      14.525  15.615  -3.366  0.00  0.00     0.002 A 
ATOM     14  C   UNL d   1      13.922  15.692  -4.894  0.00  0.00     0.000 A 
ATOM     15  C   UNL d   1      12.770  13.236  -5.288  0.00  0.00     0.000 A 
ATOM     16  C   UNL d   1      14.619  16.305  -3.810  0.00  0.00     0.000 A 
ATOM     17  C   UNL d   1      14.316  16.344  -4.577  0.00  0.00     0.000 A 
ENDROOT
BRANCH   4  18
ATOM     18  C   UNL d   1      13.699  12.214  -2.059  0.00  0.00     0.123 C 
BRANCH  18  19
ATOM     19  C   UNL d   1      14.384  12.032  -1.626  0.00  0.00     0.101 C 
BRANCH  19  20
ATOM     20  N   UNL d   1      14.347  11.969  -0.801  0.00  0.00    -0.301 N 
BRANCH  20  21
ATOM     21  C   UNL d   1      15.016  12.089  -0.344  0.00  0.00     0.080 C 
ATOM     22  C   UNL d   1      15.254  12.853  -0.141  0.00  0.00     0.021 C 
ENDBRANCH  20  21
BRANCH  20  23
ATOM     23  C   UNL d   1      13.626  11.781  -0.440  0.00  0.00     0.080 C 
ATOM     24  C   UNL d   1      13.219  12.357  -0.016  0.00  0.00     0.021 C 
ENDBRANCH  20  23
ENDBRANCH  19  20
ENDBRANCH  18  19
ENDBRANCH   4  18
TORSDOF 5
ENDMDL
MODEL 3
REMARK VINA RESULT:      43.1      1.803      3.025
REMARK  5 active torsions:
REMARK  status: ('A' for Active; 'I' for Inactive)
REMARK    1  A    between atoms: C_10  and  N_4 
REMARK    2  A    between atoms: C_12  and  C_10 
REMARK    3  A    between atoms: N_13  and  C_12 
REMARK    4  A    between atoms: C_19  and  N_13 
REMARK    5  A    between atoms: C_20  and  N_13 
ROOT
ATOM      1  C   UNL d   1      14.173  13.528  -2.568  0.00  0.00     0.102 A 
ATOM      2  N   UNL d   1      14.402  14.285  -2.779  0.00  0.00    -0.163 NA
ATOM      3  C   UNL d   1      13.699  13.074  -3.067  0.00  0.00     0.024 A 
ATOM      4  N   UNL d   1      13.974  14.541  -3.795  0.00  0.00    -0.192 N 
ATOM      5  C   UNL d   1      13.517  13.975  -4.168  0.00  0.00     0.280 A 
ATOM      6  C   UNL d   1      13.380  13.240  -3.803  0.00  0.00     0.059 A 
ATOM      7  C   UNL d   1      13.564  12.350  -2.708  0.00  0.00     0.002 A 
ATOM      8  C   UNL d   1      14.328  13.076  -1.895  0.00  0.00     0.019 A 
ATOM      9  C   UNL d   1      13.951  12.347  -1.982  0.00  0.00     0.002 A 
ATOM     10  O   UNL d   1      13.190  14.137  -4.914  0.00  0.00    -0.265 OA
ATOM     11  C   UNL d   1      12.915  12.666  -4.184  0.00  0.00     0.005 A 
ATOM     12  C   UNL d   1      13.106  11.780  -3.079  0.00  0.00     0.000 A 
ATOM     13  C   UNL d   1      14.765  13.232  -1.213  0.00  0.00     0.002 A 
ATOM     14  C   UNL d   1      14.015  11.779  -1.384  0.00  0.00     0.000 A 
ATOM     15  C   UNL d   1      12.780  11.943  -3.826  0.00  0.00     0.000 A 
ATOM     16  C   UNL d   1      14.828  12.665  -0.617  0.00  0.00     0.000 A 
ATOM     17  C   UNL d   1      14.451  11.936  -0.702  0.00  0.00     0.000 A 
ENDROOT
BRANCH   4  18
ATOM     18  C   UNL d   1      14.003  15.200  -4.296  0.00  0.00     0.123 C 
BRANCH  18  19
ATOM     19  C   UNL d   1      14.357  15.905  -4.036  0.00  0.00     0.101 C 
BRANCH  19  20
ATOM     20  N   UNL d   1      14.693  16.427  -4.585  0.00  0.00    -0.301 N 
BRANCH  20  21
ATOM     21  C   UNL d   1      14.386  16.489  -5.342  0.00  0.00     0.080 C 
ATOM     22  C   UNL d   1      14.047  17.195  -5.600  0.00  0.00     0.021 C 
ENDBRANCH  20  21
BRANCH  20  23
ATOM     23  C   UNL d   1      15.344  16.887  -4.361  0.00  0.00     0.080 C 
ATOM     24  C   UNL d   1      15.399  17.169  -3.590  0.00  0.00     0.021 C 
ENDBRANCH  20  23
ENDBRANCH  19  20
ENDBRANCH  18  19
ENDBRANCH   4  18
TORSDOF 5
ENDMDL
