MODEL 1
REMARK VINA RESULT:      30.0      0.000      0.000
REMARK  4 active torsions:
REMARK  status: ('A' for Active; 'I' for Inactive)
REMARK    1  A    between atoms: C_10  and  N_3 
REMARK    2  A    between atoms: C_12  and  N_7 
REMARK    3  A    between atoms: C_19  and  C_12 
REMARK    4  A    between atoms: C_20  and  C_19 
ROOT
ATOM      1  C   UNL d   1      14.230  12.911  -2.144  0.00  0.00     0.172 A 
ATOM      2  C   UNL d   1      14.261  12.670  -1.356  0.00  0.00     0.113 A 
ATOM      3  N   UNL d   1      13.777  12.352  -2.557  0.00  0.00    -0.212 N 
ATOM      4  N   UNL d   1      14.613  13.597  -2.382  0.00  0.00    -0.206 NA
ATOM      5  C   UNL d   1      14.673  13.116  -0.805  0.00  0.00     0.270 A 
ATOM      6  N   UNL d   1      13.537  11.781  -2.022  0.00  0.00    -0.162 NA
ATOM      7  N   UNL d   1      15.061  13.809  -1.039  0.00  0.00    -0.255 N 
ATOM      8  C   UNL d   1      13.825  11.967  -1.295  0.00  0.00     0.129 A 
ATOM      9  C   UNL d   1      15.031  14.049  -1.828  0.00  0.00     0.187 A 
ATOM     10  O   UNL d   1      14.704  12.875  -0.016  0.00  0.00    -0.266 OA
ENDROOT
BRANCH   3  11
ATOM     11  C   UNL d   1      13.582  12.336  -3.347  0.00  0.00     0.085 A 
ATOM     12  C   UNL d   1      14.001  11.848  -3.866  0.00  0.00     0.021 A 
ATOM     13  C   UNL d   1      13.803  11.834  -4.664  0.00  0.00     0.031 A 
ATOM     14  C   UNL d   1      13.199  12.292  -4.957  0.00  0.00     0.140 A 
ATOM     15  C   UNL d   1      12.770  12.790  -4.429  0.00  0.00     0.031 A 
ATOM     16  F   UNL d   1      13.011  12.264  -5.774  0.00  0.00    -0.204 F 
ATOM     17  C   UNL d   1      12.960  12.810  -3.634  0.00  0.00     0.021 A 
ENDBRANCH   3  11
BRANCH   7  18
ATOM     18  C   UNL d   1      15.483  14.268  -0.485  0.00  0.00     0.085 C 
BRANCH  18  19
ATOM     19  C   UNL d   1      15.149  14.965  -0.181  0.00  0.00     0.019 C 
BRANCH  19  20
ATOM     20  C   UNL d   1      15.575  15.678  -0.236  0.00  0.00     0.002 C 
ATOM     21  C   UNL d   1      15.161  16.387  -0.302  0.00  0.00     0.000 C 
ATOM     22  C   UNL d   1      16.392  15.672  -0.223  0.00  0.00     0.000 C 
ENDBRANCH  19  20
ENDBRANCH  18  19
ENDBRANCH   7  18
TORSDOF 4
ENDMDL
