MODEL 1
REMARK VINA RESULT:      -4.9      0.000      0.000
REMARK  7 active torsions:
REMARK  status: ('A' for Active; 'I' for Inactive)
REMARK    1  A    between atoms: C_13  and  N_1 
REMARK    2  A    between atoms: C_2  and  N_6 
REMARK    3  A    between atoms: C_8  and  C_5 
REMARK       I    between atoms: N_6  and  C_8 
REMARK    4  A    between atoms: S_20  and  C_9 
REMARK    5  A    between atoms: C_14  and  C_19 
REMARK    6  A    between atoms: C_19  and  C_23 
REMARK    7  A    between atoms: C_23  and  S_20 
ROOT
ATOM      1  N   UNL d   1      57.699   0.599  30.907  0.00  0.00    -0.181 NA
ATOM      2  C   UNL d   1      57.407   0.041  31.350  0.00  0.00     0.283 C 
ATOM      3  O   UNL d   1      57.318  -0.669  31.065  0.00  0.00    -0.265 OA
ENDROOT
BRANCH   2   4
ATOM      4  C   UNL d   1      57.207   0.194  32.074  0.00  0.00     0.080 A 
ATOM      5  C   UNL d   1      56.495   0.203  32.358  0.00  0.00     0.088 A 
ATOM      6  N   UNL d   1      56.538   0.380  33.105  0.00  0.00    -0.273 N 
ATOM      7  C   UNL d   1      57.274   0.480  33.281  0.00  0.00     0.265 A 
ATOM      8  C   UNL d   1      57.695   0.365  32.643  0.00  0.00     0.067 A 
ATOM      9  O   UNL d   1      57.554   0.665  33.979  0.00  0.00    -0.267 OA
BRANCH   6  10
ATOM     10  C   UNL d   1      55.894   0.449  33.625  0.00  0.00     0.067 A 
ATOM     11  C   UNL d   1      56.032   0.489  34.439  0.00  0.00     0.020 A 
ATOM     12  C   UNL d   1      55.385   0.558  34.949  0.00  0.00     0.031 A 
ATOM     13  C   UNL d   1      54.620   0.587  34.658  0.00  0.00     0.140 A 
ATOM     14  C   UNL d   1      54.490   0.547  33.839  0.00  0.00     0.031 A 
ATOM     15  F   UNL d   1      53.970   0.657  35.175  0.00  0.00    -0.204 F 
ATOM     16  C   UNL d   1      55.119   0.479  33.330  0.00  0.00     0.020 A 
ENDBRANCH   6  10
ENDBRANCH   2   4
BRANCH   1  17
ATOM     17  C   UNL d   1      57.902   0.451  30.180  0.00  0.00     0.219 A 
ATOM     18  S   UNL d   1      58.524   0.057  29.954  0.00  0.00    -0.019 SA
ATOM     19  C   UNL d   1      58.525   0.034  29.192  0.00  0.00     0.165 A 
ATOM     20  N   UNL d   1      57.907   0.411  28.930  0.00  0.00    -0.133 NA
ATOM     21  N   UNL d   1      57.515   0.674  29.552  0.00  0.00    -0.120 NA
BRANCH  19  22
ATOM     22  S   UNL d   1      59.810  -0.790  28.455  0.00  0.00    -0.059 SA
BRANCH  22  23
ATOM     23  C   UNL d   1      60.347  -1.217  28.914  0.00  0.00     0.042 C 
BRANCH  23  24
ATOM     24  C   UNL d   1      60.826  -1.792  28.559  0.00  0.00     0.058 C 
BRANCH  24  25
ATOM     25  C   UNL d   1      60.909  -2.526  28.928  0.00  0.00     0.204 A 
ATOM     26  O   UNL d   1      60.979  -3.259  28.544  0.00  0.00    -0.281 OA
ATOM     27  C   UNL d   1      61.049  -3.844  29.129  0.00  0.00     0.152 A 
ATOM     28  C   UNL d   1      61.022  -3.471  29.868  0.00  0.00     0.152 A 
ATOM     29  O   UNL d   1      60.935  -2.658  29.748  0.00  0.00    -0.281 OA
ENDBRANCH  24  25
ENDBRANCH  23  24
ENDBRANCH  22  23
ENDBRANCH  19  22
ENDBRANCH   1  17
TORSDOF 7
ENDMDL
MODEL 2
REMARK VINA RESULT:      -3.0      2.575      6.701
REMARK  7 active torsions:
REMARK  status: ('A' for Active; 'I' for Inactive)
REMARK    1  A    between atoms: C_13  and  N_1 
REMARK    2  A    between atoms: C_2  and  N_6 
REMARK    3  A    between atoms: C_8  and  C_5 
REMARK       I    between atoms: N_6  and  C_8 
REMARK    4  A    between atoms: S_20  and  C_9 
REMARK    5  A    between atoms: C_14  and  C_19 
REMARK    6  A    between atoms: C_19  and  C_23 
REMARK    7  A    between atoms: C_23  and  S_20 
ROOT
ATOM      1  N   UNL d   1      58.532  -0.848  30.117  0.00  0.00    -0.181 NA
ATOM      2  C   UNL d   1      58.707  -0.955  29.374  0.00  0.00     0.283 C 
ATOM      3  O   UNL d   1      58.297  -0.600  28.827  0.00  0.00    -0.265 OA
ENDROOT
BRANCH   2   4
ATOM      4  C   UNL d   1      59.289  -1.415  29.181  0.00  0.00     0.080 A 
ATOM      5  C   UNL d   1      59.315  -2.177  29.261  0.00  0.00     0.088 A 
ATOM      6  N   UNL d   1      59.996  -2.421  29.000  0.00  0.00    -0.273 N 
ATOM      7  C   UNL d   1      60.389  -1.812  28.761  0.00  0.00     0.265 A 
ATOM      8  C   UNL d   1      59.954  -1.182  28.871  0.00  0.00     0.067 A 
ATOM      9  O   UNL d   1      61.102  -1.820  28.458  0.00  0.00    -0.267 OA
BRANCH   6  10
ATOM     10  C   UNL d   1      60.255  -3.211  28.984  0.00  0.00     0.067 A 
ATOM     11  C   UNL d   1      60.874  -3.445  29.478  0.00  0.00     0.020 A 
ATOM     12  C   UNL d   1      61.125  -4.233  29.455  0.00  0.00     0.031 A 
ATOM     13  C   UNL d   1      60.768  -4.774  28.954  0.00  0.00     0.140 A 
ATOM     14  C   UNL d   1      60.147  -4.530  28.461  0.00  0.00     0.031 A 
ATOM     15  F   UNL d   1      61.024  -5.567  28.933  0.00  0.00    -0.204 F 
ATOM     16  C   UNL d   1      59.893  -3.759  28.476  0.00  0.00     0.020 A 
ENDBRANCH   6  10
ENDBRANCH   2   4
BRANCH   1  17
ATOM     17  C   UNL d   1      57.949  -0.387  30.315  0.00  0.00     0.219 A 
ATOM     18  S   UNL d   1      57.700  -0.254  31.032  0.00  0.00    -0.019 SA
ATOM     19  C   UNL d   1      57.115   0.233  30.991  0.00  0.00     0.165 A 
ATOM     20  N   UNL d   1      56.988   0.411  30.253  0.00  0.00    -0.133 NA
ATOM     21  N   UNL d   1      57.514   0.020  29.828  0.00  0.00    -0.120 NA
BRANCH  19  22
ATOM     22  S   UNL d   1      56.392   0.681  32.458  0.00  0.00    -0.059 SA
BRANCH  22  23
ATOM     23  C   UNL d   1      56.043   0.110  32.941  0.00  0.00     0.042 C 
BRANCH  23  24
ATOM     24  C   UNL d   1      55.297   0.250  33.272  0.00  0.00     0.058 C 
BRANCH  24  25
ATOM     25  C   UNL d   1      55.231   0.323  34.092  0.00  0.00     0.204 A 
ATOM     26  O   UNL d   1      54.570   0.611  34.504  0.00  0.00    -0.281 OA
ATOM     27  C   UNL d   1      54.749   0.585  35.315  0.00  0.00     0.152 A 
ATOM     28  C   UNL d   1      55.516   0.284  35.398  0.00  0.00     0.152 A 
ATOM     29  O   UNL d   1      55.817   0.121  34.646  0.00  0.00    -0.281 OA
ENDBRANCH  24  25
ENDBRANCH  23  24
ENDBRANCH  22  23
ENDBRANCH  19  22
ENDBRANCH   1  17
TORSDOF 7
ENDMDL
