MODEL 1
REMARK VINA RESULT:     -10.1      0.000      0.000
REMARK  3 active torsions:
REMARK  status: ('A' for Active; 'I' for Inactive)
REMARK    1  A    between atoms: N_11  and  C_4 
REMARK       I    between atoms: C_5  and  N_9 
REMARK       I    between atoms: N_12  and  C_5 
REMARK    2  A    between atoms: C_6  and  C_7 
REMARK    3  A    between atoms: C_14  and  N_12 
ROOT
ATOM      1  C   UNL d   1      52.021  33.625  52.915  0.00  0.00     0.354 C 
ATOM      2  N   UNL d   1      51.281  33.955  52.721  0.00  0.00    -0.253 N 
ATOM      3  N   UNL d   1      49.821  34.611  52.349  0.00  0.00    -0.285 N 
ATOM      4  N   UNL d   1      52.382  33.805  53.635  0.00  0.00    -0.192 NA
ATOM      5  O   UNL d   1      52.396  33.113  52.381  0.00  0.00    -0.244 OA
ATOM      6  C   UNL d   1      50.908  34.464  53.252  0.00  0.00     0.104 A 
ATOM      7  C   UNL d   1      50.921  33.774  52.000  0.00  0.00     0.104 A 
ATOM      8  C   UNL d   1      50.175  34.792  53.063  0.00  0.00     0.101 A 
ATOM      9  C   UNL d   1      50.194  34.102  51.817  0.00  0.00     0.101 A 
ENDROOT
BRANCH   4  10
ATOM     10  C   UNL d   1      53.115  33.476  53.824  0.00  0.00     0.090 A 
ATOM     11  C   UNL d   1      53.574  33.808  54.424  0.00  0.00     0.089 A 
ATOM     12  C   UNL d   1      54.305  33.479  54.611  0.00  0.00     0.005 A 
ATOM     13  C   UNL d   1      54.577  32.823  54.201  0.00  0.00     0.000 A 
ATOM     14  C   UNL d   1      54.114  32.491  53.598  0.00  0.00     0.002 A 
ATOM     15  C   UNL d   1      53.388  32.820  53.415  0.00  0.00     0.019 A 
BRANCH  11  16
ATOM     16  C   UNL d   1      53.300  34.469  54.836  0.00  0.00     0.420 C 
ATOM     17  F   UNL d   1      53.026  35.129  55.248  0.00  0.00    -0.166 F 
ATOM     18  F   UNL d   1      52.908  33.977  55.364  0.00  0.00    -0.166 F 
ATOM     19  F   UNL d   1      53.695  34.963  54.306  0.00  0.00    -0.166 F 
ENDBRANCH  11  16
ENDBRANCH   4  10
BRANCH   3  20
ATOM     20  C   UNL d   1      49.088  34.940  52.160  0.00  0.00     0.168 A 
ATOM     21  N   UNL d   1      48.714  35.450  52.690  0.00  0.00    -0.144 NA
ATOM     22  N   UNL d   1      47.985  35.775  52.500  0.00  0.00    -0.187 N 
ATOM     23  C   UNL d   1      47.626  35.594  51.780  0.00  0.00     0.187 A 
ATOM     24  C   UNL d   1      47.486  36.289  52.903  0.00  0.00     0.224 A 
ATOM     25  N   UNL d   1      46.907  35.997  51.743  0.00  0.00    -0.127 NA
ATOM     26  C   UNL d   1      47.996  35.087  51.250  0.00  0.00     0.044 A 
ATOM     27  N   UNL d   1      46.828  36.427  52.446  0.00  0.00    -0.124 NA
ATOM     28  C   UNL d   1      48.729  34.758  51.440  0.00  0.00     0.042 A 
ENDBRANCH   3  20
TORSDOF 3
ENDMDL
MODEL 2
REMARK VINA RESULT:      -9.6      2.056      5.552
REMARK  3 active torsions:
REMARK  status: ('A' for Active; 'I' for Inactive)
REMARK    1  A    between atoms: N_11  and  C_4 
REMARK       I    between atoms: C_5  and  N_9 
REMARK       I    between atoms: N_12  and  C_5 
REMARK    2  A    between atoms: C_6  and  C_7 
REMARK    3  A    between atoms: C_14  and  N_12 
ROOT
ATOM      1  C   UNL d   1      49.485  34.739  52.188  0.00  0.00     0.354 C 
ATOM      2  N   UNL d   1      50.187  34.410  52.495  0.00  0.00    -0.253 N 
ATOM      3  N   UNL d   1      51.566  33.765  53.112  0.00  0.00    -0.285 N 
ATOM      4  N   UNL d   1      48.937  35.095  52.693  0.00  0.00    -0.192 NA
ATOM      5  O   UNL d   1      49.340  34.708  51.373  0.00  0.00    -0.244 OA
ATOM      6  C   UNL d   1      50.332  34.441  53.307  0.00  0.00     0.104 A 
ATOM      7  C   UNL d   1      50.736  34.054  51.991  0.00  0.00     0.104 A 
ATOM      8  C   UNL d   1      51.025  34.116  53.614  0.00  0.00     0.101 A 
ATOM      9  C   UNL d   1      51.422  33.734  52.301  0.00  0.00     0.101 A 
ENDROOT
BRANCH   4  10
ATOM     10  C   UNL d   1      48.243  35.419  52.384  0.00  0.00     0.090 A 
ATOM     11  C   UNL d   1      47.777  35.916  52.851  0.00  0.00     0.089 A 
ATOM     12  C   UNL d   1      47.086  36.238  52.543  0.00  0.00     0.005 A 
ATOM     13  C   UNL d   1      46.860  36.068  51.773  0.00  0.00     0.000 A 
ATOM     14  C   UNL d   1      47.330  35.568  51.306  0.00  0.00     0.002 A 
ATOM     15  C   UNL d   1      48.017  35.249  51.615  0.00  0.00     0.019 A 
BRANCH  11  16
ATOM     16  C   UNL d   1      48.004  36.087  53.625  0.00  0.00     0.420 C 
ATOM     17  F   UNL d   1      48.232  36.259  54.400  0.00  0.00    -0.166 F 
ATOM     18  F   UNL d   1      48.465  36.709  53.352  0.00  0.00    -0.166 F 
ATOM     19  F   UNL d   1      47.541  35.462  53.900  0.00  0.00    -0.166 F 
ENDBRANCH  11  16
ENDBRANCH   4  10
BRANCH   3  20
ATOM     20  C   UNL d   1      52.260  33.440  53.420  0.00  0.00     0.168 A 
ATOM     21  N   UNL d   1      52.692  33.851  53.990  0.00  0.00    -0.144 NA
ATOM     22  N   UNL d   1      53.382  33.526  54.294  0.00  0.00    -0.187 N 
ATOM     23  C   UNL d   1      53.644  32.789  54.031  0.00  0.00     0.187 A 
ATOM     24  C   UNL d   1      53.920  33.794  54.854  0.00  0.00     0.224 A 
ATOM     25  N   UNL d   1      54.342  32.607  54.430  0.00  0.00    -0.127 NA
ATOM     26  C   UNL d   1      53.216  32.378  53.463  0.00  0.00     0.044 A 
ATOM     27  N   UNL d   1      54.507  33.238  54.940  0.00  0.00    -0.124 NA
ATOM     28  C   UNL d   1      52.522  32.703  53.156  0.00  0.00     0.042 A 
ENDBRANCH   3  20
TORSDOF 3
ENDMDL
