MODEL 1
REMARK VINA RESULT:      66.1      0.000      0.000
REMARK  6 active torsions:
REMARK  status: ('A' for Active; 'I' for Inactive)
REMARK    1  A    between atoms: C_3  and  C_1 
REMARK    2  A    between atoms: N_9  and  C_3 
REMARK    3  A    between atoms: C_13  and  C_3 
REMARK    4  A    between atoms: N_4  and  C_10 
REMARK    5  A    between atoms: C_19  and  C_8 
REMARK    6  A    between atoms: C_15  and  N_9 
ROOT
ATOM      1  C   UNL d   1     -51.681  25.849  34.354  0.00  0.00     0.125 C 
ENDROOT
BRANCH   1   2
ATOM      2  C   UNL d   1     -51.726  25.074  34.035  0.00  0.00     0.161 A 
ATOM      3  C   UNL d   1     -51.050  24.666  33.829  0.00  0.00     0.258 A 
ATOM      4  C   UNL d   1     -51.109  23.898  33.513  0.00  0.00     0.238 A 
ATOM      5  O   UNL d   1     -50.289  25.009  33.931  0.00  0.00    -0.281 OA
ATOM      6  O   UNL d   1     -50.433  23.491  33.307  0.00  0.00    -0.283 OA
ATOM      7  C   UNL d   1     -51.850  23.550  33.409  0.00  0.00     0.073 A 
ATOM      8  C   UNL d   1     -52.527  23.958  33.615  0.00  0.00     0.146 A 
ATOM      9  O   UNL d   1     -52.472  24.719  33.928  0.00  0.00    -0.299 OA
BRANCH   8  10
ATOM     10  C   UNL d   1     -53.272  23.604  33.508  0.00  0.00     0.259 C 
ATOM     11  O   UNL d   1     -53.929  24.053  33.306  0.00  0.00    -0.281 OA
ENDBRANCH   8  10
ENDBRANCH   1   2
BRANCH   1  12
ATOM     12  N   UNL d   1     -52.129  26.060  35.002  0.00  0.00    -0.242 NA
BRANCH  12  13
ATOM     13  C   UNL d   1     -51.775  26.235  35.712  0.00  0.00     0.083 A 
ATOM     14  C   UNL d   1     -52.119  25.963  36.418  0.00  0.00     0.043 A 
ATOM     15  C   UNL d   1     -51.765  26.136  37.147  0.00  0.00     0.128 A 
ATOM     16  C   UNL d   1     -51.077  26.574  37.172  0.00  0.00     0.024 A 
ATOM     17  C   UNL d   1     -50.733  26.845  36.469  0.00  0.00     0.003 A 
ATOM     18  C   UNL d   1     -51.087  26.673  35.737  0.00  0.00     0.019 A 
BRANCH  15  19
ATOM     19  N   UNL d   1     -52.098  25.870  37.854  0.00  0.00    -0.114 N 
ATOM     20  O   UNL d   1     -52.120  25.069  38.088  0.00  0.00    -0.532 OA
ATOM     21  O   UNL d   1     -52.448  26.358  38.412  0.00  0.00    -0.532 OA
ENDBRANCH  15  19
ENDBRANCH  12  13
ENDBRANCH   1  12
BRANCH   1  22
ATOM     22  C   UNL d   1     -51.173  26.402  34.003  0.00  0.00     0.101 A 
ATOM     23  N   UNL d   1     -50.356  26.254  33.967  0.00  0.00    -0.242 NA
ATOM     24  C   UNL d   1     -49.852  26.806  33.617  0.00  0.00     0.099 A 
ATOM     25  C   UNL d   1     -50.154  27.497  33.307  0.00  0.00     0.021 A 
ATOM     26  C   UNL d   1     -50.958  27.631  33.349  0.00  0.00     0.003 A 
ATOM     27  C   UNL d   1     -51.461  27.098  33.689  0.00  0.00     0.021 A 
ENDBRANCH   1  22
TORSDOF 6
ENDMDL
