MODEL 1
REMARK VINA RESULT:      32.5      0.000      0.000
REMARK  2 active torsions:
REMARK  status: ('A' for Active; 'I' for Inactive)
REMARK    1  A    between atoms: O_3  and  C_1 
REMARK    2  A    between atoms: C_2  and  O_3 
REMARK       I    between atoms: N_7  and  C_2 
ROOT
ATOM      1  C   UNL d   1      13.581  13.010  -2.762  0.00  0.00     0.129 A 
ATOM      2  C   UNL d   1      13.492  13.395  -3.487  0.00  0.00     0.105 A 
ATOM      3  C   UNL d   1      13.234  12.991  -4.149  0.00  0.00     0.026 A 
ATOM      4  C   UNL d   1      13.399  12.197  -2.722  0.00  0.00     0.059 A 
ATOM      5  C   UNL d   1      13.058  12.195  -4.102  0.00  0.00     0.037 A 
ATOM      6  C   UNL d   1      13.144  11.800  -3.375  0.00  0.00     0.015 A 
ATOM      7  N   UNL d   1      13.672  14.205  -3.532  0.00  0.00    -0.242 NA
ATOM      8 BR   UNL d   1      13.474  11.779  -2.020  0.00  0.00    -0.047 Br
ATOM      9 BR   UNL d   1      12.792  11.780  -4.783  0.00  0.00    -0.049 Br
ATOM     10  C   UNL d   1      13.150  13.384  -4.862  0.00  0.00     0.004 A 
ATOM     11  C   UNL d   1      13.588  14.602  -4.251  0.00  0.00     0.099 A 
ATOM     12  C   UNL d   1      13.327  14.195  -4.919  0.00  0.00     0.021 A 
ENDROOT
BRANCH   1  13
ATOM     13  O   UNL d   1      13.842  13.418  -2.092  0.00  0.00    -0.257 OA
BRANCH  13  14
ATOM     14  C   UNL d   1      14.455  13.128  -1.681  0.00  0.00     0.378 C 
ATOM     15  N   UNL d   1      14.855  13.637  -1.113  0.00  0.00    -0.252 N 
ATOM     16  C   UNL d   1      14.610  14.397  -0.999  0.00  0.00     0.085 A 
ATOM     17  C   UNL d   1      15.503  13.336  -0.675  0.00  0.00     0.085 A 
ATOM     18  C   UNL d   1      14.996  14.890  -0.450  0.00  0.00     0.019 A 
ATOM     19  C   UNL d   1      15.625  14.620  -0.015  0.00  0.00     0.003 A 
ATOM     20  C   UNL d   1      15.880  13.817  -0.138  0.00  0.00     0.019 A 
ATOM     21  O   UNL d   1      14.704  12.369  -1.790  0.00  0.00    -0.237 OA
ENDBRANCH  13  14
ENDBRANCH   1  13
TORSDOF 2
ENDMDL
