MODEL 1
REMARK VINA RESULT:      -3.5      0.000      0.000
REMARK  2 active torsions:
REMARK  status: ('A' for Active; 'I' for Inactive)
REMARK       I    between atoms: N_3  and  C_1 
REMARK    1  A    between atoms: O_4  and  C_1 
REMARK    2  A    between atoms: C_6  and  O_4 
ROOT
ATOM      1  C   UNL d   1      32.908  22.124 -22.087  0.00  0.00     0.105 A 
ATOM      2  C   UNL d   1      32.622  22.710 -21.586  0.00  0.00     0.030 A 
ATOM      3  C   UNL d   1      32.899  21.322 -21.844  0.00  0.00     0.122 A 
ATOM      4  N   UNL d   1      33.206  22.323 -22.836  0.00  0.00    -0.242 NA
ATOM      5  C   UNL d   1      32.326  22.510 -20.840  0.00  0.00     0.059 A 
ATOM      6  C   UNL d   1      32.604  21.124 -21.104  0.00  0.00     0.027 A 
ATOM      7  C   UNL d   1      32.317  21.708 -20.597  0.00  0.00     0.013 A 
ATOM      8 CL   UNL d   1      32.037  23.099 -20.331  0.00  0.00    -0.082 Cl
ATOM      9  C   UNL d   1      32.631  23.500 -21.826  0.00  0.00     0.004 A 
ATOM     10  C   UNL d   1      33.215  23.113 -23.076  0.00  0.00     0.099 A 
ATOM     11  C   UNL d   1      32.926  23.702 -22.567  0.00  0.00     0.021 A 
ENDROOT
BRANCH   3  12
ATOM     12  O   UNL d   1      33.188  20.726 -22.350  0.00  0.00    -0.257 OA
BRANCH  12  13
ATOM     13  C   UNL d   1      33.209  19.929 -22.100  0.00  0.00     0.378 C 
ATOM     14  N   UNL d   1      33.214  19.319 -22.644  0.00  0.00    -0.247 N 
ATOM     15  C   UNL d   1      33.198  19.488 -23.452  0.00  0.00     0.112 A 
ATOM     16  C   UNL d   1      33.235  18.534 -22.391  0.00  0.00     0.112 A 
ATOM     17  C   UNL d   1      33.204  18.868 -23.994  0.00  0.00     0.142 A 
ATOM     18  O   UNL d   1      33.225  18.088 -23.744  0.00  0.00    -0.300 OA
ATOM     19  C   UNL d   1      33.240  17.920 -22.936  0.00  0.00     0.142 A 
ATOM     20  O   UNL d   1      33.224  19.759 -21.281  0.00  0.00    -0.237 OA
ENDBRANCH  12  13
ENDBRANCH   3  12
TORSDOF 2
ENDMDL
MODEL 2
REMARK VINA RESULT:      -2.9      1.739      3.947
REMARK  2 active torsions:
REMARK  status: ('A' for Active; 'I' for Inactive)
REMARK       I    between atoms: N_3  and  C_1 
REMARK    1  A    between atoms: O_4  and  C_1 
REMARK    2  A    between atoms: C_6  and  O_4 
ROOT
ATOM      1  C   UNL d   1      33.141  19.705 -23.460  0.00  0.00     0.105 A 
ATOM      2  C   UNL d   1      33.167  18.896 -23.604  0.00  0.00     0.030 A 
ATOM      3  C   UNL d   1      33.162  19.992 -22.673  0.00  0.00     0.122 A 
ATOM      4  N   UNL d   1      33.095  20.242 -24.092  0.00  0.00    -0.242 NA
ATOM      5  C   UNL d   1      33.213  18.364 -22.973  0.00  0.00     0.059 A 
ATOM      6  C   UNL d   1      33.208  19.463 -22.047  0.00  0.00     0.027 A 
ATOM      7  C   UNL d   1      33.234  18.650 -22.186  0.00  0.00     0.013 A 
ATOM      8 CL   UNL d   1      33.240  17.546 -23.115  0.00  0.00    -0.082 Cl
ATOM      9  C   UNL d   1      33.147  18.614 -24.379  0.00  0.00     0.004 A 
ATOM     10  C   UNL d   1      33.074  19.959 -24.867  0.00  0.00     0.099 A 
ATOM     11  C   UNL d   1      33.101  19.141 -25.010  0.00  0.00     0.021 A 
ENDROOT
BRANCH   3  12
ATOM     12  O   UNL d   1      33.135  20.813 -22.524  0.00  0.00    -0.257 OA
BRANCH  12  13
ATOM     13  C   UNL d   1      32.833  21.103 -21.801  0.00  0.00     0.378 C 
ATOM     14  N   UNL d   1      32.865  21.901 -21.625  0.00  0.00    -0.247 N 
ATOM     15  C   UNL d   1      33.199  22.430 -22.165  0.00  0.00     0.112 A 
ATOM     16  C   UNL d   1      32.565  22.183 -20.910  0.00  0.00     0.112 A 
ATOM     17  C   UNL d   1      33.227  23.231 -21.980  0.00  0.00     0.142 A 
ATOM     18  O   UNL d   1      32.929  23.512 -21.270  0.00  0.00    -0.300 OA
ATOM     19  C   UNL d   1      32.596  22.984 -20.731  0.00  0.00     0.142 A 
ATOM     20  O   UNL d   1      32.495  20.568 -21.254  0.00  0.00    -0.237 OA
ENDBRANCH  12  13
ENDBRANCH   3  12
TORSDOF 2
ENDMDL
MODEL 3
REMARK VINA RESULT:      -2.6      2.625      4.580
REMARK  2 active torsions:
REMARK  status: ('A' for Active; 'I' for Inactive)
REMARK       I    between atoms: N_3  and  C_1 
REMARK    1  A    between atoms: O_4  and  C_1 
REMARK    2  A    between atoms: C_6  and  O_4 
ROOT
ATOM      1  C   UNL d   1      33.067  21.605 -21.019  0.00  0.00     0.105 A 
ATOM      2  C   UNL d   1      33.107  21.575 -21.840  0.00  0.00     0.030 A 
ATOM      3  C   UNL d   1      33.113  22.341 -20.623  0.00  0.00     0.122 A 
ATOM      4  N   UNL d   1      32.979  20.905 -20.580  0.00  0.00    -0.242 NA
ATOM      5  C   UNL d   1      33.194  22.273 -22.276  0.00  0.00     0.059 A 
ATOM      6  C   UNL d   1      33.199  23.033 -21.056  0.00  0.00     0.027 A 
ATOM      7  C   UNL d   1      33.241  23.009 -21.880  0.00  0.00     0.013 A 
ATOM      8 CL   UNL d   1      33.236  22.247 -23.105  0.00  0.00    -0.082 Cl
ATOM      9  C   UNL d   1      33.062  20.850 -22.231  0.00  0.00     0.004 A 
ATOM     10  C   UNL d   1      32.933  20.180 -20.970  0.00  0.00     0.099 A 
ATOM     11  C   UNL d   1      32.975  20.154 -21.800  0.00  0.00     0.021 A 
ENDROOT
BRANCH   3  12
ATOM     12  O   UNL d   1      33.072  22.374 -19.790  0.00  0.00    -0.257 OA
BRANCH  12  13
ATOM     13  C   UNL d   1      32.533  22.888 -19.411  0.00  0.00     0.378 C 
ATOM     14  N   UNL d   1      32.591  23.039 -18.611  0.00  0.00    -0.247 N 
ATOM     15  C   UNL d   1      33.188  22.681 -18.166  0.00  0.00     0.112 A 
ATOM     16  C   UNL d   1      32.057  23.547 -18.242  0.00  0.00     0.112 A 
ATOM     17  C   UNL d   1      33.241  22.838 -17.360  0.00  0.00     0.142 A 
ATOM     18  O   UNL d   1      32.710  23.343 -16.992  0.00  0.00    -0.300 OA
ATOM     19  C   UNL d   1      32.113  23.701 -17.437  0.00  0.00     0.142 A 
ATOM     20  O   UNL d   1      31.928  23.250 -19.862  0.00  0.00    -0.237 OA
ENDBRANCH  12  13
ENDBRANCH   3  12
TORSDOF 2
ENDMDL
MODEL 4
REMARK VINA RESULT:      -2.4      0.942      1.789
REMARK  2 active torsions:
REMARK  status: ('A' for Active; 'I' for Inactive)
REMARK       I    between atoms: N_3  and  C_1 
REMARK    1  A    between atoms: O_4  and  C_1 
REMARK    2  A    between atoms: C_6  and  O_4 
ROOT
ATOM      1  C   UNL d   1      32.920  21.535 -21.691  0.00  0.00     0.105 A 
ATOM      2  C   UNL d   1      32.818  22.346 -21.601  0.00  0.00     0.030 A 
ATOM      3  C   UNL d   1      33.133  21.219 -22.437  0.00  0.00     0.122 A 
ATOM      4  N   UNL d   1      32.812  21.026 -21.044  0.00  0.00    -0.242 NA
ATOM      5  C   UNL d   1      32.925  22.851 -22.246  0.00  0.00     0.059 A 
ATOM      6  C   UNL d   1      33.240  21.721 -23.077  0.00  0.00     0.027 A 
ATOM      7  C   UNL d   1      33.139  22.536 -22.993  0.00  0.00     0.013 A 
ATOM      8 CL   UNL d   1      32.823  23.671 -22.160  0.00  0.00    -0.082 Cl
ATOM      9  C   UNL d   1      32.607  22.657 -20.866  0.00  0.00     0.004 A 
ATOM     10  C   UNL d   1      32.602  21.336 -20.309  0.00  0.00     0.099 A 
ATOM     11  C   UNL d   1      32.499  22.156 -20.221  0.00  0.00     0.021 A 
ENDROOT
BRANCH   3  12
ATOM     12  O   UNL d   1      33.237  20.396 -22.531  0.00  0.00    -0.257 OA
BRANCH  12  13
ATOM     13  C   UNL d   1      33.235  20.052 -23.292  0.00  0.00     0.378 C 
ATOM     14  N   UNL d   1      33.236  19.240 -23.385  0.00  0.00    -0.247 N 
ATOM     15  C   UNL d   1      33.239  18.750 -22.720  0.00  0.00     0.112 A 
ATOM     16  C   UNL d   1      33.234  18.906 -24.139  0.00  0.00     0.112 A 
ATOM     17  C   UNL d   1      33.240  17.933 -22.821  0.00  0.00     0.142 A 
ATOM     18  O   UNL d   1      33.237  17.599 -23.569  0.00  0.00    -0.300 OA
ATOM     19  C   UNL d   1      33.235  18.090 -24.234  0.00  0.00     0.142 A 
ATOM     20  O   UNL d   1      33.232  20.549 -23.966  0.00  0.00    -0.237 OA
ENDBRANCH  12  13
ENDBRANCH   3  12
TORSDOF 2
ENDMDL
MODEL 5
REMARK VINA RESULT:      -2.3      2.302      4.598
REMARK  2 active torsions:
REMARK  status: ('A' for Active; 'I' for Inactive)
REMARK       I    between atoms: N_3  and  C_1 
REMARK    1  A    between atoms: O_4  and  C_1 
REMARK    2  A    between atoms: C_6  and  O_4 
ROOT
ATOM      1  C   UNL d   1      32.243  17.964 -23.917  0.00  0.00     0.105 A 
ATOM      2  C   UNL d   1      32.142  17.150 -23.980  0.00  0.00     0.030 A 
ATOM      3  C   UNL d   1      32.798  18.277 -23.373  0.00  0.00     0.122 A 
ATOM      4  N   UNL d   1      31.796  18.478 -24.392  0.00  0.00    -0.242 NA
ATOM      5  C   UNL d   1      32.588  16.640 -23.506  0.00  0.00     0.059 A 
ATOM      6  C   UNL d   1      33.240  17.770 -22.903  0.00  0.00     0.027 A 
ATOM      7  C   UNL d   1      33.143  16.953 -22.962  0.00  0.00     0.013 A 
ATOM      8 CL   UNL d   1      32.490  15.817 -23.566  0.00  0.00    -0.082 Cl
ATOM      9  C   UNL d   1      31.596  16.841 -24.515  0.00  0.00     0.004 A 
ATOM     10  C   UNL d   1      31.250  18.169 -24.927  0.00  0.00     0.099 A 
ATOM     11  C   UNL d   1      31.150  17.346 -24.988  0.00  0.00     0.021 A 
ENDROOT
BRANCH   3  12
ATOM     12  O   UNL d   1      32.902  19.103 -23.308  0.00  0.00    -0.257 OA
BRANCH  12  13
ATOM     13  C   UNL d   1      32.949  19.467 -22.557  0.00  0.00     0.378 C 
ATOM     14  N   UNL d   1      33.045  20.275 -22.490  0.00  0.00    -0.247 N 
ATOM     15  C   UNL d   1      33.098  20.743 -23.169  0.00  0.00     0.112 A 
ATOM     16  C   UNL d   1      33.091  20.630 -21.746  0.00  0.00     0.112 A 
ATOM     17  C   UNL d   1      33.195  21.556 -23.093  0.00  0.00     0.142 A 
ATOM     18  O   UNL d   1      33.241  21.910 -22.354  0.00  0.00    -0.300 OA
ATOM     19  C   UNL d   1      33.188  21.442 -21.675  0.00  0.00     0.142 A 
ATOM     20  O   UNL d   1      32.895  18.993 -21.869  0.00  0.00    -0.237 OA
ENDBRANCH  12  13
ENDBRANCH   3  12
TORSDOF 2
ENDMDL
MODEL 6
REMARK VINA RESULT:      -2.2      4.788      6.113
REMARK  2 active torsions:
REMARK  status: ('A' for Active; 'I' for Inactive)
REMARK       I    between atoms: N_3  and  C_1 
REMARK    1  A    between atoms: O_4  and  C_1 
REMARK    2  A    between atoms: C_6  and  O_4 
ROOT
ATOM      1  C   UNL d   1      31.796  16.647 -24.719  0.00  0.00     0.105 A 
ATOM      2  C   UNL d   1      32.473  17.102 -24.832  0.00  0.00     0.030 A 
ATOM      3  C   UNL d   1      31.063  17.019 -24.559  0.00  0.00     0.122 A 
ATOM      4  N   UNL d   1      31.838  15.819 -24.763  0.00  0.00    -0.242 NA
ATOM      5  C   UNL d   1      32.430  17.926 -24.788  0.00  0.00     0.059 A 
ATOM      6  C   UNL d   1      31.021  17.837 -24.515  0.00  0.00     0.027 A 
ATOM      7  C   UNL d   1      31.696  18.298 -24.627  0.00  0.00     0.013 A 
ATOM      8 CL   UNL d   1      33.110  18.389 -24.901  0.00  0.00    -0.082 Cl
ATOM      9  C   UNL d   1      33.195  16.735 -24.989  0.00  0.00     0.004 A 
ATOM     10  C   UNL d   1      32.560  15.453 -24.921  0.00  0.00     0.099 A 
ATOM     11  C   UNL d   1      33.241  15.915 -25.034  0.00  0.00     0.021 A 
ENDROOT
BRANCH   3  12
ATOM     12  O   UNL d   1      30.375  16.560 -24.444  0.00  0.00    -0.257 OA
BRANCH  12  13
ATOM     13  C   UNL d   1      29.634  16.927 -24.326  0.00  0.00     0.378 C 
ATOM     14  N   UNL d   1      29.053  16.564 -23.881  0.00  0.00    -0.247 N 
ATOM     15  C   UNL d   1      29.195  15.824 -23.542  0.00  0.00     0.112 A 
ATOM     16  C   UNL d   1      28.323  16.931 -23.768  0.00  0.00     0.112 A 
ATOM     17  C   UNL d   1      28.605  15.464 -23.095  0.00  0.00     0.142 A 
ATOM     18  O   UNL d   1      27.880  15.828 -22.982  0.00  0.00    -0.300 OA
ATOM     19  C   UNL d   1      27.737  16.567 -23.321  0.00  0.00     0.142 A 
ATOM     20  O   UNL d   1      29.490  17.677 -24.669  0.00  0.00    -0.237 OA
ENDBRANCH  12  13
ENDBRANCH   3  12
TORSDOF 2
ENDMDL
MODEL 7
REMARK VINA RESULT:      -2.1      1.892      2.967
REMARK  2 active torsions:
REMARK  status: ('A' for Active; 'I' for Inactive)
REMARK       I    between atoms: N_3  and  C_1 
REMARK    1  A    between atoms: O_4  and  C_1 
REMARK    2  A    between atoms: C_6  and  O_4 
ROOT
ATOM      1  C   UNL d   1      33.240  19.652 -22.433  0.00  0.00     0.105 A 
ATOM      2  C   UNL d   1      33.240  20.475 -22.429  0.00  0.00     0.030 A 
ATOM      3  C   UNL d   1      33.240  19.236 -23.160  0.00  0.00     0.122 A 
ATOM      4  N   UNL d   1      33.240  19.231 -21.717  0.00  0.00    -0.242 NA
ATOM      5  C   UNL d   1      33.240  20.893 -23.142  0.00  0.00     0.059 A 
ATOM      6  C   UNL d   1      33.240  19.651 -23.868  0.00  0.00     0.027 A 
ATOM      7  C   UNL d   1      33.240  20.476 -23.870  0.00  0.00     0.013 A 
ATOM      8 CL   UNL d   1      33.240  21.723 -23.143  0.00  0.00    -0.082 Cl
ATOM      9  C   UNL d   1      33.240  20.885 -21.713  0.00  0.00     0.004 A 
ATOM     10  C   UNL d   1      33.240  19.641 -21.001  0.00  0.00     0.099 A 
ATOM     11  C   UNL d   1      33.240  20.472 -21.001  0.00  0.00     0.021 A 
ENDROOT
BRANCH   3  12
ATOM     12  O   UNL d   1      33.239  18.402 -23.166  0.00  0.00    -0.257 OA
BRANCH  12  13
ATOM     13  C   UNL d   1      32.678  17.981 -23.619  0.00  0.00     0.378 C 
ATOM     14  N   UNL d   1      32.679  17.164 -23.634  0.00  0.00    -0.247 N 
ATOM     15  C   UNL d   1      33.241  16.745 -23.197  0.00  0.00     0.112 A 
ATOM     16  C   UNL d   1      32.122  16.753 -24.083  0.00  0.00     0.112 A 
ATOM     17  C   UNL d   1      33.236  15.922 -23.216  0.00  0.00     0.142 A 
ATOM     18  O   UNL d   1      32.683  15.513 -23.662  0.00  0.00    -0.300 OA
ATOM     19  C   UNL d   1      32.122  15.932 -24.099  0.00  0.00     0.142 A 
ATOM     20  O   UNL d   1      32.108  18.406 -24.062  0.00  0.00    -0.237 OA
ENDBRANCH  12  13
ENDBRANCH   3  12
TORSDOF 2
ENDMDL
MODEL 8
REMARK VINA RESULT:      -1.5      3.771      5.660
REMARK  2 active torsions:
REMARK  status: ('A' for Active; 'I' for Inactive)
REMARK       I    between atoms: N_3  and  C_1 
REMARK    1  A    between atoms: O_4  and  C_1 
REMARK    2  A    between atoms: C_6  and  O_4 
ROOT
ATOM      1  C   UNL d   1      29.827  16.850 -24.260  0.00  0.00     0.105 A 
ATOM      2  C   UNL d   1      29.171  16.456 -23.960  0.00  0.00     0.030 A 
ATOM      3  C   UNL d   1      30.596  16.649 -23.993  0.00  0.00     0.122 A 
ATOM      4  N   UNL d   1      29.732  17.449 -24.828  0.00  0.00    -0.242 NA
ATOM      5  C   UNL d   1      29.268  15.860 -23.395  0.00  0.00     0.059 A 
ATOM      6  C   UNL d   1      30.691  16.058 -23.433  0.00  0.00     0.027 A 
ATOM      7  C   UNL d   1      30.036  15.659 -23.129  0.00  0.00     0.013 A 
ATOM      8 CL   UNL d   1      28.608  15.459 -23.090  0.00  0.00    -0.082 Cl
ATOM      9  C   UNL d   1      28.414  16.654 -24.223  0.00  0.00     0.004 A 
ATOM     10  C   UNL d   1      28.975  17.647 -25.090  0.00  0.00     0.099 A 
ATOM     11  C   UNL d   1      28.314  17.246 -24.785  0.00  0.00     0.021 A 
ENDROOT
BRANCH   3  12
ATOM     12  O   UNL d   1      31.263  17.048 -24.296  0.00  0.00    -0.257 OA
BRANCH  12  13
ATOM     13  C   UNL d   1      31.826  17.387 -23.779  0.00  0.00     0.378 C 
ATOM     14  N   UNL d   1      32.254  18.046 -24.002  0.00  0.00    -0.247 N 
ATOM     15  C   UNL d   1      32.134  18.385 -24.745  0.00  0.00     0.112 A 
ATOM     16  C   UNL d   1      32.809  18.377 -23.488  0.00  0.00     0.112 A 
ATOM     17  C   UNL d   1      32.570  19.049 -24.962  0.00  0.00     0.142 A 
ATOM     18  O   UNL d   1      33.120  19.378 -24.452  0.00  0.00    -0.300 OA
ATOM     19  C   UNL d   1      33.241  19.039 -23.709  0.00  0.00     0.142 A 
ATOM     20  O   UNL d   1      31.948  17.043 -23.026  0.00  0.00    -0.237 OA
ENDBRANCH  12  13
ENDBRANCH   3  12
TORSDOF 2
ENDMDL
MODEL 9
REMARK VINA RESULT:      -1.1      1.919      4.157
REMARK  2 active torsions:
REMARK  status: ('A' for Active; 'I' for Inactive)
REMARK       I    between atoms: N_3  and  C_1 
REMARK    1  A    between atoms: O_4  and  C_1 
REMARK    2  A    between atoms: C_6  and  O_4 
ROOT
ATOM      1  C   UNL d   1      33.193  20.602 -22.902  0.00  0.00     0.105 A 
ATOM      2  C   UNL d   1      33.177  20.158 -23.595  0.00  0.00     0.030 A 
ATOM      3  C   UNL d   1      33.224  21.438 -22.941  0.00  0.00     0.122 A 
ATOM      4  N   UNL d   1      33.177  20.224 -22.163  0.00  0.00    -0.242 NA
ATOM      5  C   UNL d   1      33.192  20.536 -24.330  0.00  0.00     0.059 A 
ATOM      6  C   UNL d   1      33.240  21.813 -23.671  0.00  0.00     0.027 A 
ATOM      7  C   UNL d   1      33.224  21.373 -24.368  0.00  0.00     0.013 A 
ATOM      8 CL   UNL d   1      33.177  20.092 -25.031  0.00  0.00    -0.082 Cl
ATOM      9  C   UNL d   1      33.146  19.334 -23.557  0.00  0.00     0.004 A 
ATOM     10  C   UNL d   1      33.146  19.400 -22.125  0.00  0.00     0.099 A 
ATOM     11  C   UNL d   1      33.130  18.955 -22.826  0.00  0.00     0.021 A 
ENDROOT
BRANCH   3  12
ATOM     12  O   UNL d   1      33.240  21.891 -22.240  0.00  0.00    -0.257 OA
BRANCH  12  13
ATOM     13  C   UNL d   1      32.655  22.469 -22.094  0.00  0.00     0.378 C 
ATOM     14  N   UNL d   1      32.566  22.797 -21.351  0.00  0.00    -0.247 N 
ATOM     15  C   UNL d   1      33.059  22.557 -20.733  0.00  0.00     0.112 A 
ATOM     16  C   UNL d   1      31.987  23.367 -21.213  0.00  0.00     0.112 A 
ATOM     17  C   UNL d   1      32.964  22.891 -19.987  0.00  0.00     0.142 A 
ATOM     18  O   UNL d   1      32.388  23.458 -19.848  0.00  0.00    -0.300 OA
ATOM     19  C   UNL d   1      31.896  23.698 -20.467  0.00  0.00     0.142 A 
ATOM     20  O   UNL d   1      32.156  22.712 -22.721  0.00  0.00    -0.237 OA
ENDBRANCH  12  13
ENDBRANCH   3  12
TORSDOF 2
ENDMDL
