MODEL 1
REMARK VINA RESULT:      18.0      0.000      0.000
REMARK  1 active torsions:
REMARK  status: ('A' for Active; 'I' for Inactive)
REMARK    1  A    between atoms: C_15  and  C_6 
ROOT
ATOM      1  C   UNL d   1      46.232 -19.089  42.834  0.00  0.00     0.087 A 
ATOM      2  C   UNL d   1      46.250 -19.050  41.401  0.00  0.00     0.111 A 
ATOM      3  C   UNL d   1      46.488 -19.875  42.813  0.00  0.00     0.109 A 
ATOM      4  C   UNL d   1      46.094 -18.710  43.553  0.00  0.00     0.302 A 
ATOM      5  C   UNL d   1      46.507 -19.840  41.389  0.00  0.00     0.213 A 
ATOM      6  C   UNL d   1      46.110 -18.669  42.134  0.00  0.00     0.020 A 
ATOM      7  O   UNL d   1      46.624 -20.244  42.094  0.00  0.00    -0.287 OA
ATOM      8  C   UNL d   1      46.607 -20.286  43.513  0.00  0.00     0.050 A 
ATOM      9  O   UNL d   1      46.215 -19.131  44.266  0.00  0.00    -0.273 OA
ATOM     10  C   UNL d   1      46.130 -18.635  40.701  0.00  0.00     0.105 C 
ATOM     11  C   UNL d   1      46.470 -19.912  44.246  0.00  0.00     0.105 A 
ATOM     12  N   UNL d   1      46.012 -18.226  39.989  0.00  0.00    -0.191 NA
ATOM     13  O   UNL d   1      45.838 -17.925  43.574  0.00  0.00    -0.259 OA
ATOM     14  N   UNL d   1      46.643 -20.210  40.660  0.00  0.00    -0.120 N 
ATOM     15  C   UNL d   1      46.589 -20.325  44.954  0.00  0.00     0.027 C 
ENDROOT
BRANCH   6  16
ATOM     16  C   UNL d   1      45.858 -17.895  42.154  0.00  0.00     0.001 C 
ATOM     17  C   UNL d   1      45.066 -17.707  42.011  0.00  0.00     0.000 C 
ATOM     18  C   UNL d   1      46.391 -17.293  42.317  0.00  0.00     0.000 C 
ENDBRANCH   6  16
TORSDOF 1
ENDMDL
MODEL 2
REMARK VINA RESULT:      19.3      1.628      2.931
REMARK  1 active torsions:
REMARK  status: ('A' for Active; 'I' for Inactive)
REMARK    1  A    between atoms: C_15  and  C_6 
ROOT
ATOM      1  C   UNL d   1      46.437 -19.098  42.812  0.00  0.00     0.087 A 
ATOM      2  C   UNL d   1      46.248 -17.870  43.525  0.00  0.00     0.111 A 
ATOM      3  C   UNL d   1      46.387 -18.688  42.096  0.00  0.00     0.109 A 
ATOM      4  C   UNL d   1      46.556 -19.914  42.821  0.00  0.00     0.302 A 
ATOM      5  C   UNL d   1      46.198 -17.464  42.802  0.00  0.00     0.213 A 
ATOM      6  C   UNL d   1      46.369 -18.699  43.531  0.00  0.00     0.020 A 
ATOM      7  O   UNL d   1      46.268 -17.876  42.095  0.00  0.00    -0.287 OA
ATOM      8  C   UNL d   1      46.456 -19.091  41.385  0.00  0.00     0.050 A 
ATOM      9  O   UNL d   1      46.626 -20.325  42.096  0.00  0.00    -0.273 OA
ATOM     10  C   UNL d   1      46.179 -17.467  44.240  0.00  0.00     0.105 C 
ATOM     11  C   UNL d   1      46.576 -19.917  41.384  0.00  0.00     0.105 A 
ATOM     12  N   UNL d   1      46.109 -17.052  44.955  0.00  0.00    -0.191 NA
ATOM     13  O   UNL d   1      46.606 -20.325  43.536  0.00  0.00    -0.259 OA
ATOM     14  N   UNL d   1      46.079 -16.645  42.805  0.00  0.00    -0.120 N 
ATOM     15  C   UNL d   1      46.646 -20.327  40.668  0.00  0.00     0.027 C 
ENDROOT
BRANCH   6  16
ATOM     16  C   UNL d   1      46.418 -19.103  44.236  0.00  0.00     0.001 C 
ATOM     17  C   UNL d   1      46.254 -19.912  44.269  0.00  0.00     0.000 C 
ATOM     18  C   UNL d   1      46.633 -18.708  44.922  0.00  0.00     0.000 C 
ENDBRANCH   6  16
TORSDOF 1
ENDMDL
