MODEL 1
REMARK VINA RESULT:     108.9      0.000      0.000
REMARK  3 active torsions:
REMARK  status: ('A' for Active; 'I' for Inactive)
REMARK    1  A    between atoms: C_13  and  N_6 
REMARK    2  A    between atoms: C_16  and  C_10 
REMARK    3  A    between atoms: O_19  and  C_17 
ROOT
ATOM      1  C   UNL d   1     -51.664  25.794  35.938  0.00  0.00     0.722 A 
ATOM      2  C   UNL d   1     -51.538  26.374  37.124  0.00  0.00     0.191 A 
ATOM      3  N   UNL d   1     -51.201  26.313  36.389  0.00  0.00    -0.042 NA
ATOM      4  N   UNL d   1     -52.275  25.548  36.406  0.00  0.00    -0.131 N 
ATOM      5  C   UNL d   1     -52.207  25.898  37.135  0.00  0.00     0.174 A 
ATOM      6  N   UNL d   1     -51.730  25.441  35.197  0.00  0.00    -0.138 N 
ATOM      7  N   UNL d   1     -51.327  26.801  37.791  0.00  0.00    -0.239 N 
ATOM      8  C   UNL d   1     -51.788  26.755  38.481  0.00  0.00     0.358 A 
ATOM      9  N   UNL d   1     -52.456  26.279  38.491  0.00  0.00    -0.152 NA
ATOM     10  C   UNL d   1     -52.377  24.975  35.196  0.00  0.00     0.100 A 
ATOM     11  C   UNL d   1     -52.675  25.841  37.813  0.00  0.00     0.303 A 
ATOM     12  C   UNL d   1     -52.736  25.025  35.943  0.00  0.00     0.116 A 
ATOM     13  O   UNL d   1     -51.576  27.182  39.148  0.00  0.00    -0.244 OA
ATOM     14  O   UNL d   1     -53.335  25.371  37.823  0.00  0.00    -0.263 OA
ATOM     15  C   UNL d   1     -50.668  27.271  37.780  0.00  0.00     0.105 C 
ENDROOT
BRANCH   6  16
ATOM     16  C   UNL d   1     -51.209  25.554  34.565  0.00  0.00     0.103 A 
ATOM     17  C   UNL d   1     -51.318  26.190  34.046  0.00  0.00     0.111 A 
ATOM     18  C   UNL d   1     -50.808  26.299  33.428  0.00  0.00     0.026 A 
ATOM     19  C   UNL d   1     -50.179  25.785  33.306  0.00  0.00     0.002 A 
ATOM     20  C   UNL d   1     -50.071  25.150  33.825  0.00  0.00     0.002 A 
ATOM     21  C   UNL d   1     -50.590  25.036  34.457  0.00  0.00     0.020 A 
BRANCH  17  22
ATOM     22  O   UNL d   1     -51.814  26.827  33.912  0.00  0.00    -0.327 OA
ATOM     23  C   UNL d   1     -51.650  27.371  33.314  0.00  0.00     0.181 C 
ENDBRANCH  17  22
ENDBRANCH   6  16
BRANCH  10  24
ATOM     24  C   UNL d   1     -52.655  24.515  34.564  0.00  0.00     0.018 A 
ATOM     25  C   UNL d   1     -52.319  23.778  34.403  0.00  0.00     0.002 A 
ATOM     26  C   UNL d   1     -52.593  23.329  33.784  0.00  0.00     0.000 A 
ATOM     27  C   UNL d   1     -53.213  23.604  33.306  0.00  0.00     0.000 A 
ATOM     28  C   UNL d   1     -53.548  24.340  33.467  0.00  0.00     0.000 A 
ATOM     29  C   UNL d   1     -53.270  24.801  34.099  0.00  0.00     0.002 A 
ENDBRANCH  10  24
TORSDOF 3
ENDMDL
