MODEL 1
REMARK VINA RESULT:      48.4      0.000      0.000
REMARK  3 active torsions:
REMARK  status: ('A' for Active; 'I' for Inactive)
REMARK       I    between atoms: N_3  and  C_1 
REMARK       I    between atoms: N_5  and  C_1 
REMARK    1  A    between atoms: C_2  and  O_6 
REMARK       I    between atoms: N_4  and  C_2 
REMARK    2  A    between atoms: C_10  and  N_5 
REMARK    3  A    between atoms: O_6  and  C_11 
ROOT
ATOM      1  C   UNL d   1      13.405  13.868  -4.437  0.00  0.00     0.086 A 
ATOM      2  C   UNL d   1      13.497  12.534  -3.470  0.00  0.00     0.105 A 
ATOM      3  C   UNL d   1      12.847  13.245  -4.518  0.00  0.00     0.021 A 
ATOM      4  C   UNL d   1      14.011  13.804  -3.858  0.00  0.00     0.021 A 
ATOM      5  C   UNL d   1      12.892  12.588  -4.042  0.00  0.00     0.026 A 
ATOM      6  C   UNL d   1      14.056  13.147  -3.382  0.00  0.00     0.026 A 
ENDROOT
BRANCH   1   7
ATOM      7  N   UNL d   1      13.360  14.525  -4.913  0.00  0.00    -0.192 NA
ATOM      8  C   UNL d   1      13.837  15.177  -4.783  0.00  0.00     0.354 C 
ATOM      9  N   UNL d   1      13.791  15.844  -5.267  0.00  0.00    -0.252 N 
ATOM     10  O   UNL d   1      14.380  15.154  -4.142  0.00  0.00    -0.244 OA
ATOM     11  C   UNL d   1      14.287  16.498  -5.116  0.00  0.00     0.111 A 
ATOM     12  C   UNL d   1      13.257  15.873  -5.901  0.00  0.00     0.111 A 
ATOM     13  C   UNL d   1      14.240  17.175  -5.607  0.00  0.00     0.142 A 
ATOM     14  O   UNL d   1      13.698  17.189  -6.241  0.00  0.00    -0.300 OA
ATOM     15  C   UNL d   1      13.211  16.540  -6.385  0.00  0.00     0.142 A 
ENDBRANCH   1   7
BRANCH   2  16
ATOM     16  O   UNL d   1      13.543  11.867  -2.987  0.00  0.00    -0.259 OA
BRANCH  16  17
ATOM     17  C   UNL d   1      14.106  11.830  -2.388  0.00  0.00     0.377 C 
ATOM     18  N   UNL d   1      13.869  11.823  -1.597  0.00  0.00    -0.252 N 
ATOM     19  C   UNL d   1      14.433  11.786  -0.999  0.00  0.00     0.085 A 
ATOM     20  C   UNL d   1      13.070  11.855  -1.406  0.00  0.00     0.085 A 
ATOM     21  C   UNL d   1      14.200  11.779  -0.207  0.00  0.00     0.019 A 
ATOM     22  C   UNL d   1      13.401  11.811  -0.015  0.00  0.00     0.003 A 
ATOM     23  C   UNL d   1      12.832  11.849  -0.612  0.00  0.00     0.019 A 
ATOM     24  O   UNL d   1      14.905  11.798  -2.574  0.00  0.00    -0.237 OA
ENDBRANCH  16  17
ENDBRANCH   2  16
TORSDOF 3
ENDMDL
