MODEL 1
REMARK VINA RESULT:      -5.3      0.000      0.000
REMARK  5 active torsions:
REMARK  status: ('A' for Active; 'I' for Inactive)
REMARK    1  A    between atoms: C_10  and  C_3 
REMARK    2  A    between atoms: S_9  and  C_4 
REMARK       I    between atoms: N_6  and  C_7 
REMARK    3  A    between atoms: C_8  and  N_6 
REMARK    4  A    between atoms: C_7  and  C_14 
REMARK    5  A    between atoms: C_14  and  S_9 
ROOT
ATOM      1  S   UNL d   1      57.796  -0.276  30.165  0.00  0.00    -0.036 SA
ENDROOT
BRANCH   1   2
ATOM      2  C   UNL d   1      58.457  -0.627  29.774  0.00  0.00     0.236 A 
ATOM      3  O   UNL d   1      58.478  -1.442  29.629  0.00  0.00    -0.263 OA
ATOM      4  C   UNL d   1      59.176  -1.599  29.251  0.00  0.00     0.205 A 
ATOM      5  N   UNL d   1      59.579  -0.916  29.159  0.00  0.00    -0.120 NA
ATOM      6  N   UNL d   1      59.154  -0.297  29.476  0.00  0.00    -0.114 NA
BRANCH   4   7
ATOM      7  C   UNL d   1      59.435  -2.325  29.000  0.00  0.00     0.046 A 
ATOM      8  C   UNL d   1      58.907  -2.914  28.779  0.00  0.00     0.024 A 
ATOM      9  C   UNL d   1      59.218  -3.652  28.526  0.00  0.00     0.099 A 
ATOM     10  N   UNL d   1      60.022  -3.791  28.496  0.00  0.00    -0.242 NA
ATOM     11  C   UNL d   1      60.559  -3.189  28.722  0.00  0.00     0.099 A 
ATOM     12  C   UNL d   1      60.275  -2.458  28.974  0.00  0.00     0.024 A 
ENDBRANCH   4   7
ENDBRANCH   1   2
BRANCH   1  13
ATOM     13  C   UNL d   1      57.893   0.036  30.905  0.00  0.00     0.101 C 
BRANCH  13  14
ATOM     14  C   UNL d   1      57.232   0.141  31.379  0.00  0.00     0.286 C 
ATOM     15  N   UNL d   1      57.167  -0.279  32.098  0.00  0.00    -0.207 NA
ATOM     16  O   UNL d   1      56.623   0.657  31.160  0.00  0.00    -0.265 OA
BRANCH  15  17
ATOM     17  C   UNL d   1      56.497  -0.179  32.587  0.00  0.00     0.095 A 
ATOM     18  C   UNL d   1      56.047  -0.822  32.796  0.00  0.00     0.075 A 
ATOM     19 CL   UNL d   1      56.242  -1.596  32.529  0.00  0.00    -0.081 Cl
ATOM     20  C   UNL d   1      55.378  -0.713  33.286  0.00  0.00     0.013 A 
ATOM     21  C   UNL d   1      55.176   0.020  33.552  0.00  0.00     0.001 A 
ATOM     22  C   UNL d   1      55.622   0.681  33.349  0.00  0.00     0.002 A 
ATOM     23  C   UNL d   1      56.299   0.579  32.854  0.00  0.00     0.020 A 
ENDBRANCH  15  17
ENDBRANCH  13  14
ENDBRANCH   1  13
TORSDOF 5
ENDMDL
MODEL 2
REMARK VINA RESULT:      -4.5      1.470      5.482
REMARK  5 active torsions:
REMARK  status: ('A' for Active; 'I' for Inactive)
REMARK    1  A    between atoms: C_10  and  C_3 
REMARK    2  A    between atoms: S_9  and  C_4 
REMARK       I    between atoms: N_6  and  C_7 
REMARK    3  A    between atoms: C_8  and  N_6 
REMARK    4  A    between atoms: C_7  and  C_14 
REMARK    5  A    between atoms: C_14  and  S_9 
ROOT
ATOM      1  S   UNL d   1      58.191   0.175  30.795  0.00  0.00    -0.036 SA
ENDROOT
BRANCH   1   2
ATOM      2  C   UNL d   1      57.453   0.349  31.168  0.00  0.00     0.236 A 
ATOM      3  O   UNL d   1      57.361   0.256  31.985  0.00  0.00    -0.263 OA
ATOM      4  C   UNL d   1      56.600   0.466  32.164  0.00  0.00     0.205 A 
ATOM      5  N   UNL d   1      56.227   0.682  31.493  0.00  0.00    -0.120 NA
ATOM      6  N   UNL d   1      56.735   0.618  30.859  0.00  0.00    -0.114 NA
BRANCH   4   7
ATOM      7  C   UNL d   1      56.260   0.463  32.900  0.00  0.00     0.046 A 
ATOM      8  C   UNL d   1      56.702   0.620  33.575  0.00  0.00     0.024 A 
ATOM      9  C   UNL d   1      56.311   0.607  34.318  0.00  0.00     0.099 A 
ATOM     10  N   UNL d   1      55.513   0.442  34.380  0.00  0.00    -0.242 NA
ATOM     11  C   UNL d   1      55.065   0.282  33.691  0.00  0.00     0.099 A 
ATOM     12  C   UNL d   1      55.429   0.290  32.952  0.00  0.00     0.024 A 
ENDBRANCH   4   7
ENDBRANCH   1   2
BRANCH   1  13
ATOM     13  C   UNL d   1      58.195  -0.155  30.057  0.00  0.00     0.101 C 
BRANCH  13  14
ATOM     14  C   UNL d   1      58.903  -0.432  29.751  0.00  0.00     0.286 C 
ATOM     15  N   UNL d   1      58.933  -1.183  29.388  0.00  0.00    -0.207 NA
ATOM     16  O   UNL d   1      59.596   0.020  29.795  0.00  0.00    -0.265 OA
BRANCH  15  17
ATOM     17  C   UNL d   1      59.651  -1.473  29.074  0.00  0.00     0.095 A 
ATOM     18  C   UNL d   1      59.765  -2.274  28.993  0.00  0.00     0.075 A 
ATOM     19 CL   UNL d   1      59.170  -2.824  29.221  0.00  0.00    -0.081 Cl
ATOM     20  C   UNL d   1      60.487  -2.555  28.678  0.00  0.00     0.013 A 
ATOM     21  C   UNL d   1      61.068  -2.044  28.455  0.00  0.00     0.001 A 
ATOM     22  C   UNL d   1      60.967  -1.231  28.531  0.00  0.00     0.002 A 
ATOM     23  C   UNL d   1      60.240  -0.938  28.848  0.00  0.00     0.020 A 
ENDBRANCH  15  17
ENDBRANCH  13  14
ENDBRANCH   1  13
TORSDOF 5
ENDMDL
MODEL 3
REMARK VINA RESULT:      -4.4      1.500      2.099
REMARK  5 active torsions:
REMARK  status: ('A' for Active; 'I' for Inactive)
REMARK    1  A    between atoms: C_10  and  C_3 
REMARK    2  A    between atoms: S_9  and  C_4 
REMARK       I    between atoms: N_6  and  C_7 
REMARK    3  A    between atoms: C_8  and  N_6 
REMARK    4  A    between atoms: C_7  and  C_14 
REMARK    5  A    between atoms: C_14  and  S_9 
ROOT
ATOM      1  S   UNL d   1      57.045  -0.208  31.803  0.00  0.00    -0.036 SA
ENDROOT
BRANCH   1   2
ATOM      2  C   UNL d   1      57.409  -0.131  31.045  0.00  0.00     0.236 A 
ATOM      3  O   UNL d   1      57.993  -0.665  30.802  0.00  0.00    -0.263 OA
ATOM      4  C   UNL d   1      58.226  -0.441  30.059  0.00  0.00     0.205 A 
ATOM      5  N   UNL d   1      57.810   0.205  29.842  0.00  0.00    -0.120 NA
ATOM      6  N   UNL d   1      57.295   0.417  30.437  0.00  0.00    -0.114 NA
BRANCH   4   7
ATOM      7  C   UNL d   1      58.788  -0.803  29.601  0.00  0.00     0.046 A 
ATOM      8  C   UNL d   1      58.842  -1.622  29.559  0.00  0.00     0.024 A 
ATOM      9  C   UNL d   1      59.439  -1.957  29.073  0.00  0.00     0.099 A 
ATOM     10  N   UNL d   1      59.958  -1.490  28.648  0.00  0.00    -0.242 NA
ATOM     11  C   UNL d   1      59.901  -0.656  28.692  0.00  0.00     0.099 A 
ATOM     12  C   UNL d   1      59.323  -0.307  29.164  0.00  0.00     0.024 A 
ENDBRANCH   4   7
ENDBRANCH   1   2
BRANCH   1  13
ATOM     13  C   UNL d   1      56.614   0.408  32.101  0.00  0.00     0.101 C 
BRANCH  13  14
ATOM     14  C   UNL d   1      56.431   0.412  32.900  0.00  0.00     0.286 C 
ATOM     15  N   UNL d   1      55.673   0.661  33.150  0.00  0.00    -0.207 NA
ATOM     16  O   UNL d   1      56.983   0.174  33.469  0.00  0.00    -0.265 OA
BRANCH  15  17
ATOM     17  C   UNL d   1      55.478   0.668  33.963  0.00  0.00     0.095 A 
ATOM     18  C   UNL d   1      54.699   0.673  34.193  0.00  0.00     0.075 A 
ATOM     19 CL   UNL d   1      54.077   0.672  33.626  0.00  0.00    -0.081 Cl
ATOM     20  C   UNL d   1      54.512   0.680  35.008  0.00  0.00     0.013 A 
ATOM     21  C   UNL d   1      55.093   0.682  35.565  0.00  0.00     0.001 A 
ATOM     22  C   UNL d   1      55.886   0.677  35.348  0.00  0.00     0.002 A 
ATOM     23  C   UNL d   1      56.084   0.670  34.526  0.00  0.00     0.020 A 
ENDBRANCH  15  17
ENDBRANCH  13  14
ENDBRANCH   1  13
TORSDOF 5
ENDMDL
