MODEL 1
REMARK VINA RESULT:      -5.2      0.000      0.000
REMARK  2 active torsions:
REMARK  status: ('A' for Active; 'I' for Inactive)
REMARK    1  A    between atoms: S_8  and  C_4 
REMARK    2  A    between atoms: C_12  and  S_8 
ROOT
ATOM      1  C   UNL d   1      57.374  -0.078  31.200  0.00  0.00     0.141 A 
ATOM      2  O   UNL d   1      57.086   0.512  31.699  0.00  0.00    -0.303 OA
ATOM      3  C   UNL d   1      57.064  -0.803  31.452  0.00  0.00     0.110 A 
ATOM      4  C   UNL d   1      57.875  -0.048  30.552  0.00  0.00     0.137 A 
ATOM      5  C   UNL d   1      56.586  -0.659  32.105  0.00  0.00     0.043 A 
ATOM      6  C   UNL d   1      56.596   0.152  32.263  0.00  0.00     0.102 A 
ATOM      7  N   UNL d   1      58.073  -0.746  30.147  0.00  0.00    -0.215 NA
ATOM      8  N   UNL d   1      57.263  -1.491  31.048  0.00  0.00    -0.222 NA
ATOM      9  C   UNL d   1      57.765  -1.462  30.399  0.00  0.00     0.200 A 
ATOM     10  C   UNL d   1      56.139  -1.169  32.582  0.00  0.00     0.004 A 
ATOM     11  C   UNL d   1      56.161   0.460  32.895  0.00  0.00     0.025 A 
ATOM     12  C   UNL d   1      55.704  -0.861  33.215  0.00  0.00     0.000 A 
ATOM     13  C   UNL d   1      55.716  -0.052  33.368  0.00  0.00     0.002 A 
ENDROOT
BRANCH   4  14
ATOM     14  S   UNL d   1      58.191   0.675  30.292  0.00  0.00    -0.066 SA
BRANCH  14  15
ATOM     15  C   UNL d   1      58.771   0.680  29.704  0.00  0.00     0.031 C 
ATOM     16  C   UNL d   1      58.553   0.682  28.909  0.00  0.00     0.007 C 
ATOM     17  C   UNL d   1      59.564   0.682  29.914  0.00  0.00     0.007 C 
ENDBRANCH  14  15
ENDBRANCH   4  14
TORSDOF 2
ENDMDL
MODEL 2
REMARK VINA RESULT:      -4.6      1.206      1.571
REMARK  2 active torsions:
REMARK  status: ('A' for Active; 'I' for Inactive)
REMARK    1  A    between atoms: S_8  and  C_4 
REMARK    2  A    between atoms: C_12  and  S_8 
ROOT
ATOM      1  C   UNL d   1      57.641  -0.687  30.957  0.00  0.00     0.141 A 
ATOM      2  O   UNL d   1      57.125  -1.283  31.199  0.00  0.00    -0.303 OA
ATOM      3  C   UNL d   1      57.537  -0.037  31.458  0.00  0.00     0.110 A 
ATOM      4  C   UNL d   1      58.188  -0.653  30.347  0.00  0.00     0.137 A 
ATOM      5  C   UNL d   1      56.959  -0.233  32.008  0.00  0.00     0.043 A 
ATOM      6  C   UNL d   1      56.700  -1.002  31.853  0.00  0.00     0.102 A 
ATOM      7  N   UNL d   1      58.639   0.034  30.232  0.00  0.00    -0.215 NA
ATOM      8  N   UNL d   1      57.987   0.642  31.340  0.00  0.00    -0.222 NA
ATOM      9  C   UNL d   1      58.535   0.676  30.730  0.00  0.00     0.200 A 
ATOM     10  C   UNL d   1      56.631   0.196  32.638  0.00  0.00     0.004 A 
ATOM     11  C   UNL d   1      56.114  -1.349  32.324  0.00  0.00     0.025 A 
ATOM     12  C   UNL d   1      56.045  -0.151  33.108  0.00  0.00     0.000 A 
ATOM     13  C   UNL d   1      55.790  -0.918  32.950  0.00  0.00     0.002 A 
ENDROOT
BRANCH   4  14
ATOM     14  S   UNL d   1      58.298  -1.301  29.839  0.00  0.00    -0.066 SA
BRANCH  14  15
ATOM     15  C   UNL d   1      58.866  -1.258  29.241  0.00  0.00     0.031 C 
ATOM     16  C   UNL d   1      58.688  -0.890  28.526  0.00  0.00     0.007 C 
ATOM     17  C   UNL d   1      59.610  -1.585  29.362  0.00  0.00     0.007 C 
ENDBRANCH  14  15
ENDBRANCH   4  14
TORSDOF 2
ENDMDL
MODEL 3
REMARK VINA RESULT:      -3.8      1.708      2.517
REMARK  2 active torsions:
REMARK  status: ('A' for Active; 'I' for Inactive)
REMARK    1  A    between atoms: S_8  and  C_4 
REMARK    2  A    between atoms: C_12  and  S_8 
ROOT
ATOM      1  C   UNL d   1      56.445   0.583  32.952  0.00  0.00     0.141 A 
ATOM      2  O   UNL d   1      55.626   0.549  32.865  0.00  0.00    -0.303 OA
ATOM      3  C   UNL d   1      56.617   0.638  33.759  0.00  0.00     0.110 A 
ATOM      4  C   UNL d   1      57.053   0.570  32.401  0.00  0.00     0.137 A 
ATOM      5  C   UNL d   1      55.904   0.638  34.169  0.00  0.00     0.043 A 
ATOM      6  C   UNL d   1      55.288   0.583  33.621  0.00  0.00     0.102 A 
ATOM      7  N   UNL d   1      57.843   0.613  32.654  0.00  0.00    -0.215 NA
ATOM      8  N   UNL d   1      57.401   0.680  34.005  0.00  0.00    -0.222 NA
ATOM      9  C   UNL d   1      58.010   0.668  33.454  0.00  0.00     0.200 A 
ATOM     10  C   UNL d   1      55.736   0.681  34.979  0.00  0.00     0.004 A 
ATOM     11  C   UNL d   1      54.501   0.571  33.878  0.00  0.00     0.025 A 
ATOM     12  C   UNL d   1      54.950   0.669  35.236  0.00  0.00     0.000 A 
ATOM     13  C   UNL d   1      54.338   0.614  34.687  0.00  0.00     0.002 A 
ENDROOT
BRANCH   4  14
ATOM     14  S   UNL d   1      56.889   0.515  31.589  0.00  0.00    -0.066 SA
BRANCH  14  15
ATOM     15  C   UNL d   1      57.450   0.183  31.081  0.00  0.00     0.031 C 
ATOM     16  C   UNL d   1      57.961   0.668  30.656  0.00  0.00     0.007 C 
ATOM     17  C   UNL d   1      57.495  -0.633  31.002  0.00  0.00     0.007 C 
ENDBRANCH  14  15
ENDBRANCH   4  14
TORSDOF 2
ENDMDL
MODEL 4
REMARK VINA RESULT:      -3.4      1.483      3.623
REMARK  2 active torsions:
REMARK  status: ('A' for Active; 'I' for Inactive)
REMARK    1  A    between atoms: S_8  and  C_4 
REMARK    2  A    between atoms: C_12  and  S_8 
ROOT
ATOM      1  C   UNL d   1      56.400   0.007  32.437  0.00  0.00     0.141 A 
ATOM      2  O   UNL d   1      56.778   0.635  32.059  0.00  0.00    -0.303 OA
ATOM      3  C   UNL d   1      56.623  -0.694  32.057  0.00  0.00     0.110 A 
ATOM      4  C   UNL d   1      55.885  -0.017  33.075  0.00  0.00     0.137 A 
ATOM      5  C   UNL d   1      57.137  -0.497  31.447  0.00  0.00     0.043 A 
ATOM      6  C   UNL d   1      57.237   0.323  31.443  0.00  0.00     0.102 A 
ATOM      7  N   UNL d   1      55.586  -0.744  33.340  0.00  0.00    -0.215 NA
ATOM      8  N   UNL d   1      56.324  -1.412  32.324  0.00  0.00    -0.222 NA
ATOM      9  C   UNL d   1      55.808  -1.436  32.962  0.00  0.00     0.200 A 
ATOM     10  C   UNL d   1      57.531  -0.965  30.887  0.00  0.00     0.004 A 
ATOM     11  C   UNL d   1      57.729   0.682  30.883  0.00  0.00     0.025 A 
ATOM     12  C   UNL d   1      58.024  -0.606  30.327  0.00  0.00     0.000 A 
ATOM     13  C   UNL d   1      58.120   0.211  30.327  0.00  0.00     0.002 A 
ENDROOT
BRANCH   4  14
ATOM     14  S   UNL d   1      55.657   0.682  33.461  0.00  0.00    -0.066 SA
BRANCH  14  15
ATOM     15  C   UNL d   1      55.173   0.639  34.129  0.00  0.00     0.031 C 
ATOM     16  C   UNL d   1      55.508   0.567  34.878  0.00  0.00     0.007 C 
ATOM     17  C   UNL d   1      54.357   0.668  34.044  0.00  0.00     0.007 C 
ENDBRANCH  14  15
ENDBRANCH   4  14
TORSDOF 2
ENDMDL
MODEL 5
REMARK VINA RESULT:      -3.2      1.198      3.371
REMARK  2 active torsions:
REMARK  status: ('A' for Active; 'I' for Inactive)
REMARK    1  A    between atoms: S_8  and  C_4 
REMARK    2  A    between atoms: C_12  and  S_8 
ROOT
ATOM      1  C   UNL d   1      57.183   0.064  31.947  0.00  0.00     0.141 A 
ATOM      2  O   UNL d   1      57.707   0.639  31.672  0.00  0.00    -0.303 OA
ATOM      3  C   UNL d   1      57.208  -0.577  31.424  0.00  0.00     0.110 A 
ATOM      4  C   UNL d   1      56.691   0.043  32.602  0.00  0.00     0.137 A 
ATOM      5  C   UNL d   1      57.746  -0.397  30.829  0.00  0.00     0.043 A 
ATOM      6  C   UNL d   1      58.057   0.354  30.977  0.00  0.00     0.102 A 
ATOM      7  N   UNL d   1      56.215  -0.623  32.742  0.00  0.00    -0.215 NA
ATOM      8  N   UNL d   1      56.735  -1.235  31.567  0.00  0.00    -0.222 NA
ATOM      9  C   UNL d   1      56.241  -1.257  32.223  0.00  0.00     0.200 A 
ATOM     10  C   UNL d   1      57.994  -0.826  30.164  0.00  0.00     0.004 A 
ATOM     11  C   UNL d   1      58.618   0.682  30.464  0.00  0.00     0.025 A 
ATOM     12  C   UNL d   1      58.554  -0.497  29.651  0.00  0.00     0.000 A 
ATOM     13  C   UNL d   1      58.862   0.251  29.802  0.00  0.00     0.002 A 
ENDROOT
BRANCH   4  14
ATOM     14  S   UNL d   1      56.660   0.682  33.131  0.00  0.00    -0.066 SA
BRANCH  14  15
ATOM     15  C   UNL d   1      56.201   0.624  33.815  0.00  0.00     0.031 C 
ATOM     16  C   UNL d   1      55.379   0.619  33.761  0.00  0.00     0.007 C 
ATOM     17  C   UNL d   1      56.566   0.571  34.548  0.00  0.00     0.007 C 
ENDBRANCH  14  15
ENDBRANCH   4  14
TORSDOF 2
ENDMDL
MODEL 6
REMARK VINA RESULT:      -2.7      1.594      2.173
REMARK  2 active torsions:
REMARK  status: ('A' for Active; 'I' for Inactive)
REMARK    1  A    between atoms: S_8  and  C_4 
REMARK    2  A    between atoms: C_12  and  S_8 
ROOT
ATOM      1  C   UNL d   1      58.897   0.658  30.315  0.00  0.00     0.141 A 
ATOM      2  O   UNL d   1      59.040   0.672  31.127  0.00  0.00    -0.303 OA
ATOM      3  C   UNL d   1      58.078   0.650  30.197  0.00  0.00     0.110 A 
ATOM      4  C   UNL d   1      59.406   0.653  29.672  0.00  0.00     0.137 A 
ATOM      5  C   UNL d   1      57.717   0.658  30.935  0.00  0.00     0.043 A 
ATOM      6  C   UNL d   1      58.306   0.672  31.514  0.00  0.00     0.102 A 
ATOM      7  N   UNL d   1      59.100   0.639  28.900  0.00  0.00    -0.215 NA
ATOM      8  N   UNL d   1      57.780   0.636  29.430  0.00  0.00    -0.222 NA
ATOM      9  C   UNL d   1      58.289   0.631  28.786  0.00  0.00     0.200 A 
ATOM     10  C   UNL d   1      56.918   0.655  31.156  0.00  0.00     0.004 A 
ATOM     11  C   UNL d   1      58.103   0.682  32.316  0.00  0.00     0.025 A 
ATOM     12  C   UNL d   1      56.715   0.666  31.958  0.00  0.00     0.000 A 
ATOM     13  C   UNL d   1      57.305   0.679  32.532  0.00  0.00     0.002 A 
ENDROOT
BRANCH   4  14
ATOM     14  S   UNL d   1      60.229   0.661  29.782  0.00  0.00    -0.066 SA
BRANCH  14  15
ATOM     15  C   UNL d   1      60.717   0.277  29.238  0.00  0.00     0.031 C 
ATOM     16  C   UNL d   1      60.910   0.643  28.526  0.00  0.00     0.007 C 
ATOM     17  C   UNL d   1      61.009  -0.471  29.409  0.00  0.00     0.007 C 
ENDBRANCH  14  15
ENDBRANCH   4  14
TORSDOF 2
ENDMDL
MODEL 7
REMARK VINA RESULT:      -2.6      1.610      3.721
REMARK  2 active torsions:
REMARK  status: ('A' for Active; 'I' for Inactive)
REMARK    1  A    between atoms: S_8  and  C_4 
REMARK    2  A    between atoms: C_12  and  S_8 
ROOT
ATOM      1  C   UNL d   1      58.003  -0.861  30.417  0.00  0.00     0.141 A 
ATOM      2  O   UNL d   1      57.851  -1.644  30.208  0.00  0.00    -0.303 OA
ATOM      3  C   UNL d   1      58.635  -0.588  29.958  0.00  0.00     0.110 A 
ATOM      4  C   UNL d   1      57.647  -0.364  30.965  0.00  0.00     0.137 A 
ATOM      5  C   UNL d   1      58.872  -1.203  29.467  0.00  0.00     0.043 A 
ATOM      6  C   UNL d   1      58.392  -1.858  29.616  0.00  0.00     0.102 A 
ATOM      7  N   UNL d   1      57.922   0.414  31.059  0.00  0.00    -0.215 NA
ATOM      8  N   UNL d   1      58.903   0.183  30.055  0.00  0.00    -0.222 NA
ATOM      9  C   UNL d   1      58.548   0.681  30.603  0.00  0.00     0.200 A 
ATOM     10  C   UNL d   1      59.472  -1.250  28.896  0.00  0.00     0.004 A 
ATOM     11  C   UNL d   1      58.505  -2.563  29.198  0.00  0.00     0.025 A 
ATOM     12  C   UNL d   1      59.585  -1.955  28.478  0.00  0.00     0.000 A 
ATOM     13  C   UNL d   1      59.104  -2.605  28.630  0.00  0.00     0.002 A 
ENDROOT
BRANCH   4  14
ATOM     14  S   UNL d   1      57.012  -0.630  31.429  0.00  0.00    -0.066 SA
BRANCH  14  15
ATOM     15  C   UNL d   1      56.740  -0.163  32.054  0.00  0.00     0.031 C 
ATOM     16  C   UNL d   1      56.860  -0.404  32.832  0.00  0.00     0.007 C 
ATOM     17  C   UNL d   1      56.351   0.542  31.896  0.00  0.00     0.007 C 
ENDBRANCH  14  15
ENDBRANCH   4  14
TORSDOF 2
ENDMDL
