MODEL 1
REMARK VINA RESULT:      20.8      0.000      0.000
REMARK  2 active torsions:
REMARK  status: ('A' for Active; 'I' for Inactive)
REMARK    1  A    between atoms: C_7  and  C_1 
REMARK    2  A    between atoms: C_8  and  C_7 
ROOT
ATOM      1  C   UNL d   1      58.041  49.673  50.713  0.00  0.00     0.118 A 
ATOM      2  N   UNL d   1      57.501  49.639  49.390  0.00  0.00    -0.178 NA
ATOM      3  N   UNL d   1      56.629  49.605  50.515  0.00  0.00    -0.178 NA
ATOM      4  C   UNL d   1      58.155  49.673  49.897  0.00  0.00     0.286 A 
ATOM      5  C   UNL d   1      57.282  49.639  51.023  0.00  0.00     0.286 A 
ATOM      6  C   UNL d   1      56.722  49.604  49.688  0.00  0.00     0.226 A 
ATOM      7  S   UNL d   1      56.073  49.570  49.184  0.00  0.00    -0.037 SA
ATOM      8  O   UNL d   1      58.925  49.707  49.572  0.00  0.00    -0.265 OA
ATOM      9  O   UNL d   1      57.159  49.638  51.850  0.00  0.00    -0.265 OA
ENDROOT
BRANCH   1  10
ATOM     10  C   UNL d   1      58.697  49.707  51.222  0.00  0.00     0.034 C 
BRANCH  10  11
ATOM     11  C   UNL d   1      59.444  49.562  50.926  0.00  0.00     0.100 A 
ATOM     12  O   UNL d   1      60.022  49.237  51.421  0.00  0.00    -0.307 OA
ATOM     13  C   UNL d   1      60.711  49.154  50.974  0.00  0.00     0.100 A 
ATOM     14  C   UNL d   1      61.432  48.851  51.243  0.00  0.00     0.027 C 
ATOM     15  C   UNL d   1      60.560  49.420  50.228  0.00  0.00     0.027 A 
ATOM     16  C   UNL d   1      59.778  49.678  50.175  0.00  0.00     0.027 A 
ENDBRANCH  10  11
ENDBRANCH   1  10
TORSDOF 2
ENDMDL
MODEL 2
REMARK VINA RESULT:      22.9      0.568      1.381
REMARK  2 active torsions:
REMARK  status: ('A' for Active; 'I' for Inactive)
REMARK    1  A    between atoms: C_7  and  C_1 
REMARK    2  A    between atoms: C_8  and  C_7 
ROOT
ATOM      1  C   UNL d   1      58.464  49.704  50.707  0.00  0.00     0.118 A 
ATOM      2  N   UNL d   1      57.060  49.701  50.439  0.00  0.00    -0.178 NA
ATOM      3  N   UNL d   1      57.991  49.702  49.360  0.00  0.00    -0.178 NA
ATOM      4  C   UNL d   1      57.687  49.702  50.980  0.00  0.00     0.286 A 
ATOM      5  C   UNL d   1      58.618  49.703  49.900  0.00  0.00     0.286 A 
ATOM      6  C   UNL d   1      57.198  49.701  49.615  0.00  0.00     0.226 A 
ATOM      7  S   UNL d   1      56.575  49.699  49.078  0.00  0.00    -0.037 SA
ATOM      8  O   UNL d   1      57.521  49.703  51.800  0.00  0.00    -0.265 OA
ATOM      9  O   UNL d   1      59.404  49.705  49.616  0.00  0.00    -0.265 OA
ENDROOT
BRANCH   1  10
ATOM     10  C   UNL d   1      59.093  49.705  51.249  0.00  0.00     0.034 C 
BRANCH  10  11
ATOM     11  C   UNL d   1      59.809  49.375  51.036  0.00  0.00     0.100 A 
ATOM     12  O   UNL d   1      59.979  48.595  51.255  0.00  0.00    -0.307 OA
ATOM     13  C   UNL d   1      60.732  48.416  50.965  0.00  0.00     0.100 A 
ATOM     14  C   UNL d   1      61.129  47.696  51.054  0.00  0.00     0.027 C 
ATOM     15  C   UNL d   1      61.013  49.066  50.581  0.00  0.00     0.027 A 
ATOM     16  C   UNL d   1      60.457  49.674  50.612  0.00  0.00     0.027 A 
ENDBRANCH  10  11
ENDBRANCH   1  10
TORSDOF 2
ENDMDL
