MODEL 1
REMARK VINA RESULT:      -3.1      0.000      0.000
REMARK  2 active torsions:
REMARK  status: ('A' for Active; 'I' for Inactive)
REMARK    1  A    between atoms: C_8  and  C_1 
REMARK    2  A    between atoms: C_7  and  C_2 
ROOT
ATOM      1  C   UNL d   1      29.734  16.828 -24.029  0.00  0.00     0.066 A 
ATOM      2  C   UNL d   1      29.703  17.607 -24.294  0.00  0.00     0.174 A 
ATOM      3  C   UNL d   1      30.461  16.439 -23.931  0.00  0.00     0.199 A 
ATOM      4  O   UNL d   1      30.408  18.011 -24.467  0.00  0.00    -0.303 OA
ATOM      5  C   UNL d   1      31.156  16.859 -24.108  0.00  0.00     0.062 A 
ATOM      6  C   UNL d   1      31.128  17.626 -24.369  0.00  0.00     0.106 A 
ATOM      7  C   UNL d   1      31.825  18.043 -24.546  0.00  0.00     0.067 A 
ATOM      8  C   UNL d   1      31.896  16.477 -24.013  0.00  0.00     0.009 A 
ATOM      9  O   UNL d   1      30.477  15.648 -23.660  0.00  0.00    -0.286 OA
ATOM     10  C   UNL d   1      32.553  17.659 -24.449  0.00  0.00     0.198 A 
ATOM     11  C   UNL d   1      32.585  16.872 -24.181  0.00  0.00     0.042 A 
ATOM     12  O   UNL d   1      33.231  18.065 -24.620  0.00  0.00    -0.286 OA
ENDROOT
BRANCH   1  13
ATOM     13  C   UNL d   1      29.060  16.416 -23.855  0.00  0.00     0.005 A 
ATOM     14  C   UNL d   1      28.742  15.874 -24.369  0.00  0.00     0.000 A 
ATOM     15  C   UNL d   1      29.076  15.703 -25.097  0.00  0.00     0.000 C 
ATOM     16  C   UNL d   1      28.049  15.455 -24.183  0.00  0.00     0.000 A 
ATOM     17  C   UNL d   1      27.685  15.601 -23.461  0.00  0.00     0.000 A 
ATOM     18  C   UNL d   1      27.997  16.148 -22.929  0.00  0.00     0.000 A 
ATOM     19  C   UNL d   1      28.677  16.552 -23.124  0.00  0.00     0.000 A 
ENDBRANCH   1  13
BRANCH   2  20
ATOM     20  C   UNL d   1      28.973  17.985 -24.389  0.00  0.00     0.440 C 
ATOM     21  F   UNL d   1      28.664  17.967 -25.097  0.00  0.00    -0.164 F 
ATOM     22  F   UNL d   1      28.249  18.345 -24.540  0.00  0.00    -0.164 F 
ATOM     23  F   UNL d   1      28.581  18.386 -23.700  0.00  0.00    -0.164 F 
ENDBRANCH   2  20
TORSDOF 2
ENDMDL
MODEL 2
REMARK VINA RESULT:      -3.0      1.946      4.019
REMARK  2 active torsions:
REMARK  status: ('A' for Active; 'I' for Inactive)
REMARK    1  A    between atoms: C_8  and  C_1 
REMARK    2  A    between atoms: C_7  and  C_2 
ROOT
ATOM      1  C   UNL d   1      31.231  16.861 -24.042  0.00  0.00     0.066 A 
ATOM      2  C   UNL d   1      31.282  16.198 -23.555  0.00  0.00     0.174 A 
ATOM      3  C   UNL d   1      30.499  17.120 -24.334  0.00  0.00     0.199 A 
ATOM      4  O   UNL d   1      30.592  15.782 -23.353  0.00  0.00    -0.303 OA
ATOM      5  C   UNL d   1      29.819  16.692 -24.122  0.00  0.00     0.062 A 
ATOM      6  C   UNL d   1      29.867  16.038 -23.643  0.00  0.00     0.106 A 
ATOM      7  C   UNL d   1      29.185  15.612 -23.432  0.00  0.00     0.067 A 
ATOM      8  C   UNL d   1      29.074  16.943 -24.410  0.00  0.00     0.009 A 
ATOM      9  O   UNL d   1      30.462  17.795 -24.827  0.00  0.00    -0.286 OA
ATOM     10  C   UNL d   1      28.451  15.868 -23.722  0.00  0.00     0.198 A 
ATOM     11  C   UNL d   1      28.399  16.537 -24.213  0.00  0.00     0.042 A 
ATOM     12  O   UNL d   1      27.789  15.453 -23.517  0.00  0.00    -0.286 OA
ENDROOT
BRANCH   1  13
ATOM     13  C   UNL d   1      31.890  17.281 -24.251  0.00  0.00     0.005 A 
ATOM     14  C   UNL d   1      32.098  17.971 -23.877  0.00  0.00     0.000 A 
ATOM     15  C   UNL d   1      31.659  18.293 -23.266  0.00  0.00     0.000 C 
ATOM     16  C   UNL d   1      32.777  18.396 -24.098  0.00  0.00     0.000 A 
ATOM     17  C   UNL d   1      33.241  18.103 -24.708  0.00  0.00     0.000 A 
ATOM     18  C   UNL d   1      33.043  17.402 -25.097  0.00  0.00     0.000 A 
ATOM     19  C   UNL d   1      32.374  16.996 -24.870  0.00  0.00     0.000 A 
ENDBRANCH   1  13
BRANCH   2  20
ATOM     20  C   UNL d   1      32.017  15.948 -23.270  0.00  0.00     0.440 C 
ATOM     21  F   UNL d   1      32.419  15.469 -23.723  0.00  0.00    -0.164 F 
ATOM     22  F   UNL d   1      32.754  15.668 -23.036  0.00  0.00    -0.164 F 
ATOM     23  F   UNL d   1      32.312  16.227 -22.480  0.00  0.00    -0.164 F 
ENDBRANCH   2  20
TORSDOF 2
ENDMDL
MODEL 3
REMARK VINA RESULT:      -1.6      1.849      3.445
REMARK  2 active torsions:
REMARK  status: ('A' for Active; 'I' for Inactive)
REMARK    1  A    between atoms: C_8  and  C_1 
REMARK    2  A    between atoms: C_7  and  C_2 
ROOT
ATOM      1  C   UNL d   1      31.387  16.890 -23.968  0.00  0.00     0.066 A 
ATOM      2  C   UNL d   1      31.464  17.710 -23.983  0.00  0.00     0.174 A 
ATOM      3  C   UNL d   1      30.673  16.525 -24.183  0.00  0.00     0.199 A 
ATOM      4  O   UNL d   1      30.819  18.180 -24.215  0.00  0.00    -0.303 OA
ATOM      5  C   UNL d   1      30.039  17.010 -24.412  0.00  0.00     0.062 A 
ATOM      6  C   UNL d   1      30.112  17.818 -24.427  0.00  0.00     0.106 A 
ATOM      7  C   UNL d   1      29.476  18.301 -24.658  0.00  0.00     0.067 A 
ATOM      8  C   UNL d   1      29.313  16.653 -24.631  0.00  0.00     0.009 A 
ATOM      9  O   UNL d   1      30.610  15.691 -24.163  0.00  0.00    -0.286 OA
ATOM     10  C   UNL d   1      28.761  17.940 -24.873  0.00  0.00     0.198 A 
ATOM     11  C   UNL d   1      28.683  17.112 -24.858  0.00  0.00     0.042 A 
ATOM     12  O   UNL d   1      28.142  18.410 -25.096  0.00  0.00    -0.286 OA
ENDROOT
BRANCH   1  13
ATOM     13  C   UNL d   1      32.002  16.415 -23.745  0.00  0.00     0.005 A 
ATOM     14  C   UNL d   1      32.505  16.079 -24.287  0.00  0.00     0.000 A 
ATOM     15  C   UNL d   1      32.430  16.196 -25.094  0.00  0.00     0.000 C 
ATOM     16  C   UNL d   1      33.135  15.592 -24.049  0.00  0.00     0.000 A 
ATOM     17  C   UNL d   1      33.241  15.453 -23.247  0.00  0.00     0.000 A 
ATOM     18  C   UNL d   1      32.738  15.786 -22.685  0.00  0.00     0.000 A 
ATOM     19  C   UNL d   1      32.124  16.263 -22.932  0.00  0.00     0.000 A 
ENDBRANCH   1  13
BRANCH   2  20
ATOM     20  C   UNL d   1      32.180  18.065 -23.767  0.00  0.00     0.440 C 
ATOM     21  F   UNL d   1      32.270  18.233 -23.018  0.00  0.00    -0.164 F 
ATOM     22  F   UNL d   1      32.872  18.417 -23.496  0.00  0.00    -0.164 F 
ATOM     23  F   UNL d   1      32.800  18.234 -24.379  0.00  0.00    -0.164 F 
ENDBRANCH   2  20
TORSDOF 2
ENDMDL
