MODEL 1
REMARK VINA RESULT:      70.3      0.000      0.000
REMARK  5 active torsions:
REMARK  status: ('A' for Active; 'I' for Inactive)
REMARK    1  A    between atoms: S_2  and  C_1 
REMARK    2  A    between atoms: C_9  and  S_2 
REMARK    3  A    between atoms: N_14  and  C_10 
REMARK    4  A    between atoms: C_22  and  N_14 
REMARK    5  A    between atoms: C_23  and  N_14 
ROOT
ATOM      1  C   UNL d   1     -50.082  27.019  34.059  0.00  0.00     0.151 A 
ATOM      2  C   UNL d   1     -50.375  27.730  33.760  0.00  0.00     0.311 A 
ATOM      3  C   UNL d   1     -49.386  27.017  34.514  0.00  0.00     0.019 A 
ATOM      4  O   UNL d   1     -49.972  28.439  33.915  0.00  0.00    -0.272 OA
ATOM      5  C   UNL d   1     -49.284  28.434  34.366  0.00  0.00     0.105 A 
ATOM      6  C   UNL d   1     -48.991  27.723  34.665  0.00  0.00     0.024 A 
ATOM      7  C   UNL d   1     -48.887  29.139  34.518  0.00  0.00     0.042 A 
ATOM      8  C   UNL d   1     -48.199  29.134  34.969  0.00  0.00     0.066 A 
ATOM      9  O   UNL d   1     -51.067  27.732  33.307  0.00  0.00    -0.258 OA
ATOM     10  C   UNL d   1     -48.302  27.717  35.117  0.00  0.00     0.004 A 
ATOM     11  C   UNL d   1     -47.906  28.423  35.268  0.00  0.00     0.018 A 
ENDROOT
BRANCH   1  12
ATOM     12  S   UNL d   1     -50.478  26.303  33.908  0.00  0.00     0.215 S 
ATOM     13  O   UNL d   1     -51.085  26.526  34.441  0.00  0.00    -0.217 OA
ATOM     14  O   UNL d   1     -49.877  26.074  33.375  0.00  0.00    -0.217 OA
BRANCH  12  15
ATOM     15  C   UNL d   1     -50.879  25.581  33.757  0.00  0.00     0.088 A 
ATOM     16  C   UNL d   1     -50.457  24.875  33.755  0.00  0.00     0.011 A 
ATOM     17  C   UNL d   1     -50.846  24.164  33.606  0.00  0.00     0.001 A 
ATOM     18  C   UNL d   1     -51.658  24.160  33.460  0.00  0.00     0.000 A 
ATOM     19  C   UNL d   1     -52.081  24.871  33.462  0.00  0.00     0.001 A 
ATOM     20  C   UNL d   1     -52.059  23.442  33.309  0.00  0.00     0.000 C 
ATOM     21  C   UNL d   1     -51.691  25.582  33.611  0.00  0.00     0.011 A 
ENDBRANCH  12  15
ENDBRANCH   1  12
BRANCH   8  22
ATOM     22  N   UNL d   1     -47.793  29.845  35.126  0.00  0.00    -0.304 N 
BRANCH  22  23
ATOM     23  C   UNL d   1     -47.445  30.268  34.504  0.00  0.00     0.080 C 
ATOM     24  C   UNL d   1     -46.970  30.923  34.665  0.00  0.00     0.021 C 
ENDBRANCH  22  23
BRANCH  22  25
ATOM     25  C   UNL d   1     -47.742  30.123  35.901  0.00  0.00     0.080 C 
ATOM     26  C   UNL d   1     -47.009  30.325  36.220  0.00  0.00     0.021 C 
ENDBRANCH  22  25
ENDBRANCH   8  22
TORSDOF 5
ENDMDL
