MODEL 1
REMARK VINA RESULT:      35.2      0.000      0.000
REMARK  6 active torsions:
REMARK  status: ('A' for Active; 'I' for Inactive)
REMARK    1  A    between atoms: N_3  and  S_1 
REMARK    2  A    between atoms: C_5  and  S_1 
REMARK    3  A    between atoms: S_2  and  N_4 
REMARK    4  A    between atoms: C_6  and  S_2 
REMARK    5  A    between atoms: O_25  and  C_15 
REMARK    6  A    between atoms: O_26  and  C_16 
ROOT
ATOM      1  N   UNL d   1      45.717 -15.342  43.947  0.00  0.00    -0.228 N 
ATOM      2  N   UNL d   1      46.003 -16.964  43.830  0.00  0.00    -0.226 N 
ATOM      3  C   UNL d   1      45.246 -15.817  43.456  0.00  0.00     0.093 A 
ATOM      4  C   UNL d   1      45.386 -16.620  43.397  0.00  0.00     0.110 A 
ATOM      5  C   UNL d   1      46.331 -15.683  44.378  0.00  0.00     0.111 A 
ATOM      6  C   UNL d   1      46.476 -16.498  44.321  0.00  0.00     0.111 A 
ATOM      7  C   UNL d   1      44.628 -15.473  43.022  0.00  0.00     0.021 C 
ENDROOT
BRANCH   1   8
ATOM      8  S   UNL d   1      45.570 -14.539  44.001  0.00  0.00     0.273 S 
ATOM      9  O   UNL d   1      45.137 -14.156  43.420  0.00  0.00    -0.200 OA
ATOM     10  O   UNL d   1      45.861 -14.109  44.647  0.00  0.00    -0.200 OA
BRANCH   8  11
ATOM     11  C   UNL d   1      45.435 -13.730  44.077  0.00  0.00     0.126 A 
ATOM     12  C   UNL d   1      45.971 -13.196  43.746  0.00  0.00     0.106 A 
ATOM     13  C   UNL d   1      45.848 -12.390  43.815  0.00  0.00     0.025 A 
ATOM     14  C   UNL d   1      45.175 -12.098  44.224  0.00  0.00     0.002 A 
ATOM     15  C   UNL d   1      44.640 -12.636  44.554  0.00  0.00     0.001 A 
ATOM     16  C   UNL d   1      44.771 -13.447  44.480  0.00  0.00     0.015 A 
ATOM     17  C   UNL d   1      43.981 -12.361  44.955  0.00  0.00     0.000 C 
BRANCH  12  18
ATOM     18  O   UNL d   1      46.631 -13.470  43.346  0.00  0.00    -0.327 OA
ATOM     19  C   UNL d   1      46.641 -13.456  42.520  0.00  0.00     0.181 C 
ENDBRANCH  12  18
ENDBRANCH   8  11
ENDBRANCH   1   8
BRANCH   2  20
ATOM     20  S   UNL d   1      46.144 -17.775  43.770  0.00  0.00     0.273 S 
ATOM     21  O   UNL d   1      46.641 -18.065  43.178  0.00  0.00    -0.200 OA
ATOM     22  O   UNL d   1      45.791 -18.297  44.300  0.00  0.00    -0.200 OA
BRANCH  20  23
ATOM     23  C   UNL d   1      46.303 -18.581  43.688  0.00  0.00     0.126 A 
ATOM     24  C   UNL d   1      46.385 -18.905  42.935  0.00  0.00     0.106 A 
ATOM     25  C   UNL d   1      46.542 -19.703  42.857  0.00  0.00     0.025 A 
ATOM     26  C   UNL d   1      46.618 -20.180  43.524  0.00  0.00     0.002 A 
ATOM     27  C   UNL d   1      46.534 -19.850  44.275  0.00  0.00     0.001 A 
ATOM     28  C   UNL d   1      46.376 -19.044  44.353  0.00  0.00     0.015 A 
ATOM     29  C   UNL d   1      46.609 -20.324  44.951  0.00  0.00     0.000 C 
BRANCH  24  30
ATOM     30  O   UNL d   1      46.311 -18.434  42.271  0.00  0.00    -0.327 OA
ATOM     31  C   UNL d   1      46.319 -18.770  41.522  0.00  0.00     0.181 C 
ENDBRANCH  24  30
ENDBRANCH  20  23
ENDBRANCH   2  20
TORSDOF 6
ENDMDL
