MODEL 1
REMARK VINA RESULT:      -8.0      0.000      0.000
REMARK  4 active torsions:
REMARK  status: ('A' for Active; 'I' for Inactive)
REMARK    1  A    between atoms: N_2  and  S_1 
REMARK    2  A    between atoms: C_4  and  S_1 
REMARK    3  A    between atoms: C_15  and  C_3 
REMARK    4  A    between atoms: O_16  and  C_12 
ROOT
ATOM      1  S   UNL d   1     -47.933  13.590  22.562  0.00  0.00     0.273 S 
ATOM      2  O   UNL d   1     -48.000  13.302  21.792  0.00  0.00    -0.200 OA
ATOM      3  O   UNL d   1     -47.867  13.878  23.333  0.00  0.00    -0.200 OA
ENDROOT
BRANCH   1   4
ATOM      4  N   UNL d   1     -47.152  13.318  22.597  0.00  0.00    -0.213 N 
ATOM      5  C   UNL d   1     -46.893  12.642  22.994  0.00  0.00     0.157 A 
ATOM      6  N   UNL d   1     -46.074  12.583  22.881  0.00  0.00    -0.226 NA
ATOM      7  C   UNL d   1     -45.831  13.220  22.417  0.00  0.00     0.101 A 
ATOM      8  C   UNL d   1     -46.499  13.677  22.239  0.00  0.00     0.112 A 
ATOM      9  C   UNL d   1     -45.060  13.376  22.170  0.00  0.00     0.022 C 
BRANCH   5  10
ATOM     10  C   UNL d   1     -47.362  12.124  23.422  0.00  0.00     0.038 C 
ATOM     11  C   UNL d   1     -47.044  11.417  23.698  0.00  0.00     0.003 C 
ENDBRANCH   5  10
ENDBRANCH   1   4
BRANCH   1  12
ATOM     12  C   UNL d   1     -48.712  13.861  22.528  0.00  0.00     0.106 A 
ATOM     13  C   UNL d   1     -49.336  13.322  22.501  0.00  0.00     0.037 A 
ATOM     14  C   UNL d   1     -50.114  13.592  22.467  0.00  0.00     0.095 A 
ATOM     15  C   UNL d   1     -50.269  14.403  22.460  0.00  0.00     0.022 A 
ATOM     16  C   UNL d   1     -49.645  14.942  22.487  0.00  0.00     0.003 A 
ATOM     17  C   UNL d   1     -51.047  14.674  22.426  0.00  0.00     0.002 C 
ATOM     18  C   UNL d   1     -48.867  14.671  22.521  0.00  0.00     0.012 A 
ATOM     19  C   UNL d   1     -48.246  15.202  22.549  0.00  0.00     0.001 C 
BRANCH  14  20
ATOM     20  O   UNL d   1     -50.739  13.049  22.439  0.00  0.00    -0.328 OA
ATOM     21  C   UNL d   1     -50.796  12.458  23.012  0.00  0.00     0.181 C 
ENDBRANCH  14  20
ENDBRANCH   1  12
TORSDOF 4
ENDMDL
MODEL 2
REMARK VINA RESULT:      -8.0      1.226      3.922
REMARK  4 active torsions:
REMARK  status: ('A' for Active; 'I' for Inactive)
REMARK    1  A    between atoms: N_2  and  S_1 
REMARK    2  A    between atoms: C_4  and  S_1 
REMARK    3  A    between atoms: C_15  and  C_3 
REMARK    4  A    between atoms: O_16  and  C_12 
ROOT
ATOM      1  S   UNL d   1     -48.465  12.960  22.633  0.00  0.00     0.273 S 
ATOM      2  O   UNL d   1     -48.647  13.166  23.411  0.00  0.00    -0.200 OA
ATOM      3  O   UNL d   1     -48.283  12.754  21.855  0.00  0.00    -0.200 OA
ENDROOT
BRANCH   1   4
ATOM      4  N   UNL d   1     -49.123  13.386  22.366  0.00  0.00    -0.213 N 
ATOM      5  C   UNL d   1     -49.216  14.206  22.407  0.00  0.00     0.157 A 
ATOM      6  N   UNL d   1     -49.954  14.391  22.077  0.00  0.00    -0.226 NA
ATOM      7  C   UNL d   1     -50.311  13.688  21.835  0.00  0.00     0.101 A 
ATOM      8  C   UNL d   1     -49.797  13.064  22.013  0.00  0.00     0.112 A 
ATOM      9  C   UNL d   1     -51.051  13.617  21.477  0.00  0.00     0.022 C 
BRANCH   5  10
ATOM     10  C   UNL d   1     -48.676  14.738  22.718  0.00  0.00     0.038 C 
ATOM     11  C   UNL d   1     -48.793  15.547  22.613  0.00  0.00     0.003 C 
ENDBRANCH   5  10
ENDBRANCH   1   4
BRANCH   1  12
ATOM     12  C   UNL d   1     -47.810  12.535  22.899  0.00  0.00     0.106 A 
ATOM     13  C   UNL d   1     -47.048  12.825  22.766  0.00  0.00     0.037 A 
ATOM     14  C   UNL d   1     -46.393  12.401  23.032  0.00  0.00     0.095 A 
ATOM     15  C   UNL d   1     -46.499  11.686  23.431  0.00  0.00     0.022 A 
ATOM     16  C   UNL d   1     -47.260  11.397  23.564  0.00  0.00     0.003 A 
ATOM     17  C   UNL d   1     -45.844  11.261  23.697  0.00  0.00     0.002 C 
ATOM     18  C   UNL d   1     -47.915  11.821  23.298  0.00  0.00     0.012 A 
ATOM     19  C   UNL d   1     -48.670  11.538  23.427  0.00  0.00     0.001 C 
BRANCH  14  20
ATOM     20  O   UNL d   1     -45.629  12.693  22.897  0.00  0.00    -0.328 OA
ATOM     21  C   UNL d   1     -45.495  13.221  22.278  0.00  0.00     0.181 C 
ENDBRANCH  14  20
ENDBRANCH   1  12
TORSDOF 4
ENDMDL
MODEL 3
REMARK VINA RESULT:      -7.6      1.299      3.557
REMARK  4 active torsions:
REMARK  status: ('A' for Active; 'I' for Inactive)
REMARK    1  A    between atoms: N_2  and  S_1 
REMARK    2  A    between atoms: C_4  and  S_1 
REMARK    3  A    between atoms: C_15  and  C_3 
REMARK    4  A    between atoms: O_16  and  C_12 
ROOT
ATOM      1  S   UNL d   1     -48.623  14.015  22.868  0.00  0.00     0.273 S 
ATOM      2  O   UNL d   1     -48.673  14.031  22.045  0.00  0.00    -0.200 OA
ATOM      3  O   UNL d   1     -48.573  13.999  23.692  0.00  0.00    -0.200 OA
ENDROOT
BRANCH   1   4
ATOM      4  N   UNL d   1     -49.420  14.232  22.921  0.00  0.00    -0.213 N 
ATOM      5  C   UNL d   1     -50.066  13.749  22.740  0.00  0.00     0.157 A 
ATOM      6  N   UNL d   1     -50.755  14.191  22.871  0.00  0.00    -0.226 NA
ATOM      7  C   UNL d   1     -50.533  14.942  23.132  0.00  0.00     0.101 A 
ATOM      8  C   UNL d   1     -49.705  14.969  23.163  0.00  0.00     0.112 A 
ATOM      9  C   UNL d   1     -51.044  15.558  23.328  0.00  0.00     0.022 C 
BRANCH   5  10
ATOM     10  C   UNL d   1     -50.029  12.974  22.478  0.00  0.00     0.038 C 
ATOM     11  C   UNL d   1     -50.724  12.542  22.381  0.00  0.00     0.003 C 
ENDBRANCH   5  10
ENDBRANCH   1   4
BRANCH   1  12
ATOM     12  C   UNL d   1     -47.829  13.799  22.816  0.00  0.00     0.106 A 
ATOM     13  C   UNL d   1     -47.601  13.022  22.981  0.00  0.00     0.037 A 
ATOM     14  C   UNL d   1     -46.807  12.806  22.929  0.00  0.00     0.095 A 
ATOM     15  C   UNL d   1     -46.240  13.366  22.711  0.00  0.00     0.022 A 
ATOM     16  C   UNL d   1     -46.469  14.141  22.546  0.00  0.00     0.003 A 
ATOM     17  C   UNL d   1     -45.446  13.149  22.659  0.00  0.00     0.002 C 
ATOM     18  C   UNL d   1     -47.262  14.357  22.599  0.00  0.00     0.012 A 
ATOM     19  C   UNL d   1     -47.493  15.124  22.436  0.00  0.00     0.001 C 
BRANCH  14  20
ATOM     20  O   UNL d   1     -46.580  12.026  23.095  0.00  0.00    -0.328 OA
ATOM     21  C   UNL d   1     -46.961  11.606  23.694  0.00  0.00     0.181 C 
ENDBRANCH  14  20
ENDBRANCH   1  12
TORSDOF 4
ENDMDL
MODEL 4
REMARK VINA RESULT:      -6.1      8.324      9.576
REMARK  4 active torsions:
REMARK  status: ('A' for Active; 'I' for Inactive)
REMARK    1  A    between atoms: N_2  and  S_1 
REMARK    2  A    between atoms: C_4  and  S_1 
REMARK    3  A    between atoms: C_15  and  C_3 
REMARK    4  A    between atoms: O_16  and  C_12 
ROOT
ATOM      1  S   UNL d   1     -40.193  15.282  19.135  0.00  0.00     0.273 S 
ATOM      2  O   UNL d   1     -39.695  15.921  18.979  0.00  0.00    -0.200 OA
ATOM      3  O   UNL d   1     -40.691  14.643  19.291  0.00  0.00    -0.200 OA
ENDROOT
BRANCH   1   4
ATOM      4  N   UNL d   1     -40.417  15.262  18.339  0.00  0.00    -0.213 N 
ATOM      5  C   UNL d   1     -40.145  14.725  17.773  0.00  0.00     0.157 A 
ATOM      6  N   UNL d   1     -40.513  14.909  17.054  0.00  0.00    -0.226 NA
ATOM      7  C   UNL d   1     -41.009  15.556  17.177  0.00  0.00     0.101 A 
ATOM      8  C   UNL d   1     -40.951  15.776  17.974  0.00  0.00     0.112 A 
ATOM      9  C   UNL d   1     -41.482  15.921  16.609  0.00  0.00     0.022 C 
BRANCH   5  10
ATOM     10  C   UNL d   1     -39.607  14.120  17.902  0.00  0.00     0.038 C 
ATOM     11  C   UNL d   1     -39.355  13.656  17.270  0.00  0.00     0.003 C 
ENDBRANCH   5  10
ENDBRANCH   1   4
BRANCH   1  12
ATOM     12  C   UNL d   1     -39.970  15.301  19.929  0.00  0.00     0.106 A 
ATOM     13  C   UNL d   1     -39.237  14.998  20.160  0.00  0.00     0.037 A 
ATOM     14  C   UNL d   1     -39.014  15.018  20.953  0.00  0.00     0.095 A 
ATOM     15  C   UNL d   1     -39.523  15.340  21.517  0.00  0.00     0.022 A 
ATOM     16  C   UNL d   1     -40.255  15.643  21.287  0.00  0.00     0.003 A 
ATOM     17  C   UNL d   1     -39.300  15.360  22.311  0.00  0.00     0.002 C 
ATOM     18  C   UNL d   1     -40.478  15.623  20.494  0.00  0.00     0.012 A 
ATOM     19  C   UNL d   1     -41.202  15.922  20.261  0.00  0.00     0.001 C 
BRANCH  14  20
ATOM     20  O   UNL d   1     -38.277  14.713  21.182  0.00  0.00    -0.328 OA
ATOM     21  C   UNL d   1     -38.156  13.898  21.195  0.00  0.00     0.181 C 
ENDBRANCH  14  20
ENDBRANCH   1  12
TORSDOF 4
ENDMDL
MODEL 5
REMARK VINA RESULT:      -6.0      8.380      9.847
REMARK  4 active torsions:
REMARK  status: ('A' for Active; 'I' for Inactive)
REMARK    1  A    between atoms: N_2  and  S_1 
REMARK    2  A    between atoms: C_4  and  S_1 
REMARK    3  A    between atoms: C_15  and  C_3 
REMARK    4  A    between atoms: O_16  and  C_12 
ROOT
ATOM      1  S   UNL d   1     -39.589  14.585  18.114  0.00  0.00     0.273 S 
ATOM      2  O   UNL d   1     -40.254  14.140  17.912  0.00  0.00    -0.200 OA
ATOM      3  O   UNL d   1     -38.924  15.029  18.317  0.00  0.00    -0.200 OA
ENDROOT
BRANCH   1   4
ATOM      4  N   UNL d   1     -39.194  14.299  17.445  0.00  0.00    -0.213 N 
ATOM      5  C   UNL d   1     -38.813  13.569  17.385  0.00  0.00     0.157 A 
ATOM      6  N   UNL d   1     -38.494  13.513  16.621  0.00  0.00    -0.226 NA
ATOM      7  C   UNL d   1     -38.680  14.207  16.215  0.00  0.00     0.101 A 
ATOM      8  C   UNL d   1     -39.114  14.695  16.725  0.00  0.00     0.112 A 
ATOM      9  C   UNL d   1     -38.471  14.386  15.438  0.00  0.00     0.022 C 
BRANCH   5  10
ATOM     10  C   UNL d   1     -38.759  13.001  17.974  0.00  0.00     0.038 C 
ATOM     11  C   UNL d   1     -38.336  12.308  17.838  0.00  0.00     0.003 C 
ENDBRANCH   5  10
ENDBRANCH   1   4
BRANCH   1  12
ATOM     12  C   UNL d   1     -39.983  14.869  18.781  0.00  0.00     0.106 A 
ATOM     13  C   UNL d   1     -39.902  14.482  19.506  0.00  0.00     0.037 A 
ATOM     14  C   UNL d   1     -40.296  14.766  20.171  0.00  0.00     0.095 A 
ATOM     15  C   UNL d   1     -40.771  15.439  20.114  0.00  0.00     0.022 A 
ATOM     16  C   UNL d   1     -40.851  15.826  19.390  0.00  0.00     0.003 A 
ATOM     17  C   UNL d   1     -41.165  15.724  20.781  0.00  0.00     0.002 C 
ATOM     18  C   UNL d   1     -40.458  15.542  18.725  0.00  0.00     0.012 A 
ATOM     19  C   UNL d   1     -40.535  15.922  18.005  0.00  0.00     0.001 C 
BRANCH  14  20
ATOM     20  O   UNL d   1     -40.213  14.375  20.898  0.00  0.00    -0.328 OA
ATOM     21  C   UNL d   1     -39.465  14.282  21.232  0.00  0.00     0.181 C 
ENDBRANCH  14  20
ENDBRANCH   1  12
TORSDOF 4
ENDMDL
MODEL 6
REMARK VINA RESULT:      -5.9      8.174      9.744
REMARK  4 active torsions:
REMARK  status: ('A' for Active; 'I' for Inactive)
REMARK    1  A    between atoms: N_2  and  S_1 
REMARK    2  A    between atoms: C_4  and  S_1 
REMARK    3  A    between atoms: C_15  and  C_3 
REMARK    4  A    between atoms: O_16  and  C_12 
ROOT
ATOM      1  S   UNL d   1     -39.581  14.528  18.637  0.00  0.00     0.273 S 
ATOM      2  O   UNL d   1     -39.159  15.232  18.719  0.00  0.00    -0.200 OA
ATOM      3  O   UNL d   1     -40.003  13.823  18.554  0.00  0.00    -0.200 OA
ENDROOT
BRANCH   1   4
ATOM      4  N   UNL d   1     -39.486  14.567  17.815  0.00  0.00    -0.213 N 
ATOM      5  C   UNL d   1     -40.018  14.907  17.283  0.00  0.00     0.157 A 
ATOM      6  N   UNL d   1     -39.701  14.822  16.521  0.00  0.00    -0.226 NA
ATOM      7  C   UNL d   1     -38.978  14.431  16.586  0.00  0.00     0.101 A 
ATOM      8  C   UNL d   1     -38.843  14.272  17.389  0.00  0.00     0.112 A 
ATOM      9  C   UNL d   1     -38.475  14.232  15.964  0.00  0.00     0.022 C 
BRANCH   5  10
ATOM     10  C   UNL d   1     -40.730  15.265  17.474  0.00  0.00     0.038 C 
ATOM     11  C   UNL d   1     -41.192  15.600  16.881  0.00  0.00     0.003 C 
ENDBRANCH   5  10
ENDBRANCH   1   4
BRANCH   1  12
ATOM     12  C   UNL d   1     -39.676  14.489  19.455  0.00  0.00     0.106 A 
ATOM     13  C   UNL d   1     -40.343  14.822  19.810  0.00  0.00     0.037 A 
ATOM     14  C   UNL d   1     -40.437  14.783  20.628  0.00  0.00     0.095 A 
ATOM     15  C   UNL d   1     -39.865  14.411  21.092  0.00  0.00     0.022 A 
ATOM     16  C   UNL d   1     -39.199  14.078  20.737  0.00  0.00     0.003 A 
ATOM     17  C   UNL d   1     -39.960  14.372  21.911  0.00  0.00     0.002 C 
ATOM     18  C   UNL d   1     -39.105  14.117  19.920  0.00  0.00     0.012 A 
ATOM     19  C   UNL d   1     -38.446  13.788  19.564  0.00  0.00     0.001 C 
BRANCH  14  20
ATOM     20  O   UNL d   1     -41.107  15.118  20.982  0.00  0.00    -0.328 OA
ATOM     21  C   UNL d   1     -41.266  15.922  20.883  0.00  0.00     0.181 C 
ENDBRANCH  14  20
ENDBRANCH   1  12
TORSDOF 4
ENDMDL
MODEL 7
REMARK VINA RESULT:      -5.8      8.053      9.551
REMARK  4 active torsions:
REMARK  status: ('A' for Active; 'I' for Inactive)
REMARK    1  A    between atoms: N_2  and  S_1 
REMARK    2  A    between atoms: C_4  and  S_1 
REMARK    3  A    between atoms: C_15  and  C_3 
REMARK    4  A    between atoms: O_16  and  C_12 
ROOT
ATOM      1  S   UNL d   1     -39.754  14.603  19.434  0.00  0.00     0.273 S 
ATOM      2  O   UNL d   1     -40.189  13.904  19.391  0.00  0.00    -0.200 OA
ATOM      3  O   UNL d   1     -39.319  15.303  19.478  0.00  0.00    -0.200 OA
ENDROOT
BRANCH   1   4
ATOM      4  N   UNL d   1     -39.797  14.579  20.261  0.00  0.00    -0.213 N 
ATOM      5  C   UNL d   1     -40.330  15.002  20.729  0.00  0.00     0.157 A 
ATOM      6  N   UNL d   1     -40.175  14.811  21.521  0.00  0.00    -0.226 NA
ATOM      7  C   UNL d   1     -39.550  14.273  21.538  0.00  0.00     0.101 A 
ATOM      8  C   UNL d   1     -39.314  14.129  20.757  0.00  0.00     0.112 A 
ATOM      9  C   UNL d   1     -39.216  13.937  22.213  0.00  0.00     0.022 C 
BRANCH   5  10
ATOM     10  C   UNL d   1     -40.907  15.517  20.459  0.00  0.00     0.038 C 
ATOM     11  C   UNL d   1     -41.380  15.922  20.999  0.00  0.00     0.003 C 
ENDBRANCH   5  10
ENDBRANCH   1   4
BRANCH   1  12
ATOM     12  C   UNL d   1     -39.711  14.627  18.611  0.00  0.00     0.106 A 
ATOM     13  C   UNL d   1     -40.380  14.822  18.168  0.00  0.00     0.037 A 
ATOM     14  C   UNL d   1     -40.337  14.846  17.346  0.00  0.00     0.095 A 
ATOM     15  C   UNL d   1     -39.625  14.675  16.964  0.00  0.00     0.022 A 
ATOM     16  C   UNL d   1     -38.957  14.481  17.407  0.00  0.00     0.003 A 
ATOM     17  C   UNL d   1     -39.583  14.700  16.140  0.00  0.00     0.002 C 
ATOM     18  C   UNL d   1     -39.000  14.457  18.229  0.00  0.00     0.012 A 
ATOM     19  C   UNL d   1     -38.341  14.264  18.672  0.00  0.00     0.001 C 
BRANCH  14  20
ATOM     20  O   UNL d   1     -41.010  15.042  16.903  0.00  0.00    -0.328 OA
ATOM     21  C   UNL d   1     -41.329  15.802  16.954  0.00  0.00     0.181 C 
ENDBRANCH  14  20
ENDBRANCH   1  12
TORSDOF 4
ENDMDL
MODEL 8
REMARK VINA RESULT:      -5.4      8.567      9.375
REMARK  4 active torsions:
REMARK  status: ('A' for Active; 'I' for Inactive)
REMARK    1  A    between atoms: N_2  and  S_1 
REMARK    2  A    between atoms: C_4  and  S_1 
REMARK    3  A    between atoms: C_15  and  C_3 
REMARK    4  A    between atoms: O_16  and  C_12 
ROOT
ATOM      1  S   UNL d   1     -39.615  14.941  20.492  0.00  0.00     0.273 S 
ATOM      2  O   UNL d   1     -39.000  15.414  20.211  0.00  0.00    -0.200 OA
ATOM      3  O   UNL d   1     -40.229  14.467  20.772  0.00  0.00    -0.200 OA
ENDROOT
BRANCH   1   4
ATOM      4  N   UNL d   1     -39.300  14.985  21.256  0.00  0.00    -0.213 N 
ATOM      5  C   UNL d   1     -38.870  14.391  21.636  0.00  0.00     0.157 A 
ATOM      6  N   UNL d   1     -38.665  14.671  22.389  0.00  0.00    -0.226 NA
ATOM      7  C   UNL d   1     -38.969  15.434  22.470  0.00  0.00     0.101 A 
ATOM      8  C   UNL d   1     -39.363  15.630  21.768  0.00  0.00     0.112 A 
ATOM      9  C   UNL d   1     -38.894  15.919  23.133  0.00  0.00     0.022 C 
BRANCH   5  10
ATOM     10  C   UNL d   1     -38.681  13.657  21.324  0.00  0.00     0.038 C 
ATOM     11  C   UNL d   1     -38.167  13.159  21.732  0.00  0.00     0.003 C 
ENDBRANCH   5  10
ENDBRANCH   1   4
BRANCH   1  12
ATOM     12  C   UNL d   1     -39.929  14.897  19.730  0.00  0.00     0.106 A 
ATOM     13  C   UNL d   1     -39.619  14.358  19.186  0.00  0.00     0.037 A 
ATOM     14  C   UNL d   1     -39.932  14.315  18.425  0.00  0.00     0.095 A 
ATOM     15  C   UNL d   1     -40.556  14.809  18.206  0.00  0.00     0.022 A 
ATOM     16  C   UNL d   1     -40.865  15.347  18.750  0.00  0.00     0.003 A 
ATOM     17  C   UNL d   1     -40.870  14.766  17.444  0.00  0.00     0.002 C 
ATOM     18  C   UNL d   1     -40.552  15.391  19.511  0.00  0.00     0.012 A 
ATOM     19  C   UNL d   1     -40.855  15.922  20.052  0.00  0.00     0.001 C 
BRANCH  14  20
ATOM     20  O   UNL d   1     -39.620  13.774  17.880  0.00  0.00    -0.328 OA
ATOM     21  C   UNL d   1     -38.806  13.638  17.856  0.00  0.00     0.181 C 
ENDBRANCH  14  20
ENDBRANCH   1  12
TORSDOF 4
ENDMDL
