MODEL 1
REMARK VINA RESULT:      -1.5      0.000      0.000
REMARK  7 active torsions:
REMARK  status: ('A' for Active; 'I' for Inactive)
REMARK    1  A    between atoms: C_23  and  C_3 
REMARK    2  A    between atoms: S_18  and  C_5 
REMARK    3  A    between atoms: C_11  and  C_16 
REMARK       I    between atoms: N_14  and  C_11 
REMARK    4  A    between atoms: C_17  and  N_14 
REMARK    5  A    between atoms: C_16  and  C_21 
REMARK    6  A    between atoms: C_21  and  S_18 
REMARK    7  A    between atoms: O_24  and  C_22 
ROOT
ATOM      1  C   UNL d   1      31.821  16.838 -23.592  0.00  0.00     0.092 A 
ATOM      2  C   UNL d   1      30.493  16.899 -24.107  0.00  0.00     0.057 A 
ATOM      3  C   UNL d   1      31.102  16.471 -23.754  0.00  0.00     0.016 A 
ATOM      4  N   UNL d   1      31.323  18.061 -24.135  0.00  0.00    -0.239 NA
ATOM      5  C   UNL d   1      31.931  17.633 -23.782  0.00  0.00     0.120 A 
ATOM      6  C   UNL d   1      30.604  17.694 -24.297  0.00  0.00     0.081 A 
ATOM      7  C   UNL d   1      29.775  16.532 -24.269  0.00  0.00     0.193 A 
ATOM      8  C   UNL d   1      32.440  16.405 -23.234  0.00  0.00     0.103 C 
ATOM      9  N   UNL d   1      33.051  15.965 -22.876  0.00  0.00    -0.191 NA
ATOM     10  C   UNL d   1      29.269  17.756 -24.815  0.00  0.00     0.042 A 
ATOM     11  C   UNL d   1      29.159  16.961 -24.625  0.00  0.00     0.019 A 
ATOM     12  C   UNL d   1      29.996  18.122 -24.650  0.00  0.00    -0.003 A 
ATOM     13  O   UNL d   1      29.665  15.738 -24.079  0.00  0.00    -0.287 OA
ATOM     14  C   UNL d   1      29.114  18.522 -25.097  0.00  0.00     0.009 C 
ATOM     15  C   UNL d   1      28.547  17.397 -24.981  0.00  0.00     0.009 C 
ENDROOT
BRANCH   3  16
ATOM     16  C   UNL d   1      30.992  15.677 -23.564  0.00  0.00     0.001 C 
ATOM     17  C   UNL d   1      30.866  15.453 -22.781  0.00  0.00     0.000 C 
ENDBRANCH   3  16
BRANCH   5  18
ATOM     18  S   UNL d   1      32.661  17.999 -23.615  0.00  0.00    -0.067 SA
BRANCH  18  19
ATOM     19  C   UNL d   1      32.692  18.808 -23.454  0.00  0.00     0.042 C 
BRANCH  19  20
ATOM     20  C   UNL d   1      32.999  19.072 -22.734  0.00  0.00     0.070 C 
BRANCH  20  21
ATOM     21  C   UNL d   1      33.075  19.894 -22.594  0.00  0.00     0.280 C 
ATOM     22  N   UNL d   1      33.015  20.180 -21.823  0.00  0.00    -0.208 NA
ATOM     23  O   UNL d   1      33.209  20.406 -23.227  0.00  0.00    -0.265 OA
BRANCH  22  24
ATOM     24  C   UNL d   1      33.091  21.005 -21.681  0.00  0.00     0.087 A 
ATOM     25  C   UNL d   1      33.118  21.282 -20.904  0.00  0.00     0.043 A 
ATOM     26  C   UNL d   1      33.192  22.091 -20.768  0.00  0.00     0.096 A 
ATOM     27  C   UNL d   1      33.241  22.631 -21.399  0.00  0.00     0.024 A 
ATOM     28  C   UNL d   1      33.214  22.349 -22.174  0.00  0.00     0.004 A 
ATOM     29  C   UNL d   1      33.139  21.536 -22.322  0.00  0.00     0.019 A 
BRANCH  26  30
ATOM     30  O   UNL d   1      33.219  22.368 -19.992  0.00  0.00    -0.328 OA
ATOM     31  C   UNL d   1      32.915  23.117 -19.811  0.00  0.00     0.181 C 
ENDBRANCH  26  30
ENDBRANCH  22  24
ENDBRANCH  20  21
ENDBRANCH  19  20
ENDBRANCH  18  19
ENDBRANCH   5  18
TORSDOF 7
ENDMDL
MODEL 2
REMARK VINA RESULT:      -0.1      1.273      5.991
REMARK  7 active torsions:
REMARK  status: ('A' for Active; 'I' for Inactive)
REMARK    1  A    between atoms: C_23  and  C_3 
REMARK    2  A    between atoms: S_18  and  C_5 
REMARK    3  A    between atoms: C_11  and  C_16 
REMARK       I    between atoms: N_14  and  C_11 
REMARK    4  A    between atoms: C_17  and  N_14 
REMARK    5  A    between atoms: C_16  and  C_21 
REMARK    6  A    between atoms: C_21  and  S_18 
REMARK    7  A    between atoms: O_24  and  C_22 
ROOT
ATOM      1  C   UNL d   1      33.170  21.588 -22.920  0.00  0.00     0.092 A 
ATOM      2  C   UNL d   1      33.162  21.694 -21.499  0.00  0.00     0.057 A 
ATOM      3  C   UNL d   1      33.143  22.052 -22.240  0.00  0.00     0.016 A 
ATOM      4  N   UNL d   1      33.233  20.409 -22.117  0.00  0.00    -0.239 NA
ATOM      5  C   UNL d   1      33.214  20.766 -22.858  0.00  0.00     0.120 A 
ATOM      6  C   UNL d   1      33.207  20.873 -21.437  0.00  0.00     0.081 A 
ATOM      7  C   UNL d   1      33.136  22.159 -20.819  0.00  0.00     0.193 A 
ATOM      8  C   UNL d   1      33.151  21.949 -23.674  0.00  0.00     0.103 C 
ATOM      9  N   UNL d   1      33.131  22.319 -24.421  0.00  0.00    -0.191 NA
ATOM     10  C   UNL d   1      33.200  20.980 -20.008  0.00  0.00     0.042 A 
ATOM     11  C   UNL d   1      33.155  21.801 -20.070  0.00  0.00     0.019 A 
ATOM     12  C   UNL d   1      33.226  20.516 -20.696  0.00  0.00    -0.003 A 
ATOM     13  O   UNL d   1      33.091  22.979 -20.881  0.00  0.00    -0.287 OA
ATOM     14  C   UNL d   1      33.241  20.221 -19.671  0.00  0.00     0.009 C 
ATOM     15  C   UNL d   1      33.174  21.436 -19.323  0.00  0.00     0.009 C 
ENDROOT
BRANCH   3  16
ATOM     16  C   UNL d   1      33.098  22.873 -22.302  0.00  0.00     0.001 C 
ATOM     17  C   UNL d   1      32.380  23.257 -22.179  0.00  0.00     0.000 C 
ENDBRANCH   3  16
BRANCH   5  18
ATOM     18  S   UNL d   1      33.241  20.302 -23.550  0.00  0.00    -0.067 SA
BRANCH  18  19
ATOM     19  C   UNL d   1      33.151  19.483 -23.503  0.00  0.00     0.042 C 
BRANCH  19  20
ATOM     20  C   UNL d   1      33.241  19.020 -24.181  0.00  0.00     0.070 C 
BRANCH  20  21
ATOM     21  C   UNL d   1      32.681  18.421 -24.350  0.00  0.00     0.280 C 
ATOM     22  N   UNL d   1      32.062  18.286 -23.823  0.00  0.00    -0.208 NA
ATOM     23  O   UNL d   1      32.756  17.974 -25.039  0.00  0.00    -0.265 OA
BRANCH  22  24
ATOM     24  C   UNL d   1      31.499  17.685 -23.990  0.00  0.00     0.087 A 
ATOM     25  C   UNL d   1      31.371  17.084 -23.439  0.00  0.00     0.043 A 
ATOM     26  C   UNL d   1      30.818  16.497 -23.607  0.00  0.00     0.096 A 
ATOM     27  C   UNL d   1      30.390  16.500 -24.320  0.00  0.00     0.024 A 
ATOM     28  C   UNL d   1      30.522  17.102 -24.868  0.00  0.00     0.004 A 
ATOM     29  C   UNL d   1      31.076  17.698 -24.709  0.00  0.00     0.019 A 
BRANCH  26  30
ATOM     30  O   UNL d   1      30.689  15.896 -23.056  0.00  0.00    -0.328 OA
ATOM     31  C   UNL d   1      29.942  15.545 -22.998  0.00  0.00     0.181 C 
ENDBRANCH  26  30
ENDBRANCH  22  24
ENDBRANCH  20  21
ENDBRANCH  19  20
ENDBRANCH  18  19
ENDBRANCH   5  18
TORSDOF 7
ENDMDL
