MODEL 1
REMARK VINA RESULT:      -4.6      0.000      0.000
REMARK  4 active torsions:
REMARK  status: ('A' for Active; 'I' for Inactive)
REMARK    1  A    between atoms: C_2  and  C_1 
REMARK    2  A    between atoms: C_7  and  O_14 
REMARK       I    between atoms: N_12  and  C_7 
REMARK    3  A    between atoms: O_14  and  C_11 
REMARK    4  A    between atoms: C_24  and  C_18 
ROOT
ATOM      1  C   UNL d   1     -48.199  13.565  23.045  0.00  0.00     0.099 A 
ATOM      2  C   UNL d   1     -47.481  13.762  22.691  0.00  0.00     0.202 A 
ATOM      3  C   UNL d   1     -46.822  13.263  22.778  0.00  0.00     0.062 A 
ATOM      4  C   UNL d   1     -48.266  12.867  23.490  0.00  0.00     0.129 A 
ATOM      5  C   UNL d   1     -46.889  12.568  23.221  0.00  0.00     0.105 A 
ATOM      6  O   UNL d   1     -47.607  12.367  23.577  0.00  0.00    -0.305 OA
ATOM      7  C   UNL d   1     -45.526  12.276  22.953  0.00  0.00     0.107 A 
ATOM      8  C   UNL d   1     -46.103  13.459  22.425  0.00  0.00     0.007 A 
ATOM      9  C   UNL d   1     -46.237  12.070  23.309  0.00  0.00     0.050 A 
ATOM     10  C   UNL d   1     -45.460  12.963  22.515  0.00  0.00     0.023 A 
ATOM     11  O   UNL d   1     -47.414  14.453  22.251  0.00  0.00    -0.286 OA
ENDROOT
BRANCH   1  12
ATOM     12  C   UNL d   1     -48.855  14.061  22.959  0.00  0.00     0.168 A 
ATOM     13  N   UNL d   1     -49.129  14.603  23.515  0.00  0.00    -0.225 NA
ATOM     14  C   UNL d   1     -49.800  14.979  23.196  0.00  0.00     0.101 A 
ATOM     15  C   UNL d   1     -50.297  15.558  23.492  0.00  0.00     0.021 A 
ATOM     16  C   UNL d   1     -49.933  14.665  22.446  0.00  0.00     0.101 A 
ATOM     17  C   UNL d   1     -50.934  15.834  23.046  0.00  0.00     0.002 A 
ATOM     18  C   UNL d   1     -51.063  15.513  22.289  0.00  0.00     0.002 A 
ATOM     19  C   UNL d   1     -50.561  14.928  21.990  0.00  0.00     0.021 A 
ATOM     20  N   UNL d   1     -49.347  14.097  22.301  0.00  0.00    -0.225 NA
ENDBRANCH   1  12
BRANCH  10  21
ATOM     21  C   UNL d   1     -44.733  13.158  22.160  0.00  0.00     0.002 C 
ATOM     22  C   UNL d   1     -44.693  13.788  21.627  0.00  0.00     0.000 C 
ENDBRANCH  10  21
BRANCH   7  23
ATOM     23  O   UNL d   1     -44.868  11.769  23.044  0.00  0.00    -0.259 OA
BRANCH  23  24
ATOM     24  C   UNL d   1     -44.979  10.968  23.211  0.00  0.00     0.378 C 
ATOM     25  N   UNL d   1     -44.330  10.485  23.371  0.00  0.00    -0.247 N 
ATOM     26  C   UNL d   1     -44.449   9.684  23.536  0.00  0.00     0.112 A 
ATOM     27  C   UNL d   1     -43.569  10.804  23.364  0.00  0.00     0.112 A 
ATOM     28  C   UNL d   1     -43.805   9.202  23.696  0.00  0.00     0.142 A 
ATOM     29  O   UNL d   1     -43.040   9.517  23.690  0.00  0.00    -0.300 OA
ATOM     30  C   UNL d   1     -42.921  10.317  23.525  0.00  0.00     0.142 A 
ATOM     31  O   UNL d   1     -45.739  10.648  23.217  0.00  0.00    -0.237 OA
ENDBRANCH  23  24
ENDBRANCH   7  23
TORSDOF 4
ENDMDL
MODEL 2
REMARK VINA RESULT:      -4.3      2.093      3.154
REMARK  4 active torsions:
REMARK  status: ('A' for Active; 'I' for Inactive)
REMARK    1  A    between atoms: C_2  and  C_1 
REMARK    2  A    between atoms: C_7  and  O_14 
REMARK       I    between atoms: N_12  and  C_7 
REMARK    3  A    between atoms: O_14  and  C_11 
REMARK    4  A    between atoms: C_24  and  C_18 
ROOT
ATOM      1  C   UNL d   1     -46.918  12.785  22.576  0.00  0.00     0.099 A 
ATOM      2  C   UNL d   1     -46.376  12.233  22.861  0.00  0.00     0.202 A 
ATOM      3  C   UNL d   1     -45.576  12.280  22.638  0.00  0.00     0.062 A 
ATOM      4  C   UNL d   1     -46.667  13.389  22.064  0.00  0.00     0.129 A 
ATOM      5  C   UNL d   1     -45.326  12.881  22.130  0.00  0.00     0.105 A 
ATOM      6  O   UNL d   1     -45.867  13.436  21.841  0.00  0.00    -0.305 OA
ATOM      7  C   UNL d   1     -44.002  12.376  22.196  0.00  0.00     0.107 A 
ATOM      8  C   UNL d   1     -45.033  11.728  22.923  0.00  0.00     0.007 A 
ATOM      9  C   UNL d   1     -44.534  12.930  21.906  0.00  0.00     0.050 A 
ATOM     10  C   UNL d   1     -44.249  11.780  22.700  0.00  0.00     0.023 A 
ATOM     11  O   UNL d   1     -46.625  11.635  23.367  0.00  0.00    -0.286 OA
ENDROOT
BRANCH   1  12
ATOM     12  C   UNL d   1     -47.713  12.739  22.796  0.00  0.00     0.168 A 
ATOM     13  N   UNL d   1     -48.131  13.307  23.222  0.00  0.00    -0.225 NA
ATOM     14  C   UNL d   1     -48.911  13.032  23.318  0.00  0.00     0.101 A 
ATOM     15  C   UNL d   1     -49.566  13.355  23.688  0.00  0.00     0.021 A 
ATOM     16  C   UNL d   1     -48.966  12.296  22.949  0.00  0.00     0.101 A 
ATOM     17  C   UNL d   1     -50.285  12.952  23.698  0.00  0.00     0.002 A 
ATOM     18  C   UNL d   1     -50.336  12.210  23.324  0.00  0.00     0.002 A 
ATOM     19  C   UNL d   1     -49.674  11.884  22.950  0.00  0.00     0.021 A 
ATOM     20  N   UNL d   1     -48.224  12.117  22.627  0.00  0.00    -0.225 NA
ENDBRANCH   1  12
BRANCH  10  21
ATOM     21  C   UNL d   1     -43.699  11.226  22.985  0.00  0.00     0.002 C 
ATOM     22  C   UNL d   1     -43.965  10.545  23.370  0.00  0.00     0.000 C 
ENDBRANCH  10  21
BRANCH   7  23
ATOM     23  O   UNL d   1     -43.200  12.428  21.968  0.00  0.00    -0.259 OA
BRANCH  23  24
ATOM     24  C   UNL d   1     -42.993  12.781  21.250  0.00  0.00     0.378 C 
ATOM     25  N   UNL d   1     -42.276  13.182  21.177  0.00  0.00    -0.247 N 
ATOM     26  C   UNL d   1     -42.077  13.532  20.456  0.00  0.00     0.112 A 
ATOM     27  C   UNL d   1     -41.766  13.230  21.824  0.00  0.00     0.112 A 
ATOM     28  C   UNL d   1     -41.364  13.931  20.382  0.00  0.00     0.142 A 
ATOM     29  O   UNL d   1     -40.849  13.983  21.026  0.00  0.00    -0.300 OA
ATOM     30  C   UNL d   1     -41.049  13.633  21.747  0.00  0.00     0.142 A 
ATOM     31  O   UNL d   1     -43.503  12.732  20.604  0.00  0.00    -0.237 OA
ENDBRANCH  23  24
ENDBRANCH   7  23
TORSDOF 4
ENDMDL
MODEL 3
REMARK VINA RESULT:      -3.6      6.111      8.929
REMARK  4 active torsions:
REMARK  status: ('A' for Active; 'I' for Inactive)
REMARK    1  A    between atoms: C_2  and  C_1 
REMARK    2  A    between atoms: C_7  and  O_14 
REMARK       I    between atoms: N_12  and  C_7 
REMARK    3  A    between atoms: O_14  and  C_11 
REMARK    4  A    between atoms: C_24  and  C_18 
ROOT
ATOM      1  C   UNL d   1     -39.950  14.477  17.820  0.00  0.00     0.099 A 
ATOM      2  C   UNL d   1     -39.616  14.487  18.573  0.00  0.00     0.202 A 
ATOM      3  C   UNL d   1     -40.078  14.293  19.237  0.00  0.00     0.062 A 
ATOM      4  C   UNL d   1     -40.750  14.273  17.721  0.00  0.00     0.129 A 
ATOM      5  C   UNL d   1     -40.872  14.091  19.139  0.00  0.00     0.105 A 
ATOM      6  O   UNL d   1     -41.211  14.079  18.386  0.00  0.00    -0.305 OA
ATOM      7  C   UNL d   1     -40.991  13.910  20.542  0.00  0.00     0.107 A 
ATOM      8  C   UNL d   1     -39.744  14.303  19.992  0.00  0.00     0.007 A 
ATOM      9  C   UNL d   1     -41.333  13.898  19.796  0.00  0.00     0.050 A 
ATOM     10  C   UNL d   1     -40.204  14.111  20.639  0.00  0.00     0.023 A 
ATOM     11  O   UNL d   1     -38.825  14.689  18.671  0.00  0.00    -0.286 OA
ENDROOT
BRANCH   1  12
ATOM     12  C   UNL d   1     -39.493  14.670  17.159  0.00  0.00     0.168 A 
ATOM     13  N   UNL d   1     -39.314  15.430  16.898  0.00  0.00    -0.225 NA
ATOM     14  C   UNL d   1     -38.841  15.362  16.216  0.00  0.00     0.101 A 
ATOM     15  C   UNL d   1     -38.502  15.921  15.725  0.00  0.00     0.021 A 
ATOM     16  C   UNL d   1     -38.732  14.559  16.064  0.00  0.00     0.101 A 
ATOM     17  C   UNL d   1     -38.050  15.692  15.074  0.00  0.00     0.002 A 
ATOM     18  C   UNL d   1     -37.944  14.880  14.924  0.00  0.00     0.002 A 
ATOM     19  C   UNL d   1     -38.286  14.315  15.421  0.00  0.00     0.021 A 
ATOM     20  N   UNL d   1     -39.136  14.132  16.648  0.00  0.00    -0.225 NA
ENDBRANCH   1  12
BRANCH  10  21
ATOM     21  C   UNL d   1     -39.871  14.120  21.401  0.00  0.00     0.002 C 
ATOM     22  C   UNL d   1     -39.060  13.994  21.496  0.00  0.00     0.000 C 
ENDBRANCH  10  21
BRANCH   7  23
ATOM     23  O   UNL d   1     -41.460  13.714  21.205  0.00  0.00    -0.259 OA
BRANCH  23  24
ATOM     24  C   UNL d   1     -42.271  13.875  21.203  0.00  0.00     0.378 C 
ATOM     25  N   UNL d   1     -42.806  13.306  21.469  0.00  0.00    -0.247 N 
ATOM     26  C   UNL d   1     -43.615  13.474  21.464  0.00  0.00     0.112 A 
ATOM     27  C   UNL d   1     -42.529  12.576  21.737  0.00  0.00     0.112 A 
ATOM     28  C   UNL d   1     -44.148  12.909  21.728  0.00  0.00     0.142 A 
ATOM     29  O   UNL d   1     -43.876  12.176  21.997  0.00  0.00    -0.300 OA
ATOM     30  C   UNL d   1     -43.067  12.009  22.002  0.00  0.00     0.142 A 
ATOM     31  O   UNL d   1     -42.548  14.604  20.936  0.00  0.00    -0.237 OA
ENDBRANCH  23  24
ENDBRANCH   7  23
TORSDOF 4
ENDMDL
MODEL 4
REMARK VINA RESULT:      -3.0      2.536      5.975
REMARK  4 active torsions:
REMARK  status: ('A' for Active; 'I' for Inactive)
REMARK    1  A    between atoms: C_2  and  C_1 
REMARK    2  A    between atoms: C_7  and  O_14 
REMARK       I    between atoms: N_12  and  C_7 
REMARK    3  A    between atoms: O_14  and  C_11 
REMARK    4  A    between atoms: C_24  and  C_18 
ROOT
ATOM      1  C   UNL d   1     -43.205  13.306  21.460  0.00  0.00     0.099 A 
ATOM      2  C   UNL d   1     -43.236  12.585  21.858  0.00  0.00     0.202 A 
ATOM      3  C   UNL d   1     -43.943  12.339  22.222  0.00  0.00     0.062 A 
ATOM      4  C   UNL d   1     -43.879  13.791  21.423  0.00  0.00     0.129 A 
ATOM      5  C   UNL d   1     -44.613  12.821  22.185  0.00  0.00     0.105 A 
ATOM      6  O   UNL d   1     -44.585  13.545  21.787  0.00  0.00    -0.305 OA
ATOM      7  C   UNL d   1     -45.335  11.860  22.938  0.00  0.00     0.107 A 
ATOM      8  C   UNL d   1     -43.975  11.617  22.620  0.00  0.00     0.007 A 
ATOM      9  C   UNL d   1     -45.315  12.580  22.545  0.00  0.00     0.050 A 
ATOM     10  C   UNL d   1     -44.672  11.383  22.975  0.00  0.00     0.023 A 
ATOM     11  O   UNL d   1     -42.570  12.106  21.895  0.00  0.00    -0.286 OA
ENDROOT
BRANCH   1  12
ATOM     12  C   UNL d   1     -42.504  13.551  21.098  0.00  0.00     0.168 A 
ATOM     13  N   UNL d   1     -42.307  13.449  20.305  0.00  0.00    -0.225 NA
ATOM     14  C   UNL d   1     -41.552  13.780  20.184  0.00  0.00     0.101 A 
ATOM     15  C   UNL d   1     -41.080  13.842  19.519  0.00  0.00     0.021 A 
ATOM     16  C   UNL d   1     -41.292  14.084  20.905  0.00  0.00     0.101 A 
ATOM     17  C   UNL d   1     -40.341  14.205  19.560  0.00  0.00     0.002 A 
ATOM     18  C   UNL d   1     -40.082  14.510  20.290  0.00  0.00     0.002 A 
ATOM     19  C   UNL d   1     -40.560  14.448  20.962  0.00  0.00     0.021 A 
ATOM     20  N   UNL d   1     -41.882  13.941  21.469  0.00  0.00    -0.225 NA
ENDBRANCH   1  12
BRANCH  10  21
ATOM     21  C   UNL d   1     -44.708  10.656  23.377  0.00  0.00     0.002 C 
ATOM     22  C   UNL d   1     -44.010  10.285  23.618  0.00  0.00     0.000 C 
ENDBRANCH  10  21
BRANCH   7  23
ATOM     23  O   UNL d   1     -46.048  11.619  23.303  0.00  0.00    -0.259 OA
BRANCH  23  24
ATOM     24  C   UNL d   1     -46.627  12.176  23.493  0.00  0.00     0.378 C 
ATOM     25  N   UNL d   1     -47.424  11.966  23.481  0.00  0.00    -0.247 N 
ATOM     26  C   UNL d   1     -47.997  12.529  23.673  0.00  0.00     0.112 A 
ATOM     27  C   UNL d   1     -47.642  11.196  23.276  0.00  0.00     0.112 A 
ATOM     28  C   UNL d   1     -48.791  12.321  23.661  0.00  0.00     0.142 A 
ATOM     29  O   UNL d   1     -49.015  11.552  23.457  0.00  0.00    -0.300 OA
ATOM     30  C   UNL d   1     -48.442  10.989  23.265  0.00  0.00     0.142 A 
ATOM     31  O   UNL d   1     -46.409  12.946  23.698  0.00  0.00    -0.237 OA
ENDBRANCH  23  24
ENDBRANCH   7  23
TORSDOF 4
ENDMDL
MODEL 5
REMARK VINA RESULT:      -2.8      2.033      5.556
REMARK  4 active torsions:
REMARK  status: ('A' for Active; 'I' for Inactive)
REMARK    1  A    between atoms: C_2  and  C_1 
REMARK    2  A    between atoms: C_7  and  O_14 
REMARK       I    between atoms: N_12  and  C_7 
REMARK    3  A    between atoms: O_14  and  C_11 
REMARK    4  A    between atoms: C_24  and  C_18 
ROOT
ATOM      1  C   UNL d   1     -44.798  13.063  22.128  0.00  0.00     0.099 A 
ATOM      2  C   UNL d   1     -45.321  13.696  22.199  0.00  0.00     0.202 A 
ATOM      3  C   UNL d   1     -46.090  13.571  22.489  0.00  0.00     0.062 A 
ATOM      4  C   UNL d   1     -45.038  12.297  22.344  0.00  0.00     0.129 A 
ATOM      5  C   UNL d   1     -46.329  12.810  22.704  0.00  0.00     0.105 A 
ATOM      6  O   UNL d   1     -45.808  12.172  22.633  0.00  0.00    -0.305 OA
ATOM      7  C   UNL d   1     -47.605  13.319  23.059  0.00  0.00     0.107 A 
ATOM      8  C   UNL d   1     -46.614  14.204  22.561  0.00  0.00     0.007 A 
ATOM      9  C   UNL d   1     -47.092  12.682  22.991  0.00  0.00     0.050 A 
ATOM     10  C   UNL d   1     -47.369  14.073  22.846  0.00  0.00     0.023 A 
ATOM     11  O   UNL d   1     -45.083  14.453  21.985  0.00  0.00    -0.286 OA
ENDROOT
BRANCH   1  12
ATOM     12  C   UNL d   1     -44.033  13.185  21.840  0.00  0.00     0.168 A 
ATOM     13  N   UNL d   1     -43.456  12.607  21.733  0.00  0.00    -0.225 NA
ATOM     14  C   UNL d   1     -42.773  12.978  21.434  0.00  0.00     0.101 A 
ATOM     15  C   UNL d   1     -42.038  12.688  21.225  0.00  0.00     0.021 A 
ATOM     16  C   UNL d   1     -42.936  13.783  21.359  0.00  0.00     0.101 A 
ATOM     17  C   UNL d   1     -41.452  13.193  20.938  0.00  0.00     0.002 A 
ATOM     18  C   UNL d   1     -41.621  14.004  20.864  0.00  0.00     0.002 A 
ATOM     19  C   UNL d   1     -42.365  14.298  21.075  0.00  0.00     0.021 A 
ATOM     20  N   UNL d   1     -43.716  13.909  21.611  0.00  0.00    -0.225 NA
ENDBRANCH   1  12
BRANCH  10  21
ATOM     21  C   UNL d   1     -47.899  14.709  22.920  0.00  0.00     0.002 C 
ATOM     22  C   UNL d   1     -47.877  15.328  22.373  0.00  0.00     0.000 C 
ENDBRANCH  10  21
BRANCH   7  23
ATOM     23  O   UNL d   1     -48.377  13.187  23.351  0.00  0.00    -0.259 OA
BRANCH  23  24
ATOM     24  C   UNL d   1     -48.634  12.420  23.515  0.00  0.00     0.378 C 
ATOM     25  N   UNL d   1     -49.440  12.246  23.524  0.00  0.00    -0.247 N 
ATOM     26  C   UNL d   1     -49.689  11.476  23.689  0.00  0.00     0.112 A 
ATOM     27  C   UNL d   1     -49.989  12.842  23.368  0.00  0.00     0.112 A 
ATOM     28  C   UNL d   1     -50.491  11.302  23.698  0.00  0.00     0.142 A 
ATOM     29  O   UNL d   1     -51.046  11.894  23.543  0.00  0.00    -0.300 OA
ATOM     30  C   UNL d   1     -50.796  12.664  23.378  0.00  0.00     0.142 A 
ATOM     31  O   UNL d   1     -48.085  11.823  23.670  0.00  0.00    -0.237 OA
ENDBRANCH  23  24
ENDBRANCH   7  23
TORSDOF 4
ENDMDL
MODEL 6
REMARK VINA RESULT:      -2.7      4.305      5.963
REMARK  4 active torsions:
REMARK  status: ('A' for Active; 'I' for Inactive)
REMARK    1  A    between atoms: C_2  and  C_1 
REMARK    2  A    between atoms: C_7  and  O_14 
REMARK       I    between atoms: N_12  and  C_7 
REMARK    3  A    between atoms: O_14  and  C_11 
REMARK    4  A    between atoms: C_24  and  C_18 
ROOT
ATOM      1  C   UNL d   1     -43.505  13.175  21.456  0.00  0.00     0.099 A 
ATOM      2  C   UNL d   1     -43.118  13.902  21.470  0.00  0.00     0.202 A 
ATOM      3  C   UNL d   1     -42.394  13.998  21.072  0.00  0.00     0.062 A 
ATOM      4  C   UNL d   1     -43.173  12.535  21.044  0.00  0.00     0.129 A 
ATOM      5  C   UNL d   1     -42.063  13.361  20.663  0.00  0.00     0.105 A 
ATOM      6  O   UNL d   1     -42.449  12.630  20.646  0.00  0.00    -0.305 OA
ATOM      7  C   UNL d   1     -40.968  14.181  20.288  0.00  0.00     0.107 A 
ATOM      8  C   UNL d   1     -42.006  14.726  21.086  0.00  0.00     0.007 A 
ATOM      9  C   UNL d   1     -41.345  13.452  20.267  0.00  0.00     0.050 A 
ATOM     10  C   UNL d   1     -41.295  14.812  20.693  0.00  0.00     0.023 A 
ATOM     11  O   UNL d   1     -43.446  14.536  21.878  0.00  0.00    -0.286 OA
ENDROOT
BRANCH   1  12
ATOM     12  C   UNL d   1     -44.225  13.079  21.850  0.00  0.00     0.168 A 
ATOM     13  N   UNL d   1     -44.858  13.606  21.841  0.00  0.00    -0.225 NA
ATOM     14  C   UNL d   1     -45.465  13.286  22.313  0.00  0.00     0.101 A 
ATOM     15  C   UNL d   1     -46.211  13.558  22.506  0.00  0.00     0.021 A 
ATOM     16  C   UNL d   1     -45.199  12.563  22.609  0.00  0.00     0.101 A 
ATOM     17  C   UNL d   1     -46.707  13.117  22.995  0.00  0.00     0.002 A 
ATOM     18  C   UNL d   1     -46.435  12.389  23.292  0.00  0.00     0.002 A 
ATOM     19  C   UNL d   1     -45.680  12.113  23.097  0.00  0.00     0.021 A 
ATOM     20  N   UNL d   1     -44.432  12.437  22.321  0.00  0.00    -0.225 NA
ENDBRANCH   1  12
BRANCH  10  21
ATOM     21  C   UNL d   1     -40.900  15.544  20.705  0.00  0.00     0.002 C 
ATOM     22  C   UNL d   1     -40.759  15.922  21.426  0.00  0.00     0.000 C 
ENDBRANCH  10  21
BRANCH   7  23
ATOM     23  O   UNL d   1     -40.240  14.270  19.886  0.00  0.00    -0.259 OA
BRANCH  23  24
ATOM     24  C   UNL d   1     -40.171  14.044  19.095  0.00  0.00     0.378 C 
ATOM     25  N   UNL d   1     -39.430  13.870  18.777  0.00  0.00    -0.247 N 
ATOM     26  C   UNL d   1     -39.369  13.644  17.985  0.00  0.00     0.112 A 
ATOM     27  C   UNL d   1     -38.758  13.923  19.252  0.00  0.00     0.112 A 
ATOM     28  C   UNL d   1     -38.633  13.471  17.667  0.00  0.00     0.142 A 
ATOM     29  O   UNL d   1     -37.956  13.523  18.139  0.00  0.00    -0.300 OA
ATOM     30  C   UNL d   1     -38.017  13.748  18.931  0.00  0.00     0.142 A 
ATOM     31  O   UNL d   1     -40.844  13.990  18.619  0.00  0.00    -0.237 OA
ENDBRANCH  23  24
ENDBRANCH   7  23
TORSDOF 4
ENDMDL
MODEL 7
REMARK VINA RESULT:      -2.6      1.935      5.734
REMARK  4 active torsions:
REMARK  status: ('A' for Active; 'I' for Inactive)
REMARK    1  A    between atoms: C_2  and  C_1 
REMARK    2  A    between atoms: C_7  and  O_14 
REMARK       I    between atoms: N_12  and  C_7 
REMARK    3  A    between atoms: O_14  and  C_11 
REMARK    4  A    between atoms: C_24  and  C_18 
ROOT
ATOM      1  C   UNL d   1     -44.699  13.308  21.896  0.00  0.00     0.099 A 
ATOM      2  C   UNL d   1     -44.918  12.648  22.338  0.00  0.00     0.202 A 
ATOM      3  C   UNL d   1     -45.708  12.549  22.578  0.00  0.00     0.062 A 
ATOM      4  C   UNL d   1     -45.268  13.878  21.689  0.00  0.00     0.129 A 
ATOM      5  C   UNL d   1     -46.273  13.115  22.372  0.00  0.00     0.105 A 
ATOM      6  O   UNL d   1     -46.058  13.778  21.929  0.00  0.00    -0.305 OA
ATOM      7  C   UNL d   1     -47.265  12.358  23.048  0.00  0.00     0.107 A 
ATOM      8  C   UNL d   1     -45.927  11.888  23.020  0.00  0.00     0.007 A 
ATOM      9  C   UNL d   1     -47.058  13.020  22.608  0.00  0.00     0.050 A 
ATOM     10  C   UNL d   1     -46.706  11.798  23.252  0.00  0.00     0.023 A 
ATOM     11  O   UNL d   1     -44.355  12.085  22.543  0.00  0.00    -0.286 OA
ENDROOT
BRANCH   1  12
ATOM     12  C   UNL d   1     -43.915  13.408  21.657  0.00  0.00     0.168 A 
ATOM     13  N   UNL d   1     -43.452  14.078  21.780  0.00  0.00    -0.225 NA
ATOM     14  C   UNL d   1     -42.701  13.935  21.448  0.00  0.00     0.101 A 
ATOM     15  C   UNL d   1     -42.025  14.393  21.403  0.00  0.00     0.021 A 
ATOM     16  C   UNL d   1     -42.709  13.177  21.124  0.00  0.00     0.101 A 
ATOM     17  C   UNL d   1     -41.346  14.105  21.034  0.00  0.00     0.002 A 
ATOM     18  C   UNL d   1     -41.358  13.339  20.709  0.00  0.00     0.002 A 
ATOM     19  C   UNL d   1     -42.042  12.876  20.755  0.00  0.00     0.021 A 
ATOM     20  N   UNL d   1     -43.461  12.853  21.254  0.00  0.00    -0.225 NA
ENDBRANCH   1  12
BRANCH  10  21
ATOM     21  C   UNL d   1     -46.931  11.133  23.698  0.00  0.00     0.002 C 
ATOM     22  C   UNL d   1     -46.454  10.458  23.697  0.00  0.00     0.000 C 
ENDBRANCH  10  21
BRANCH   7  23
ATOM     23  O   UNL d   1     -48.061  12.264  23.286  0.00  0.00    -0.259 OA
BRANCH  23  24
ATOM     24  C   UNL d   1     -48.573  12.913  23.290  0.00  0.00     0.378 C 
ATOM     25  N   UNL d   1     -49.389  12.795  23.285  0.00  0.00    -0.247 N 
ATOM     26  C   UNL d   1     -49.895  13.448  23.290  0.00  0.00     0.112 A 
ATOM     27  C   UNL d   1     -49.693  12.028  23.277  0.00  0.00     0.112 A 
ATOM     28  C   UNL d   1     -50.708  13.333  23.285  0.00  0.00     0.142 A 
ATOM     29  O   UNL d   1     -51.017  12.567  23.276  0.00  0.00    -0.300 OA
ATOM     30  C   UNL d   1     -50.511  11.914  23.272  0.00  0.00     0.142 A 
ATOM     31  O   UNL d   1     -48.270  13.680  23.299  0.00  0.00    -0.237 OA
ENDBRANCH  23  24
ENDBRANCH   7  23
TORSDOF 4
ENDMDL
