MODEL 1
REMARK VINA RESULT:       1.1      0.000      0.000
REMARK  11 active torsions:
REMARK  status: ('A' for Active; 'I' for Inactive)
REMARK    1  A    between atoms: C_3  and  C_1 
REMARK    2  A    between atoms: N_4  and  C_1 
REMARK    3  A    between atoms: C_5  and  C_1 
REMARK       I    between atoms: C_2  and  N_4 
REMARK    4  A    between atoms: O_10  and  C_2 
REMARK    5  A    between atoms: O_7  and  C_3 
REMARK    6  A    between atoms: C_12  and  C_5 
REMARK    7  A    between atoms: C_6  and  C_12 
REMARK    8  A    between atoms: C_13  and  O_7 
REMARK    9  A    between atoms: C_15  and  O_10 
REMARK   10  A    between atoms: C_16  and  C_13 
REMARK   11  A    between atoms: C_17  and  C_15 
ROOT
ATOM      1  C   UNL d   1     -42.034-122.699 -51.036  0.00  0.00     0.150 C 
ENDROOT
BRANCH   1   2
ATOM      2  C   UNL d   1     -41.585-123.154 -51.558  0.00  0.00     0.318 C 
ATOM      3  O   UNL d   1     -41.166-123.811 -51.280  0.00  0.00    -0.257 OA
BRANCH   2   4
ATOM      4  O   UNL d   1     -41.552-122.953 -52.364  0.00  0.00    -0.270 OA
BRANCH   4   5
ATOM      5  C   UNL d   1     -41.125-122.842 -53.064  0.00  0.00     0.126 C 
BRANCH   5   6
ATOM      6  C   UNL d   1     -41.527-122.650 -53.758  0.00  0.00     0.025 A 
ATOM      7  C   UNL d   1     -41.935-121.942 -53.813  0.00  0.00     0.002 A 
ATOM      8  C   UNL d   1     -42.334-121.748 -54.495  0.00  0.00     0.000 A 
ATOM      9  C   UNL d   1     -42.332-122.265 -55.146  0.00  0.00     0.000 A 
ATOM     10  C   UNL d   1     -41.914-122.986 -55.086  0.00  0.00     0.000 A 
ATOM     11  C   UNL d   1     -41.517-123.172 -54.397  0.00  0.00     0.002 A 
ENDBRANCH   5   6
ENDBRANCH   4   5
ENDBRANCH   2   4
ENDBRANCH   1   2
BRANCH   1  12
ATOM     12  N   UNL d   1     -41.682-122.077 -50.625  0.00  0.00    -0.180 NA
ATOM     13  C   UNL d   1     -41.476-122.170 -49.829  0.00  0.00     0.393 C 
ATOM     14  O   UNL d   1     -41.123-121.543 -49.418  0.00  0.00    -0.236 OA
BRANCH  13  15
ATOM     15  O   UNL d   1     -41.623-122.885 -49.446  0.00  0.00    -0.256 OA
BRANCH  15  16
ATOM     16  C   UNL d   1     -41.170-123.103 -48.788  0.00  0.00     0.128 C 
BRANCH  16  17
ATOM     17  C   UNL d   1     -41.550-123.332 -48.093  0.00  0.00     0.025 A 
ATOM     18  C   UNL d   1     -42.346-123.552 -48.119  0.00  0.00     0.002 A 
ATOM     19  C   UNL d   1     -42.734-123.785 -47.419  0.00  0.00     0.000 A 
ATOM     20  C   UNL d   1     -42.324-123.795 -46.703  0.00  0.00     0.000 A 
ATOM     21  C   UNL d   1     -41.523-123.572 -46.686  0.00  0.00     0.000 A 
ATOM     22  C   UNL d   1     -41.140-123.342 -47.381  0.00  0.00     0.002 A 
ENDBRANCH  16  17
ENDBRANCH  15  16
ENDBRANCH  13  15
ENDBRANCH   1  12
BRANCH   1  23
ATOM     23  C   UNL d   1     -42.836-122.867 -50.925  0.00  0.00     0.031 C 
BRANCH  23  24
ATOM     24  C   UNL d   1     -43.400-122.272 -51.014  0.00  0.00     0.072 C 
BRANCH  24  25
ATOM     25  C   UNL d   1     -44.165-122.378 -50.721  0.00  0.00     0.211 C 
ATOM     26  O   UNL d   1     -44.521-123.128 -50.733  0.00  0.00    -0.644 OA
ATOM     27  O   UNL d   1     -44.592-121.738 -50.411  0.00  0.00    -0.644 OA
ENDBRANCH  24  25
ENDBRANCH  23  24
ENDBRANCH   1  23
TORSDOF 11
ENDMDL
MODEL 2
REMARK VINA RESULT:       2.6      1.304      5.358
REMARK  11 active torsions:
REMARK  status: ('A' for Active; 'I' for Inactive)
REMARK    1  A    between atoms: C_3  and  C_1 
REMARK    2  A    between atoms: N_4  and  C_1 
REMARK    3  A    between atoms: C_5  and  C_1 
REMARK       I    between atoms: C_2  and  N_4 
REMARK    4  A    between atoms: O_10  and  C_2 
REMARK    5  A    between atoms: O_7  and  C_3 
REMARK    6  A    between atoms: C_12  and  C_5 
REMARK    7  A    between atoms: C_6  and  C_12 
REMARK    8  A    between atoms: C_13  and  O_7 
REMARK    9  A    between atoms: C_15  and  O_10 
REMARK   10  A    between atoms: C_16  and  C_13 
REMARK   11  A    between atoms: C_17  and  C_15 
ROOT
ATOM      1  C   UNL d   1     -41.703-122.192 -51.515  0.00  0.00     0.150 C 
ENDROOT
BRANCH   1   2
ATOM      2  C   UNL d   1     -41.501-122.955 -51.276  0.00  0.00     0.318 C 
ATOM      3  O   UNL d   1     -41.179-123.488 -51.820  0.00  0.00    -0.257 OA
BRANCH   2   4
ATOM      4  O   UNL d   1     -41.620-123.191 -50.487  0.00  0.00    -0.270 OA
BRANCH   4   5
ATOM      5  C   UNL d   1     -41.433-123.672 -49.841  0.00  0.00     0.126 C 
BRANCH   5   6
ATOM      6  C   UNL d   1     -41.809-123.545 -49.118  0.00  0.00     0.025 A 
ATOM      7  C   UNL d   1     -41.365-123.406 -48.444  0.00  0.00     0.002 A 
ATOM      8  C   UNL d   1     -41.732-123.279 -47.728  0.00  0.00     0.000 A 
ATOM      9  C   UNL d   1     -42.561-123.291 -47.672  0.00  0.00     0.000 A 
ATOM     10  C   UNL d   1     -43.010-123.433 -48.361  0.00  0.00     0.000 A 
ATOM     11  C   UNL d   1     -42.633-123.559 -49.076  0.00  0.00     0.002 A 
ENDBRANCH   5   6
ENDBRANCH   4   5
ENDBRANCH   2   4
ENDBRANCH   1   2
BRANCH   1  12
ATOM     12  N   UNL d   1     -42.485-122.016 -51.711  0.00  0.00    -0.180 NA
ATOM     13  C   UNL d   1     -42.718-121.995 -52.505  0.00  0.00     0.393 C 
ATOM     14  O   UNL d   1     -43.504-121.818 -52.700  0.00  0.00    -0.236 OA
BRANCH  13  15
ATOM     15  O   UNL d   1     -42.170-122.150 -53.101  0.00  0.00    -0.256 OA
BRANCH  15  16
ATOM     16  C   UNL d   1     -42.377-122.633 -53.739  0.00  0.00     0.128 C 
BRANCH  16  17
ATOM     17  C   UNL d   1     -42.159-122.410 -54.502  0.00  0.00     0.025 A 
ATOM     18  C   UNL d   1     -42.589-121.822 -54.892  0.00  0.00     0.002 A 
ATOM     19  C   UNL d   1     -42.373-121.594 -55.663  0.00  0.00     0.000 A 
ATOM     20  C   UNL d   1     -41.732-121.954 -56.038  0.00  0.00     0.000 A 
ATOM     21  C   UNL d   1     -41.305-122.545 -55.639  0.00  0.00     0.000 A 
ATOM     22  C   UNL d   1     -41.520-122.770 -54.874  0.00  0.00     0.002 A 
ENDBRANCH  16  17
ENDBRANCH  15  16
ENDBRANCH  13  15
ENDBRANCH   1  12
BRANCH   1  23
ATOM     23  C   UNL d   1     -41.123-121.604 -51.559  0.00  0.00     0.031 C 
BRANCH  23  24
ATOM     24  C   UNL d   1     -41.332-120.831 -51.759  0.00  0.00     0.072 C 
BRANCH  24  25
ATOM     25  C   UNL d   1     -41.194-120.214 -51.227  0.00  0.00     0.211 C 
ATOM     26  O   UNL d   1     -41.123-120.365 -50.415  0.00  0.00    -0.644 OA
ATOM     27  O   UNL d   1     -41.123-119.433 -51.497  0.00  0.00    -0.644 OA
ENDBRANCH  24  25
ENDBRANCH  23  24
ENDBRANCH   1  23
TORSDOF 11
ENDMDL
