MODEL 1
REMARK VINA RESULT:      94.0      0.000      0.000
REMARK  4 active torsions:
REMARK  status: ('A' for Active; 'I' for Inactive)
REMARK    1  A    between atoms: S_5  and  C_2 
REMARK    2  A    between atoms: C_14  and  S_5 
REMARK    3  A    between atoms: N_11  and  C_8 
REMARK    4  A    between atoms: C_15  and  N_11 
ROOT
ATOM      1  C   UNL d   1     -51.099  26.535  35.949  0.00  0.00     0.197 A 
ATOM      2  C   UNL d   1     -51.120  26.521  36.772  0.00  0.00     0.227 A 
ATOM      3  N   UNL d   1     -50.446  26.985  35.715  0.00  0.00    -0.192 N 
ATOM      4  N   UNL d   1     -51.593  26.195  35.377  0.00  0.00    -0.206 NA
ATOM      5  N   UNL d   1     -50.474  26.967  37.054  0.00  0.00    -0.115 NA
ATOM      6  N   UNL d   1     -50.059  27.252  36.394  0.00  0.00    -0.058 NA
ATOM      7  C   UNL d   1     -51.436  26.302  34.568  0.00  0.00     0.166 A 
ATOM      8  C   UNL d   1     -50.781  26.754  34.343  0.00  0.00     0.054 A 
ATOM      9  C   UNL d   1     -50.284  27.096  34.906  0.00  0.00     0.089 A 
ATOM     10  C   UNL d   1     -50.617  26.866  33.536  0.00  0.00     0.005 A 
ATOM     11  C   UNL d   1     -49.631  27.546  34.678  0.00  0.00     0.019 A 
ATOM     12  C   UNL d   1     -49.966  27.314  33.306  0.00  0.00     0.000 A 
ATOM     13  C   UNL d   1     -49.472  27.655  33.878  0.00  0.00     0.002 A 
ENDROOT
BRANCH   2  14
ATOM     14  S   UNL d   1     -51.676  26.138  37.245  0.00  0.00     0.231 S 
ATOM     15  O   UNL d   1     -52.254  26.193  36.661  0.00  0.00    -0.215 OA
ATOM     16  O   UNL d   1     -51.094  26.085  37.830  0.00  0.00    -0.215 OA
BRANCH  14  17
ATOM     17  C   UNL d   1     -52.192  25.753  37.754  0.00  0.00     0.090 A 
ATOM     18  C   UNL d   1     -51.895  25.320  38.387  0.00  0.00     0.011 A 
ATOM     19  C   UNL d   1     -52.403  24.932  38.901  0.00  0.00     0.001 A 
ATOM     20  C   UNL d   1     -53.222  24.979  38.779  0.00  0.00     0.000 A 
ATOM     21  C   UNL d   1     -53.518  25.416  38.141  0.00  0.00     0.001 A 
ATOM     22  C   UNL d   1     -53.006  25.800  37.633  0.00  0.00     0.011 A 
ENDBRANCH  14  17
ENDBRANCH   2  14
BRANCH   7  23
ATOM     23  N   UNL d   1     -51.928  25.964  33.998  0.00  0.00    -0.227 NA
BRANCH  23  24
ATOM     24  C   UNL d   1     -51.818  25.180  33.771  0.00  0.00     0.083 A 
ATOM     25  C   UNL d   1     -52.452  24.653  33.780  0.00  0.00     0.019 A 
ATOM     26  C   UNL d   1     -52.341  23.870  33.552  0.00  0.00     0.002 A 
ATOM     27  C   UNL d   1     -52.975  23.343  33.561  0.00  0.00     0.000 C 
ATOM     28  C   UNL d   1     -51.591  23.608  33.313  0.00  0.00     0.000 A 
ATOM     29  C   UNL d   1     -50.955  24.145  33.307  0.00  0.00     0.002 A 
ATOM     30  C   UNL d   1     -51.071  24.924  33.534  0.00  0.00     0.019 A 
ENDBRANCH  23  24
ENDBRANCH   7  23
TORSDOF 4
ENDMDL
MODEL 2
REMARK VINA RESULT:      94.3      1.464      3.643
REMARK  4 active torsions:
REMARK  status: ('A' for Active; 'I' for Inactive)
REMARK    1  A    between atoms: S_5  and  C_2 
REMARK    2  A    between atoms: C_14  and  S_5 
REMARK    3  A    between atoms: N_11  and  C_8 
REMARK    4  A    between atoms: C_15  and  N_11 
ROOT
ATOM      1  C   UNL d   1     -50.658  26.112  34.387  0.00  0.00     0.197 A 
ATOM      2  C   UNL d   1     -50.775  25.552  33.794  0.00  0.00     0.227 A 
ATOM      3  N   UNL d   1     -49.914  26.456  34.274  0.00  0.00    -0.192 N 
ATOM      4  N   UNL d   1     -51.134  26.357  35.019  0.00  0.00    -0.206 NA
ATOM      5  N   UNL d   1     -50.098  25.546  33.308  0.00  0.00    -0.115 NA
ATOM      6  N   UNL d   1     -49.567  26.108  33.610  0.00  0.00    -0.058 NA
ATOM      7  C   UNL d   1     -50.870  26.947  35.542  0.00  0.00     0.166 A 
ATOM      8  C   UNL d   1     -50.124  27.284  35.422  0.00  0.00     0.054 A 
ATOM      9  C   UNL d   1     -49.644  27.046  34.794  0.00  0.00     0.089 A 
ATOM     10  C   UNL d   1     -49.852  27.874  35.940  0.00  0.00     0.005 A 
ATOM     11  C   UNL d   1     -48.901  27.385  34.678  0.00  0.00     0.019 A 
ATOM     12  C   UNL d   1     -49.111  28.214  35.825  0.00  0.00     0.000 A 
ATOM     13  C   UNL d   1     -48.634  27.969  35.193  0.00  0.00     0.002 A 
ENDROOT
BRANCH   2  14
ATOM     14  S   UNL d   1     -51.440  25.076  33.691  0.00  0.00     0.231 S 
ATOM     15  O   UNL d   1     -51.937  25.730  33.638  0.00  0.00    -0.215 OA
ATOM     16  O   UNL d   1     -50.938  24.421  33.745  0.00  0.00    -0.215 OA
BRANCH  14  17
ATOM     17  C   UNL d   1     -52.069  24.558  33.592  0.00  0.00     0.090 A 
ATOM     18  C   UNL d   1     -51.952  23.749  33.680  0.00  0.00     0.011 A 
ATOM     19  C   UNL d   1     -52.574  23.224  33.582  0.00  0.00     0.001 A 
ATOM     20  C   UNL d   1     -53.328  23.516  33.394  0.00  0.00     0.000 A 
ATOM     21  C   UNL d   1     -53.443  24.331  33.306  0.00  0.00     0.001 A 
ATOM     22  C   UNL d   1     -52.818  24.848  33.404  0.00  0.00     0.011 A 
ENDBRANCH  14  17
ENDBRANCH   2  14
BRANCH   7  23
ATOM     23  N   UNL d   1     -51.344  27.191  36.172  0.00  0.00    -0.227 NA
BRANCH  23  24
ATOM     24  C   UNL d   1     -51.453  26.697  36.822  0.00  0.00     0.083 A 
ATOM     25  C   UNL d   1     -52.145  26.253  36.893  0.00  0.00     0.019 A 
ATOM     26  C   UNL d   1     -52.253  25.760  37.543  0.00  0.00     0.002 A 
ATOM     27  C   UNL d   1     -52.945  25.316  37.614  0.00  0.00     0.000 C 
ATOM     28  C   UNL d   1     -51.668  25.708  38.129  0.00  0.00     0.000 A 
ATOM     29  C   UNL d   1     -50.972  26.160  38.051  0.00  0.00     0.002 A 
ATOM     30  C   UNL d   1     -50.870  26.649  37.401  0.00  0.00     0.019 A 
ENDBRANCH  23  24
ENDBRANCH   7  23
TORSDOF 4
ENDMDL
