MODEL 1
REMARK VINA RESULT:      92.5      0.000      0.000
REMARK  7 active torsions:
REMARK  status: ('A' for Active; 'I' for Inactive)
REMARK    1  A    between atoms: C_3  and  N_1 
REMARK    2  A    between atoms: N_7  and  C_3 
REMARK    3  A    between atoms: C_9  and  C_4 
REMARK    4  A    between atoms: C_10  and  C_5 
REMARK    5  A    between atoms: C_15  and  N_7 
REMARK    6  A    between atoms: O_22  and  C_16 
REMARK    7  A    between atoms: O_23  and  C_17 
ROOT
ATOM      1  N   UNL d   1     -48.100  29.928  34.617  0.00  0.00    -0.203 N 
ATOM      2  N   UNL d   1     -48.614  29.522  34.131  0.00  0.00    -0.163 NA
ATOM      3  C   UNL d   1     -48.787  28.787  34.519  0.00  0.00     0.103 A 
ATOM      4  C   UNL d   1     -47.944  29.495  35.279  0.00  0.00     0.087 A 
ATOM      5  C   UNL d   1     -48.362  28.792  35.227  0.00  0.00     0.040 A 
ENDROOT
BRANCH   1   6
ATOM      6  C   UNL d   1     -47.774  30.702  34.449  0.00  0.00     0.222 C 
ATOM      7  S   UNL d   1     -47.039  30.749  34.077  0.00  0.00    -0.037 SA
BRANCH   6   8
ATOM      8  N   UNL d   1     -48.205  31.371  34.666  0.00  0.00    -0.217 NA
BRANCH   8   9
ATOM      9  C   UNL d   1     -48.097  32.062  34.230  0.00  0.00     0.084 A 
ATOM     10  C   UNL d   1     -47.339  32.283  34.002  0.00  0.00     0.019 A 
ATOM     11  C   UNL d   1     -47.235  32.992  33.556  0.00  0.00     0.002 A 
ATOM     12  C   UNL d   1     -47.864  33.443  33.357  0.00  0.00     0.000 A 
ATOM     13  C   UNL d   1     -48.627  33.231  33.579  0.00  0.00     0.002 A 
ATOM     14  C   UNL d   1     -48.745  32.542  34.015  0.00  0.00     0.019 A 
ENDBRANCH   8   9
ENDBRANCH   6   8
ENDBRANCH   1   6
BRANCH   4  15
ATOM     15  C   UNL d   1     -47.463  29.650  35.942  0.00  0.00     0.018 A 
ATOM     16  C   UNL d   1     -46.648  29.711  35.844  0.00  0.00     0.004 A 
ATOM     17  C   UNL d   1     -46.174  29.864  36.495  0.00  0.00     0.024 A 
ATOM     18  C   UNL d   1     -46.512  29.959  37.259  0.00  0.00     0.094 A 
ATOM     19  C   UNL d   1     -47.349  29.894  37.346  0.00  0.00     0.024 A 
ATOM     20  C   UNL d   1     -47.805  29.740  36.679  0.00  0.00     0.004 A 
BRANCH  18  21
ATOM     21  O   UNL d   1     -46.030  30.110  37.893  0.00  0.00    -0.328 OA
ATOM     22  C   UNL d   1     -46.333  30.157  38.651  0.00  0.00     0.181 C 
ENDBRANCH  18  21
ENDBRANCH   4  15
BRANCH   3  23
ATOM     23  C   UNL d   1     -49.288  28.202  34.220  0.00  0.00     0.019 A 
ATOM     24  C   UNL d   1     -49.973  28.411  33.815  0.00  0.00     0.004 A 
ATOM     25  C   UNL d   1     -50.479  27.833  33.513  0.00  0.00     0.024 A 
ATOM     26  C   UNL d   1     -50.291  27.035  33.619  0.00  0.00     0.094 A 
ATOM     27  C   UNL d   1     -49.587  26.823  34.034  0.00  0.00     0.024 A 
ATOM     28  C   UNL d   1     -49.088  27.405  34.333  0.00  0.00     0.004 A 
BRANCH  26  29
ATOM     29  O   UNL d   1     -50.815  26.448  33.306  0.00  0.00    -0.328 OA
ATOM     30  C   UNL d   1     -50.768  25.472  33.313  0.00  0.00     0.181 C 
ENDBRANCH  26  29
ENDBRANCH   3  23
TORSDOF 7
ENDMDL
