MODEL 1
REMARK VINA RESULT:      92.8      0.000      0.000
REMARK  5 active torsions:
REMARK  status: ('A' for Active; 'I' for Inactive)
REMARK    1  A    between atoms: C_12  and  C_4 
REMARK    2  A    between atoms: N_10  and  C_6 
REMARK    3  A    between atoms: C_11  and  C_9 
REMARK    4  A    between atoms: C_14  and  N_10 
REMARK    5  A    between atoms: C_15  and  C_14 
ROOT
ATOM      1  C   UNL d   1     -57.200 -99.136 -43.732  0.00  0.00     0.167 A 
ATOM      2  N   UNL d   1     -56.716 -99.237 -43.068  0.00  0.00    -0.195 N 
ATOM      3  N   UNL d   1     -57.854 -99.179 -42.246  0.00  0.00    -0.163 NA
ATOM      4  C   UNL d   1     -57.998 -99.058 -43.650  0.00  0.00     0.055 A 
ATOM      5  N   UNL d   1     -56.867 -99.115 -44.483  0.00  0.00    -0.231 NA
ATOM      6  C   UNL d   1     -55.911 -99.315 -43.172  0.00  0.00     0.167 A 
ATOM      7  C   UNL d   1     -58.331 -99.079 -42.899  0.00  0.00     0.104 A 
ATOM      8  C   UNL d   1     -55.574 -99.294 -43.925  0.00  0.00     0.054 A 
ATOM      9  C   UNL d   1     -56.051 -99.194 -44.578  0.00  0.00     0.063 A 
ATOM     10  C   UNL d   1     -59.134 -99.001 -42.802  0.00  0.00     0.023 C 
ENDROOT
BRANCH   6  11
ATOM     11  N   UNL d   1     -55.412 -99.419 -42.487  0.00  0.00    -0.224 NA
BRANCH  11  12
ATOM     12  C   UNL d   1     -54.755 -99.868 -42.210  0.00  0.00     0.120 C 
BRANCH  12  13
ATOM     13  C   UNL d   1     -54.864-100.646 -41.911  0.00  0.00     0.101 A 
ATOM     14  N   UNL d   1     -55.120-100.753 -41.116  0.00  0.00    -0.242 NA
ATOM     15  C   UNL d   1     -55.229-101.548 -40.814  0.00  0.00     0.099 A 
ATOM     16  C   UNL d   1     -55.082-102.212 -41.310  0.00  0.00     0.021 A 
ATOM     17  C   UNL d   1     -54.822-102.095 -42.121  0.00  0.00     0.003 A 
ATOM     18  C   UNL d   1     -54.716-101.314 -42.411  0.00  0.00     0.021 A 
ENDBRANCH  12  13
ENDBRANCH  11  12
ENDBRANCH   6  11
BRANCH   9  19
ATOM     19  C   UNL d   1     -55.708 -99.172 -45.358  0.00  0.00     0.036 C 
ATOM     20  C   UNL d   1     -55.373 -99.147 -46.129  0.00  0.00     0.006 C 
ATOM     21  C   UNL d   1     -54.961 -99.557 -45.504  0.00  0.00     0.006 C 
ATOM     22  C   UNL d   1     -56.117 -98.764 -45.980  0.00  0.00     0.006 C 
ENDBRANCH   9  19
BRANCH   4  23
ATOM     23  C   UNL d   1     -58.476 -98.958 -44.307  0.00  0.00     0.004 A 
ATOM     24  C   UNL d   1     -58.134 -98.886 -45.045  0.00  0.00     0.000 A 
ATOM     25  C   UNL d   1     -58.618 -98.785 -45.710  0.00  0.00     0.000 A 
ATOM     26  C   UNL d   1     -59.430 -98.758 -45.615  0.00  0.00     0.000 A 
ATOM     27  C   UNL d   1     -59.760 -98.832 -44.868  0.00  0.00     0.000 A 
ATOM     28  C   UNL d   1     -59.284 -98.931 -44.215  0.00  0.00     0.000 A 
ENDBRANCH   4  23
TORSDOF 5
ENDMDL
