MODEL 1
REMARK VINA RESULT:      46.6      0.000      0.000
REMARK  6 active torsions:
REMARK  status: ('A' for Active; 'I' for Inactive)
REMARK    1  A    between atoms: N_5  and  C_1 
REMARK    2  A    between atoms: N_14  and  C_3 
REMARK    3  A    between atoms: N_9  and  C_20 
REMARK    4  A    between atoms: C_22  and  N_14 
REMARK    5  A    between atoms: C_20  and  C_21 
REMARK    6  A    between atoms: C_21  and  C_22 
ROOT
ATOM      1  C   UNL d   1     -51.302  26.597  33.443  0.00  0.00     0.200 A 
ATOM      2  C   UNL d   1     -51.832  25.960  33.440  0.00  0.00     0.288 A 
ATOM      3  C   UNL d   1     -50.486  26.466  33.411  0.00  0.00     0.109 A 
ATOM      4  N   UNL d   1     -51.549  25.189  33.406  0.00  0.00    -0.270 N 
ATOM      5  C   UNL d   1     -50.208  25.688  33.377  0.00  0.00     0.036 A 
ATOM      6  C   UNL d   1     -50.732  25.050  33.374  0.00  0.00     0.069 A 
ATOM      7  O   UNL d   1     -52.642  26.098  33.472  0.00  0.00    -0.265 OA
ATOM      8  C   UNL d   1     -52.074  24.552  33.404  0.00  0.00     0.102 C 
ATOM      9  C   UNL d   1     -49.394  25.546  33.345  0.00  0.00     0.003 A 
ATOM     10  C   UNL d   1     -50.452  24.276  33.340  0.00  0.00     0.018 A 
ATOM     11  C   UNL d   1     -49.111  24.775  33.311  0.00  0.00     0.000 A 
ATOM     12  C   UNL d   1     -49.641  24.137  33.309  0.00  0.00     0.002 A 
ENDROOT
BRANCH   3  13
ATOM     13  N   UNL d   1     -49.959  27.099  33.414  0.00  0.00    -0.242 NA
BRANCH  13  14
ATOM     14  C   UNL d   1     -49.347  27.126  33.964  0.00  0.00     0.101 C 
BRANCH  14  15
ATOM     15  C   UNL d   1     -48.986  27.847  34.146  0.00  0.00     0.040 C 
BRANCH  15  16
ATOM     16  C   UNL d   1     -48.878  28.066  34.932  0.00  0.00     0.083 C 
BRANCH  16  17
ATOM     17  N   UNL d   1     -48.331  28.659  35.127  0.00  0.00    -0.285 N 
ATOM     18  C   UNL d   1     -47.628  28.550  35.541  0.00  0.00     0.183 A 
ATOM     19  N   UNL d   1     -47.261  29.284  35.608  0.00  0.00    -0.222 NA
ATOM     20  C   UNL d   1     -47.739  29.842  35.236  0.00  0.00     0.120 A 
ATOM     21  C   UNL d   1     -48.396  29.460  34.939  0.00  0.00     0.102 A 
ENDBRANCH  16  17
ENDBRANCH  15  16
ENDBRANCH  14  15
ENDBRANCH  13  14
ENDBRANCH   3  13
BRANCH   1  22
ATOM     22  N   UNL d   1     -51.594  27.371  33.477  0.00  0.00    -0.107 N 
ATOM     23  O   UNL d   1     -52.385  27.511  33.656  0.00  0.00    -0.531 OA
ATOM     24  O   UNL d   1     -51.083  28.007  33.330  0.00  0.00    -0.531 OA
ENDBRANCH   1  22
TORSDOF 6
ENDMDL
MODEL 2
REMARK VINA RESULT:      48.0      1.606      2.454
REMARK  6 active torsions:
REMARK  status: ('A' for Active; 'I' for Inactive)
REMARK    1  A    between atoms: N_5  and  C_1 
REMARK    2  A    between atoms: N_14  and  C_3 
REMARK    3  A    between atoms: N_9  and  C_20 
REMARK    4  A    between atoms: C_22  and  N_14 
REMARK    5  A    between atoms: C_20  and  C_21 
REMARK    6  A    between atoms: C_21  and  C_22 
ROOT
ATOM      1  C   UNL d   1     -50.998  24.585  33.425  0.00  0.00     0.200 A 
ATOM      2  C   UNL d   1     -51.672  24.105  33.386  0.00  0.00     0.288 A 
ATOM      3  C   UNL d   1     -51.067  25.409  33.428  0.00  0.00     0.109 A 
ATOM      4  N   UNL d   1     -52.419  24.447  33.349  0.00  0.00    -0.270 N 
ATOM      5  C   UNL d   1     -51.822  25.746  33.390  0.00  0.00     0.036 A 
ATOM      6  C   UNL d   1     -52.496  25.272  33.351  0.00  0.00     0.069 A 
ATOM      7  O   UNL d   1     -51.595  23.286  33.384  0.00  0.00    -0.265 OA
ATOM      8  C   UNL d   1     -53.093  23.972  33.310  0.00  0.00     0.102 C 
ATOM      9  C   UNL d   1     -51.901  26.569  33.392  0.00  0.00     0.003 A 
ATOM     10  C   UNL d   1     -53.247  25.611  33.314  0.00  0.00     0.018 A 
ATOM     11  C   UNL d   1     -52.649  26.911  33.355  0.00  0.00     0.000 A 
ATOM     12  C   UNL d   1     -53.323  26.430  33.316  0.00  0.00     0.002 A 
ENDROOT
BRANCH   3  13
ATOM     13  N   UNL d   1     -50.396  25.887  33.467  0.00  0.00    -0.242 NA
BRANCH  13  14
ATOM     14  C   UNL d   1     -50.175  26.230  34.181  0.00  0.00     0.101 C 
BRANCH  14  15
ATOM     15  C   UNL d   1     -49.831  26.983  34.188  0.00  0.00     0.040 C 
BRANCH  15  16
ATOM     16  C   UNL d   1     -49.073  27.085  34.491  0.00  0.00     0.083 C 
BRANCH  16  17
ATOM     17  N   UNL d   1     -48.816  27.840  34.722  0.00  0.00    -0.285 N 
ATOM     18  C   UNL d   1     -48.678  28.477  34.220  0.00  0.00     0.183 A 
ATOM     19  N   UNL d   1     -48.431  29.111  34.683  0.00  0.00    -0.222 NA
ATOM     20  C   UNL d   1     -48.418  28.863  35.468  0.00  0.00     0.120 A 
ATOM     21  C   UNL d   1     -48.654  28.082  35.493  0.00  0.00     0.102 A 
ENDBRANCH  16  17
ENDBRANCH  15  16
ENDBRANCH  14  15
ENDBRANCH  13  14
ENDBRANCH   3  13
BRANCH   1  22
ATOM     22  N   UNL d   1     -50.249  24.235  33.462  0.00  0.00    -0.107 N 
ATOM     23  O   UNL d   1     -49.584  24.688  33.636  0.00  0.00    -0.531 OA
ATOM     24  O   UNL d   1     -50.171  23.421  33.323  0.00  0.00    -0.531 OA
ENDBRANCH   1  22
TORSDOF 6
ENDMDL
