MODEL 1
REMARK VINA RESULT:      -9.0      0.000      0.000
REMARK  1 active torsions:
REMARK  status: ('A' for Active; 'I' for Inactive)
REMARK    1  A    between atoms: C_7  and  N_1 
ROOT
ATOM      1  N   UNL d   1     -48.176  12.618  23.110  0.00  0.00    -0.259 N 
ATOM      2  C   UNL d   1     -48.876  13.071  23.026  0.00  0.00     0.267 A 
ATOM      3  C   UNL d   1     -48.208  11.839  23.386  0.00  0.00     0.150 A 
ATOM      4  N   UNL d   1     -48.943  11.500  23.582  0.00  0.00    -0.228 NA
ATOM      5  C   UNL d   1     -49.603  12.726  23.223  0.00  0.00     0.074 A 
ATOM      6  C   UNL d   1     -49.634  11.938  23.502  0.00  0.00     0.088 A 
ATOM      7  O   UNL d   1     -48.837  13.845  22.751  0.00  0.00    -0.267 OA
ATOM      8  C   UNL d   1     -47.516  11.396  23.467  0.00  0.00     0.041 C 
ATOM      9  C   UNL d   1     -50.291  13.169  23.141  0.00  0.00     0.006 A 
ATOM     10  C   UNL d   1     -50.369  11.611  23.694  0.00  0.00     0.019 A 
ATOM     11  C   UNL d   1     -51.018  12.829  23.337  0.00  0.00     0.000 A 
ATOM     12  C   UNL d   1     -51.057  12.053  23.612  0.00  0.00     0.002 A 
ENDROOT
BRANCH   1  13
ATOM     13  C   UNL d   1     -47.450  12.951  22.917  0.00  0.00     0.068 A 
ATOM     14  C   UNL d   1     -47.160  12.896  22.142  0.00  0.00     0.020 A 
ATOM     15  C   UNL d   1     -46.429  13.233  21.955  0.00  0.00     0.031 A 
ATOM     16  C   UNL d   1     -45.987  13.622  22.530  0.00  0.00     0.140 A 
ATOM     17  C   UNL d   1     -46.282  13.672  23.300  0.00  0.00     0.031 A 
ATOM     18  F   UNL d   1     -45.261  13.954  22.337  0.00  0.00    -0.204 F 
ATOM     19  C   UNL d   1     -47.010  13.338  23.490  0.00  0.00     0.020 A 
ENDBRANCH   1  13
TORSDOF 1
ENDMDL
MODEL 2
REMARK VINA RESULT:      -8.5      1.666      3.183
REMARK  1 active torsions:
REMARK  status: ('A' for Active; 'I' for Inactive)
REMARK    1  A    between atoms: C_7  and  N_1 
ROOT
ATOM      1  N   UNL d   1     -48.889  12.827  23.007  0.00  0.00    -0.259 N 
ATOM      2  C   UNL d   1     -48.069  12.998  23.008  0.00  0.00     0.267 A 
ATOM      3  C   UNL d   1     -49.166  12.081  23.232  0.00  0.00     0.150 A 
ATOM      4  N   UNL d   1     -48.624  11.492  23.463  0.00  0.00    -0.228 NA
ATOM      5  C   UNL d   1     -47.537  12.406  23.240  0.00  0.00     0.074 A 
ATOM      6  C   UNL d   1     -47.817  11.652  23.468  0.00  0.00     0.088 A 
ATOM      7  O   UNL d   1     -47.801  13.742  22.783  0.00  0.00    -0.267 OA
ATOM      8  C   UNL d   1     -49.975  11.916  23.229  0.00  0.00     0.041 C 
ATOM      9  C   UNL d   1     -46.731  12.572  23.242  0.00  0.00     0.006 A 
ATOM     10  C   UNL d   1     -47.271  11.075  23.696  0.00  0.00     0.019 A 
ATOM     11  C   UNL d   1     -46.198  11.986  23.472  0.00  0.00     0.000 A 
ATOM     12  C   UNL d   1     -46.466  11.240  23.698  0.00  0.00     0.002 A 
ENDROOT
BRANCH   1  13
ATOM     13  C   UNL d   1     -49.425  13.406  22.779  0.00  0.00     0.068 A 
ATOM     14  C   UNL d   1     -49.663  13.466  21.986  0.00  0.00     0.020 A 
ATOM     15  C   UNL d   1     -50.202  14.051  21.764  0.00  0.00     0.031 A 
ATOM     16  C   UNL d   1     -50.506  14.574  22.322  0.00  0.00     0.140 A 
ATOM     17  C   UNL d   1     -50.266  14.510  23.109  0.00  0.00     0.031 A 
ATOM     18  F   UNL d   1     -51.042  15.154  22.094  0.00  0.00    -0.204 F 
ATOM     19  C   UNL d   1     -49.728  13.928  23.334  0.00  0.00     0.020 A 
ENDBRANCH   1  13
TORSDOF 1
ENDMDL
MODEL 3
REMARK VINA RESULT:      -8.5      1.291      1.674
REMARK  1 active torsions:
REMARK  status: ('A' for Active; 'I' for Inactive)
REMARK    1  A    between atoms: C_7  and  N_1 
ROOT
ATOM      1  N   UNL d   1     -48.295  13.769  22.959  0.00  0.00    -0.259 N 
ATOM      2  C   UNL d   1     -48.600  14.546  22.883  0.00  0.00     0.267 A 
ATOM      3  C   UNL d   1     -48.770  13.156  23.245  0.00  0.00     0.150 A 
ATOM      4  N   UNL d   1     -49.560  13.311  23.461  0.00  0.00    -0.228 NA
ATOM      5  C   UNL d   1     -49.386  14.691  23.099  0.00  0.00     0.074 A 
ATOM      6  C   UNL d   1     -49.866  14.071  23.389  0.00  0.00     0.088 A 
ATOM      7  O   UNL d   1     -48.121  15.151  22.597  0.00  0.00    -0.267 OA
ATOM      8  C   UNL d   1     -48.468  12.391  23.319  0.00  0.00     0.041 C 
ATOM      9  C   UNL d   1     -49.686  15.454  23.025  0.00  0.00     0.006 A 
ATOM     10  C   UNL d   1     -50.648  14.236  23.599  0.00  0.00     0.019 A 
ATOM     11  C   UNL d   1     -50.470  15.603  23.239  0.00  0.00     0.000 A 
ATOM     12  C   UNL d   1     -50.949  14.997  23.525  0.00  0.00     0.002 A 
ENDROOT
BRANCH   1  13
ATOM     13  C   UNL d   1     -47.517  13.614  22.747  0.00  0.00     0.068 A 
ATOM     14  C   UNL d   1     -47.343  13.303  21.998  0.00  0.00     0.020 A 
ATOM     15  C   UNL d   1     -46.558  13.149  21.792  0.00  0.00     0.031 A 
ATOM     16  C   UNL d   1     -45.947  13.302  22.323  0.00  0.00     0.140 A 
ATOM     17  C   UNL d   1     -46.127  13.612  23.067  0.00  0.00     0.031 A 
ATOM     18  F   UNL d   1     -45.169  13.147  22.111  0.00  0.00    -0.204 F 
ATOM     19  C   UNL d   1     -46.909  13.766  23.276  0.00  0.00     0.020 A 
ENDBRANCH   1  13
TORSDOF 1
ENDMDL
MODEL 4
REMARK VINA RESULT:      -8.1      1.808      3.870
REMARK  1 active torsions:
REMARK  status: ('A' for Active; 'I' for Inactive)
REMARK    1  A    between atoms: C_7  and  N_1 
ROOT
ATOM      1  N   UNL d   1     -48.279  13.200  22.819  0.00  0.00    -0.259 N 
ATOM      2  C   UNL d   1     -47.552  12.804  22.691  0.00  0.00     0.267 A 
ATOM      3  C   UNL d   1     -48.307  14.025  22.872  0.00  0.00     0.150 A 
ATOM      4  N   UNL d   1     -47.605  14.468  22.797  0.00  0.00    -0.228 NA
ATOM      5  C   UNL d   1     -46.859  13.252  22.617  0.00  0.00     0.074 A 
ATOM      6  C   UNL d   1     -46.887  14.086  22.671  0.00  0.00     0.088 A 
ATOM      7  O   UNL d   1     -47.531  11.983  22.639  0.00  0.00    -0.267 OA
ATOM      8  C   UNL d   1     -49.025  14.412  22.999  0.00  0.00     0.041 C 
ATOM      9  C   UNL d   1     -46.144  12.865  22.491  0.00  0.00     0.006 A 
ATOM     10  C   UNL d   1     -46.185  14.516  22.595  0.00  0.00     0.019 A 
ATOM     11  C   UNL d   1     -45.451  13.308  22.417  0.00  0.00     0.000 A 
ATOM     12  C   UNL d   1     -45.471  14.130  22.469  0.00  0.00     0.002 A 
ENDROOT
BRANCH   1  13
ATOM     13  C   UNL d   1     -48.972  12.765  22.893  0.00  0.00     0.068 A 
ATOM     14  C   UNL d   1     -49.193  12.456  23.631  0.00  0.00     0.020 A 
ATOM     15  C   UNL d   1     -49.891  12.020  23.698  0.00  0.00     0.031 A 
ATOM     16  C   UNL d   1     -50.369  11.890  23.040  0.00  0.00     0.140 A 
ATOM     17  C   UNL d   1     -50.143  12.200  22.309  0.00  0.00     0.031 A 
ATOM     18  F   UNL d   1     -51.062  11.455  23.115  0.00  0.00    -0.204 F 
ATOM     19  C   UNL d   1     -49.448  12.635  22.238  0.00  0.00     0.020 A 
ENDBRANCH   1  13
TORSDOF 1
ENDMDL
MODEL 5
REMARK VINA RESULT:      -6.2      0.876      1.435
REMARK  1 active torsions:
REMARK  status: ('A' for Active; 'I' for Inactive)
REMARK    1  A    between atoms: C_7  and  N_1 
ROOT
ATOM      1  N   UNL d   1     -48.323  13.347  22.933  0.00  0.00    -0.259 N 
ATOM      2  C   UNL d   1     -48.654  12.604  23.134  0.00  0.00     0.267 A 
ATOM      3  C   UNL d   1     -48.791  14.028  22.917  0.00  0.00     0.150 A 
ATOM      4  N   UNL d   1     -49.602  13.976  23.103  0.00  0.00    -0.228 NA
ATOM      5  C   UNL d   1     -49.461  12.562  23.317  0.00  0.00     0.074 A 
ATOM      6  C   UNL d   1     -49.934  13.250  23.301  0.00  0.00     0.088 A 
ATOM      7  O   UNL d   1     -48.181  11.931  23.148  0.00  0.00    -0.267 OA
ATOM      8  C   UNL d   1     -48.462  14.759  22.719  0.00  0.00     0.041 C 
ATOM      9  C   UNL d   1     -49.787  11.833  23.515  0.00  0.00     0.006 A 
ATOM     10  C   UNL d   1     -50.738  13.188  23.487  0.00  0.00     0.019 A 
ATOM     11  C   UNL d   1     -50.591  11.786  23.698  0.00  0.00     0.000 A 
ATOM     12  C   UNL d   1     -51.064  12.460  23.684  0.00  0.00     0.002 A 
ENDROOT
BRANCH   1  13
ATOM     13  C   UNL d   1     -47.523  13.401  22.750  0.00  0.00     0.068 A 
ATOM     14  C   UNL d   1     -47.261  13.240  21.979  0.00  0.00     0.020 A 
ATOM     15  C   UNL d   1     -46.456  13.296  21.802  0.00  0.00     0.031 A 
ATOM     16  C   UNL d   1     -45.913  13.509  22.383  0.00  0.00     0.140 A 
ATOM     17  C   UNL d   1     -46.180  13.668  23.148  0.00  0.00     0.031 A 
ATOM     18  F   UNL d   1     -45.114  13.563  22.199  0.00  0.00    -0.204 F 
ATOM     19  C   UNL d   1     -46.982  13.613  23.328  0.00  0.00     0.020 A 
ENDBRANCH   1  13
TORSDOF 1
ENDMDL
