MODEL 1
REMARK VINA RESULT:      -8.2      0.000      0.000
REMARK  5 active torsions:
REMARK  status: ('A' for Active; 'I' for Inactive)
REMARK    1  A    between atoms: C_6  and  C_1 
REMARK    2  A    between atoms: C_9  and  N_2 
REMARK    3  A    between atoms: O_13  and  C_8 
REMARK    4  A    between atoms: O_15  and  C_9 
REMARK    5  A    between atoms: O_14  and  C_10 
ROOT
ATOM      1  C   UNL d   1      52.703  32.315  53.475  0.00  0.00     0.149 A 
ATOM      2  N   UNL d   1      53.370  31.962  53.811  0.00  0.00    -0.269 N 
ATOM      3  N   UNL d   1      52.311  31.716  53.061  0.00  0.00    -0.227 NA
ATOM      4  C   UNL d   1      53.386  31.176  53.611  0.00  0.00     0.085 A 
ATOM      5  C   UNL d   1      52.703  31.017  53.127  0.00  0.00     0.099 A 
ATOM      6  C   UNL d   1      53.904  30.594  53.790  0.00  0.00     0.019 A 
ATOM      7  C   UNL d   1      52.619  30.234  52.863  0.00  0.00     0.021 A 
ATOM      8  C   UNL d   1      53.768  29.857  53.505  0.00  0.00     0.002 A 
ATOM      9  C   UNL d   1      53.126  29.708  53.050  0.00  0.00     0.002 A 
ENDROOT
BRANCH   1  10
ATOM     10  C   UNL d   1      52.185  32.897  53.295  0.00  0.00     0.037 A 
ATOM     11  C   UNL d   1      52.468  33.631  53.045  0.00  0.00     0.029 A 
ATOM     12  C   UNL d   1      51.945  34.241  52.857  0.00  0.00     0.116 A 
ATOM     13  C   UNL d   1      51.125  34.115  52.920  0.00  0.00     0.116 A 
ATOM     14  C   UNL d   1      50.837  33.381  53.170  0.00  0.00     0.026 A 
ATOM     15  C   UNL d   1      51.365  32.771  53.358  0.00  0.00     0.005 A 
BRANCH  12  16
ATOM     16  O   UNL d   1      52.228  34.974  52.607  0.00  0.00    -0.326 OA
ATOM     17  C   UNL d   1      52.933  35.284  52.915  0.00  0.00     0.181 C 
ENDBRANCH  12  16
BRANCH  13  18
ATOM     18  O   UNL d   1      50.597  34.724  52.732  0.00  0.00    -0.326 OA
ATOM     19  C   UNL d   1      49.782  34.565  52.667  0.00  0.00     0.181 C 
ENDBRANCH  13  18
ENDBRANCH   1  10
BRANCH   2  20
ATOM     20  C   UNL d   1      53.813  32.459  54.231  0.00  0.00     0.205 C 
BRANCH  20  21
ATOM     21  O   UNL d   1      53.947  32.357  55.027  0.00  0.00    -0.310 OA
ATOM     22  C   UNL d   1      54.377  32.882  55.485  0.00  0.00     0.183 C 
ENDBRANCH  20  21
ENDBRANCH   2  20
TORSDOF 5
ENDMDL
MODEL 2
REMARK VINA RESULT:      -7.8      1.089      2.312
REMARK  5 active torsions:
REMARK  status: ('A' for Active; 'I' for Inactive)
REMARK    1  A    between atoms: C_6  and  C_1 
REMARK    2  A    between atoms: C_9  and  N_2 
REMARK    3  A    between atoms: O_13  and  C_8 
REMARK    4  A    between atoms: O_15  and  C_9 
REMARK    5  A    between atoms: O_14  and  C_10 
ROOT
ATOM      1  C   UNL d   1      52.473  33.251  53.525  0.00  0.00     0.149 A 
ATOM      2  N   UNL d   1      53.079  32.693  53.594  0.00  0.00    -0.269 N 
ATOM      3  N   UNL d   1      52.685  33.880  54.017  0.00  0.00    -0.227 NA
ATOM      4  C   UNL d   1      53.641  32.970  54.108  0.00  0.00     0.085 A 
ATOM      5  C   UNL d   1      53.387  33.737  54.381  0.00  0.00     0.099 A 
ATOM      6  C   UNL d   1      54.328  32.653  54.365  0.00  0.00     0.019 A 
ATOM      7  C   UNL d   1      53.894  34.117  54.918  0.00  0.00     0.021 A 
ATOM      8  C   UNL d   1      54.774  33.070  54.884  0.00  0.00     0.002 A 
ATOM      9  C   UNL d   1      54.536  33.790  55.141  0.00  0.00     0.002 A 
ENDROOT
BRANCH   1  10
ATOM     10  C   UNL d   1      51.785  33.569  53.269  0.00  0.00     0.037 A 
ATOM     11  C   UNL d   1      51.738  33.874  52.503  0.00  0.00     0.029 A 
ATOM     12  C   UNL d   1      51.035  34.205  52.225  0.00  0.00     0.116 A 
ATOM     13  C   UNL d   1      50.368  34.232  52.721  0.00  0.00     0.116 A 
ATOM     14  C   UNL d   1      50.411  33.927  53.490  0.00  0.00     0.026 A 
ATOM     15  C   UNL d   1      51.118  33.596  53.765  0.00  0.00     0.005 A 
BRANCH  12  16
ATOM     16  O   UNL d   1      50.989  34.510  51.460  0.00  0.00    -0.326 OA
ATOM     17  C   UNL d   1      51.650  34.497  50.958  0.00  0.00     0.181 C 
ENDBRANCH  12  16
BRANCH  13  18
ATOM     18  O   UNL d   1      49.661  34.563  52.447  0.00  0.00    -0.326 OA
ATOM     19  C   UNL d   1      49.171  34.991  52.966  0.00  0.00     0.181 C 
ENDBRANCH  13  18
ENDBRANCH   1  10
BRANCH   2  20
ATOM     20  C   UNL d   1      52.966  32.048  53.156  0.00  0.00     0.205 C 
BRANCH  20  21
ATOM     21  O   UNL d   1      53.037  31.297  53.462  0.00  0.00    -0.310 OA
ATOM     22  C   UNL d   1      52.925  30.617  53.020  0.00  0.00     0.183 C 
ENDBRANCH  20  21
ENDBRANCH   2  20
TORSDOF 5
ENDMDL
MODEL 3
REMARK VINA RESULT:      -7.8      1.385      2.290
REMARK  5 active torsions:
REMARK  status: ('A' for Active; 'I' for Inactive)
REMARK    1  A    between atoms: C_6  and  C_1 
REMARK    2  A    between atoms: C_9  and  N_2 
REMARK    3  A    between atoms: O_13  and  C_8 
REMARK    4  A    between atoms: O_15  and  C_9 
REMARK    5  A    between atoms: O_14  and  C_10 
ROOT
ATOM      1  C   UNL d   1      52.093  33.896  53.007  0.00  0.00     0.149 A 
ATOM      2  N   UNL d   1      52.789  34.039  53.429  0.00  0.00    -0.269 N 
ATOM      3  N   UNL d   1      52.060  33.079  52.892  0.00  0.00    -0.227 NA
ATOM      4  C   UNL d   1      53.169  33.336  53.567  0.00  0.00     0.085 A 
ATOM      5  C   UNL d   1      52.698  32.715  53.220  0.00  0.00     0.099 A 
ATOM      6  C   UNL d   1      53.853  33.167  53.944  0.00  0.00     0.019 A 
ATOM      7  C   UNL d   1      52.997  31.945  53.303  0.00  0.00     0.021 A 
ATOM      8  C   UNL d   1      54.088  32.402  53.991  0.00  0.00     0.002 A 
ATOM      9  C   UNL d   1      53.646  31.819  53.665  0.00  0.00     0.002 A 
ENDROOT
BRANCH   1  10
ATOM     10  C   UNL d   1      51.409  34.064  52.629  0.00  0.00     0.037 A 
ATOM     11  C   UNL d   1      50.736  34.248  53.070  0.00  0.00     0.029 A 
ATOM     12  C   UNL d   1      50.022  34.424  52.693  0.00  0.00     0.116 A 
ATOM     13  C   UNL d   1      49.982  34.416  51.862  0.00  0.00     0.116 A 
ATOM     14  C   UNL d   1      50.655  34.232  51.417  0.00  0.00     0.026 A 
ATOM     15  C   UNL d   1      51.369  34.056  51.798  0.00  0.00     0.005 A 
BRANCH  12  16
ATOM     16  O   UNL d   1      49.350  34.607  53.133  0.00  0.00    -0.326 OA
ATOM     17  C   UNL d   1      49.351  35.245  53.665  0.00  0.00     0.181 C 
ENDBRANCH  12  16
BRANCH  13  18
ATOM     18  O   UNL d   1      49.270  34.591  51.480  0.00  0.00    -0.326 OA
ATOM     19  C   UNL d   1      49.163  34.387  50.681  0.00  0.00     0.181 C 
ENDBRANCH  13  18
ENDBRANCH   1  10
BRANCH   2  20
ATOM     20  C   UNL d   1      52.911  34.801  53.589  0.00  0.00     0.205 C 
BRANCH  20  21
ATOM     21  O   UNL d   1      53.065  35.068  54.342  0.00  0.00    -0.310 OA
ATOM     22  C   UNL d   1      53.239  35.848  54.518  0.00  0.00     0.183 C 
ENDBRANCH  20  21
ENDBRANCH   2  20
TORSDOF 5
ENDMDL
MODEL 4
REMARK VINA RESULT:      -7.5      1.307      2.972
REMARK  5 active torsions:
REMARK  status: ('A' for Active; 'I' for Inactive)
REMARK    1  A    between atoms: C_6  and  C_1 
REMARK    2  A    between atoms: C_9  and  N_2 
REMARK    3  A    between atoms: O_13  and  C_8 
REMARK    4  A    between atoms: O_15  and  C_9 
REMARK    5  A    between atoms: O_14  and  C_10 
ROOT
ATOM      1  C   UNL d   1      53.366  32.124  53.657  0.00  0.00     0.149 A 
ATOM      2  N   UNL d   1      52.809  31.819  53.128  0.00  0.00    -0.269 N 
ATOM      3  N   UNL d   1      53.705  31.470  54.032  0.00  0.00    -0.227 NA
ATOM      4  C   UNL d   1      52.807  31.010  53.177  0.00  0.00     0.085 A 
ATOM      5  C   UNL d   1      53.386  30.784  53.761  0.00  0.00     0.099 A 
ATOM      6  C   UNL d   1      52.379  30.456  52.791  0.00  0.00     0.019 A 
ATOM      7  C   UNL d   1      53.468  29.969  53.893  0.00  0.00     0.021 A 
ATOM      8  C   UNL d   1      52.504  29.683  52.964  0.00  0.00     0.002 A 
ATOM      9  C   UNL d   1      53.048  29.471  53.512  0.00  0.00     0.002 A 
ENDROOT
BRANCH   1  10
ATOM     10  C   UNL d   1      53.795  32.677  54.044  0.00  0.00     0.037 A 
ATOM     11  C   UNL d   1      53.409  33.233  54.516  0.00  0.00     0.029 A 
ATOM     12  C   UNL d   1      53.839  33.810  54.921  0.00  0.00     0.116 A 
ATOM     13  C   UNL d   1      54.668  33.832  54.852  0.00  0.00     0.116 A 
ATOM     14  C   UNL d   1      55.058  33.276  54.379  0.00  0.00     0.026 A 
ATOM     15  C   UNL d   1      54.624  32.699  53.974  0.00  0.00     0.005 A 
BRANCH  12  16
ATOM     16  O   UNL d   1      53.453  34.365  55.393  0.00  0.00    -0.326 OA
ATOM     17  C   UNL d   1      52.942  34.926  55.057  0.00  0.00     0.181 C 
ENDBRANCH  12  16
BRANCH  13  18
ATOM     18  O   UNL d   1      55.102  34.408  55.256  0.00  0.00    -0.326 OA
ATOM     19  C   UNL d   1      55.931  34.352  55.300  0.00  0.00     0.181 C 
ENDBRANCH  13  18
ENDBRANCH   1  10
BRANCH   2  20
ATOM     20  C   UNL d   1      52.427  32.373  52.718  0.00  0.00     0.205 C 
BRANCH  20  21
ATOM     21  O   UNL d   1      51.622  32.475  52.769  0.00  0.00    -0.310 OA
ATOM     22  C   UNL d   1      51.219  33.089  52.406  0.00  0.00     0.183 C 
ENDBRANCH  20  21
ENDBRANCH   2  20
TORSDOF 5
ENDMDL
MODEL 5
REMARK VINA RESULT:      -7.1      1.498      3.844
REMARK  5 active torsions:
REMARK  status: ('A' for Active; 'I' for Inactive)
REMARK    1  A    between atoms: C_6  and  C_1 
REMARK    2  A    between atoms: C_9  and  N_2 
REMARK    3  A    between atoms: O_13  and  C_8 
REMARK    4  A    between atoms: O_15  and  C_9 
REMARK    5  A    between atoms: O_14  and  C_10 
ROOT
ATOM      1  C   UNL d   1      53.319  32.360  53.819  0.00  0.00     0.149 A 
ATOM      2  N   UNL d   1      53.619  33.130  53.817  0.00  0.00    -0.269 N 
ATOM      3  N   UNL d   1      52.538  32.419  53.554  0.00  0.00    -0.227 NA
ATOM      4  C   UNL d   1      53.044  33.642  53.560  0.00  0.00     0.085 A 
ATOM      5  C   UNL d   1      52.345  33.182  53.391  0.00  0.00     0.099 A 
ATOM      6  C   UNL d   1      53.045  34.434  53.457  0.00  0.00     0.019 A 
ATOM      7  C   UNL d   1      51.688  33.610  53.118  0.00  0.00     0.021 A 
ATOM      8  C   UNL d   1      52.378  34.789  53.191  0.00  0.00     0.002 A 
ATOM      9  C   UNL d   1      51.722  34.358  53.032  0.00  0.00     0.002 A 
ENDROOT
BRANCH   1  10
ATOM     10  C   UNL d   1      53.316  31.568  53.922  0.00  0.00     0.037 A 
ATOM     11  C   UNL d   1      53.348  31.072  53.262  0.00  0.00     0.029 A 
ATOM     12  C   UNL d   1      53.346  30.251  53.353  0.00  0.00     0.116 A 
ATOM     13  C   UNL d   1      53.311  29.921  54.116  0.00  0.00     0.116 A 
ATOM     14  C   UNL d   1      53.279  30.415  54.780  0.00  0.00     0.026 A 
ATOM     15  C   UNL d   1      53.281  31.238  54.685  0.00  0.00     0.005 A 
BRANCH  12  16
ATOM     16  O   UNL d   1      53.378  29.756  52.695  0.00  0.00    -0.326 OA
ATOM     17  C   UNL d   1      53.022  29.979  51.979  0.00  0.00     0.181 C 
ENDBRANCH  12  16
BRANCH  13  18
ATOM     18  O   UNL d   1      53.309  29.100  54.212  0.00  0.00    -0.326 OA
ATOM     19  C   UNL d   1      53.340  28.768  54.975  0.00  0.00     0.181 C 
ENDBRANCH  13  18
ENDBRANCH   1  10
BRANCH   2  20
ATOM     20  C   UNL d   1      54.368  33.179  54.057  0.00  0.00     0.205 C 
BRANCH  20  21
ATOM     21  O   UNL d   1      54.600  33.671  54.662  0.00  0.00    -0.310 OA
ATOM     22  C   UNL d   1      55.377  33.752  54.906  0.00  0.00     0.183 C 
ENDBRANCH  20  21
ENDBRANCH   2  20
TORSDOF 5
ENDMDL
MODEL 6
REMARK VINA RESULT:      -6.9      1.559      4.130
REMARK  5 active torsions:
REMARK  status: ('A' for Active; 'I' for Inactive)
REMARK    1  A    between atoms: C_6  and  C_1 
REMARK    2  A    between atoms: C_9  and  N_2 
REMARK    3  A    between atoms: O_13  and  C_8 
REMARK    4  A    between atoms: O_15  and  C_9 
REMARK    5  A    between atoms: O_14  and  C_10 
ROOT
ATOM      1  C   UNL d   1      53.368  32.166  54.176  0.00  0.00     0.149 A 
ATOM      2  N   UNL d   1      53.135  32.938  53.999  0.00  0.00    -0.269 N 
ATOM      3  N   UNL d   1      54.053  32.233  54.633  0.00  0.00    -0.227 NA
ATOM      4  C   UNL d   1      53.658  33.460  54.335  0.00  0.00     0.085 A 
ATOM      5  C   UNL d   1      54.251  33.004  54.744  0.00  0.00     0.099 A 
ATOM      6  C   UNL d   1      53.687  34.258  54.332  0.00  0.00     0.019 A 
ATOM      7  C   UNL d   1      54.843  33.441  55.128  0.00  0.00     0.021 A 
ATOM      8  C   UNL d   1      54.285  34.623  54.722  0.00  0.00     0.002 A 
ATOM      9  C   UNL d   1      54.842  34.195  55.107  0.00  0.00     0.002 A 
ENDROOT
BRANCH   1  10
ATOM     10  C   UNL d   1      53.339  31.367  54.180  0.00  0.00     0.037 A 
ATOM     11  C   UNL d   1      53.352  30.956  53.464  0.00  0.00     0.029 A 
ATOM     12  C   UNL d   1      53.323  30.131  53.452  0.00  0.00     0.116 A 
ATOM     13  C   UNL d   1      53.281  29.710  54.168  0.00  0.00     0.116 A 
ATOM     14  C   UNL d   1      53.268  30.118  54.889  0.00  0.00     0.026 A 
ATOM     15  C   UNL d   1      53.298  30.945  54.896  0.00  0.00     0.005 A 
BRANCH  12  16
ATOM     16  O   UNL d   1      53.335  29.721  52.737  0.00  0.00    -0.326 OA
ATOM     17  C   UNL d   1      52.993  30.048  52.055  0.00  0.00     0.181 C 
ENDBRANCH  12  16
BRANCH  13  18
ATOM     18  O   UNL d   1      53.252  28.883  54.161  0.00  0.00    -0.326 OA
ATOM     19  C   UNL d   1      53.388  28.454  54.862  0.00  0.00     0.181 C 
ENDBRANCH  13  18
ENDBRANCH   1  10
BRANCH   2  20
ATOM     20  C   UNL d   1      52.482  32.979  53.560  0.00  0.00     0.205 C 
BRANCH  20  21
ATOM     21  O   UNL d   1      51.854  33.457  53.759  0.00  0.00    -0.310 OA
ATOM     22  C   UNL d   1      51.178  33.529  53.302  0.00  0.00     0.183 C 
ENDBRANCH  20  21
ENDBRANCH   2  20
TORSDOF 5
ENDMDL
MODEL 7
REMARK VINA RESULT:      -6.6      1.011      3.812
REMARK  5 active torsions:
REMARK  status: ('A' for Active; 'I' for Inactive)
REMARK    1  A    between atoms: C_6  and  C_1 
REMARK    2  A    between atoms: C_9  and  N_2 
REMARK    3  A    between atoms: O_13  and  C_8 
REMARK    4  A    between atoms: O_15  and  C_9 
REMARK    5  A    between atoms: O_14  and  C_10 
ROOT
ATOM      1  C   UNL d   1      52.243  33.427  53.296  0.00  0.00     0.149 A 
ATOM      2  N   UNL d   1      52.084  34.236  53.239  0.00  0.00    -0.269 N 
ATOM      3  N   UNL d   1      51.530  33.042  53.137  0.00  0.00    -0.227 NA
ATOM      4  C   UNL d   1      51.302  34.343  53.052  0.00  0.00     0.085 A 
ATOM      5  C   UNL d   1      50.944  33.571  52.985  0.00  0.00     0.099 A 
ATOM      6  C   UNL d   1      50.870  35.005  52.933  0.00  0.00     0.019 A 
ATOM      7  C   UNL d   1      50.136  33.562  52.794  0.00  0.00     0.021 A 
ATOM      8  C   UNL d   1      50.093  34.930  52.751  0.00  0.00     0.002 A 
ATOM      9  C   UNL d   1      49.757  34.205  52.689  0.00  0.00     0.002 A 
ENDROOT
BRANCH   1  10
ATOM     10  C   UNL d   1      52.675  32.765  53.414  0.00  0.00     0.037 A 
ATOM     11  C   UNL d   1      53.140  32.698  54.093  0.00  0.00     0.029 A 
ATOM     12  C   UNL d   1      53.591  32.019  54.228  0.00  0.00     0.116 A 
ATOM     13  C   UNL d   1      53.576  31.398  53.675  0.00  0.00     0.116 A 
ATOM     14  C   UNL d   1      53.110  31.461  52.994  0.00  0.00     0.026 A 
ATOM     15  C   UNL d   1      52.660  32.143  52.862  0.00  0.00     0.005 A 
BRANCH  12  16
ATOM     16  O   UNL d   1      54.055  31.953  54.906  0.00  0.00    -0.326 OA
ATOM     17  C   UNL d   1      54.189  32.610  55.395  0.00  0.00     0.181 C 
ENDBRANCH  12  16
BRANCH  13  18
ATOM     18  O   UNL d   1      54.026  30.716  53.807  0.00  0.00    -0.326 OA
ATOM     19  C   UNL d   1      53.788  29.989  53.479  0.00  0.00     0.181 C 
ENDBRANCH  13  18
ENDBRANCH   1  10
BRANCH   2  20
ATOM     20  C   UNL d   1      52.711  34.693  53.377  0.00  0.00     0.205 C 
BRANCH  20  21
ATOM     21  O   UNL d   1      52.693  35.307  53.910  0.00  0.00    -0.310 OA
ATOM     22  C   UNL d   1      53.351  35.750  54.112  0.00  0.00     0.183 C 
ENDBRANCH  20  21
ENDBRANCH   2  20
TORSDOF 5
ENDMDL
