MODEL 1
REMARK VINA RESULT:      31.3      0.000      0.000
REMARK  3 active torsions:
REMARK  status: ('A' for Active; 'I' for Inactive)
REMARK    1  A    between atoms: C_12  and  C_5 
REMARK    2  A    between atoms: C_14  and  C_12 
REMARK    3  A    between atoms: C_15  and  C_14 
ROOT
ATOM      1  C   UNL d   1     -59.595 -98.823 -43.444  0.00  0.00     0.206 A 
ATOM      2  C   UNL d   1     -58.779 -98.797 -43.328  0.00  0.00     0.063 A 
ATOM      3  C   UNL d   1     -58.579 -98.790 -44.733  0.00  0.00     0.111 A 
ATOM      4  C   UNL d   1     -59.392 -98.816 -44.848  0.00  0.00     0.214 A 
ATOM      5  C   UNL d   1     -58.273 -98.781 -43.967  0.00  0.00     0.018 A 
ATOM      6  O   UNL d   1     -59.899 -98.832 -44.198  0.00  0.00    -0.268 OA
ATOM      7  N   UNL d   1     -59.958 -98.835 -42.736  0.00  0.00    -0.123 NA
ATOM      8  N   UNL d   1     -59.400 -98.818 -42.157  0.00  0.00    -0.146 NA
ATOM      9  C   UNL d   1     -58.661 -98.794 -42.511  0.00  0.00     0.106 A 
ATOM     10  C   UNL d   1     -58.072 -98.774 -45.383  0.00  0.00     0.105 C 
ATOM     11  N   UNL d   1     -57.571 -98.757 -46.023  0.00  0.00    -0.191 NA
ATOM     12  N   UNL d   1     -59.687 -98.825 -45.586  0.00  0.00    -0.120 N 
ATOM     13  C   UNL d   1     -57.914 -98.771 -41.983  0.00  0.00     0.023 C 
ENDROOT
BRANCH   5  14
ATOM     14  C   UNL d   1     -57.472 -98.755 -43.853  0.00  0.00     0.001 C 
BRANCH  14  15
ATOM     15  C   UNL d   1     -56.772 -98.802 -44.466  0.00  0.00     0.000 C 
BRANCH  15  16
ATOM     16  C   UNL d   1     -56.131 -99.324 -44.458  0.00  0.00     0.000 A 
ATOM     17  C   UNL d   1     -56.258-100.152 -44.430  0.00  0.00     0.000 A 
ATOM     18  C   UNL d   1     -55.620-100.656 -44.422  0.00  0.00     0.000 A 
ATOM     19  C   UNL d   1     -54.841-100.353 -44.442  0.00  0.00     0.000 A 
ATOM     20  C   UNL d   1     -54.716 -99.537 -44.469  0.00  0.00     0.000 A 
ATOM     21  C   UNL d   1     -55.369 -99.029 -44.477  0.00  0.00     0.000 A 
ENDBRANCH  15  16
ENDBRANCH  14  15
ENDBRANCH   5  14
TORSDOF 3
ENDMDL
