MODEL 1
REMARK VINA RESULT:      85.9      0.000      0.000
REMARK  5 active torsions:
REMARK  status: ('A' for Active; 'I' for Inactive)
REMARK    1  A    between atoms: C_2  and  S_1 
REMARK    2  A    between atoms: N_8  and  S_1 
REMARK    3  A    between atoms: C_3  and  C_14 
REMARK    4  A    between atoms: C_17  and  N_8 
REMARK    5  A    between atoms: C_23  and  C_11 
ROOT
ATOM      1  C   UNL d   1      60.962  47.360  50.347  0.00  0.00     0.024 A 
ATOM      2  C   UNL d   1      60.191  48.803  50.618  0.00  0.00     0.094 A 
ATOM      3  C   UNL d   1      60.187  47.467  50.078  0.00  0.00     0.004 A 
ATOM      4  C   UNL d   1      61.339  47.974  50.747  0.00  0.00     0.004 A 
ATOM      5  C   UNL d   1      60.959  48.685  50.880  0.00  0.00     0.020 A 
ATOM      6  C   UNL d   1      59.802  48.180  50.211  0.00  0.00     0.020 A 
ENDROOT
BRANCH   2   7
ATOM      7  N   UNL d   1      59.809  49.512  50.750  0.00  0.00    -0.158 NA
BRANCH   7   8
ATOM      8  S   UNL d   1      58.985  49.546  50.736  0.00  0.00     0.291 S 
ATOM      9  O   UNL d   1      58.970  49.386  51.536  0.00  0.00    -0.198 OA
ATOM     10  O   UNL d   1      59.002  49.707  49.936  0.00  0.00    -0.198 OA
BRANCH   8  11
ATOM     11  C   UNL d   1      58.168  49.582  50.715  0.00  0.00     0.135 A 
ATOM     12  S   UNL d   1      57.644  49.502  51.353  0.00  0.00    -0.074 SA
ATOM     13  C   UNL d   1      56.873  49.576  51.075  0.00  0.00     0.030 A 
ATOM     14  C   UNL d   1      56.917  49.702  50.257  0.00  0.00     0.008 A 
ATOM     15  C   UNL d   1      57.702  49.707  50.029  0.00  0.00     0.020 A 
BRANCH  13  16
ATOM     16  C   UNL d   1      56.195  49.533  51.521  0.00  0.00     0.006 C 
ATOM     17  C   UNL d   1      56.226  49.703  52.332  0.00  0.00     0.001 C 
ENDBRANCH  13  16
ENDBRANCH   8  11
ENDBRANCH   7   8
ENDBRANCH   2   7
BRANCH   1  18
ATOM     18  C   UNL d   1      61.345  46.642  50.213  0.00  0.00     0.112 A 
ATOM     19  S   UNL d   1      61.080  45.906  50.462  0.00  0.00    -0.047 SA
ATOM     20  C   UNL d   1      61.634  45.329  50.209  0.00  0.00     0.130 A 
ATOM     21  N   UNL d   1      61.661  44.511  50.297  0.00  0.00    -0.236 NA
ATOM     22  C   UNL d   1      62.239  45.730  49.801  0.00  0.00     0.106 A 
ATOM     23  C   UNL d   1      62.297  44.089  49.976  0.00  0.00     0.100 A 
ATOM     24  C   UNL d   1      62.901  44.484  49.569  0.00  0.00     0.022 A 
ATOM     25  C   UNL d   1      62.871  45.301  49.483  0.00  0.00     0.023 A 
ATOM     26  N   UNL d   1      62.058  46.545  49.804  0.00  0.00    -0.237 NA
ENDBRANCH   1  18
TORSDOF 5
ENDMDL
MODEL 2
REMARK VINA RESULT:      86.9      1.537      5.469
REMARK  5 active torsions:
REMARK  status: ('A' for Active; 'I' for Inactive)
REMARK    1  A    between atoms: C_2  and  S_1 
REMARK    2  A    between atoms: N_8  and  S_1 
REMARK    3  A    between atoms: C_3  and  C_14 
REMARK    4  A    between atoms: C_17  and  N_8 
REMARK    5  A    between atoms: C_23  and  C_11 
ROOT
ATOM      1  C   UNL d   1      59.452  48.733  50.659  0.00  0.00     0.024 A 
ATOM      2  C   UNL d   1      61.034  48.276  50.461  0.00  0.00     0.094 A 
ATOM      3  C   UNL d   1      60.037  49.311  50.572  0.00  0.00     0.004 A 
ATOM      4  C   UNL d   1      59.665  47.937  50.647  0.00  0.00     0.004 A 
ATOM      5  C   UNL d   1      60.445  47.712  50.549  0.00  0.00     0.020 A 
ATOM      6  C   UNL d   1      60.821  49.089  50.473  0.00  0.00     0.020 A 
ENDROOT
BRANCH   2   7
ATOM      7  N   UNL d   1      61.814  48.055  50.362  0.00  0.00    -0.158 NA
BRANCH   7   8
ATOM      8  S   UNL d   1      61.997  47.307  50.069  0.00  0.00     0.291 S 
ATOM      9  O   UNL d   1      61.727  47.534  49.334  0.00  0.00    -0.198 OA
ATOM     10  O   UNL d   1      62.268  47.082  50.805  0.00  0.00    -0.198 OA
BRANCH   8  11
ATOM     11  C   UNL d   1      62.182  46.563  49.785  0.00  0.00     0.135 A 
ATOM     12  S   UNL d   1      61.666  45.922  49.678  0.00  0.00    -0.074 SA
ATOM     13  C   UNL d   1      62.093  45.284  49.379  0.00  0.00     0.030 A 
ATOM     14  C   UNL d   1      62.880  45.530  49.300  0.00  0.00     0.008 A 
ATOM     15  C   UNL d   1      62.944  46.307  49.545  0.00  0.00     0.020 A 
BRANCH  13  16
ATOM     16  C   UNL d   1      61.795  44.551  49.197  0.00  0.00     0.006 C 
ATOM     17  C   UNL d   1      61.044  44.487  48.849  0.00  0.00     0.001 C 
ENDBRANCH  13  16
ENDBRANCH   8  11
ENDBRANCH   7   8
ENDBRANCH   2   7
BRANCH   1  18
ATOM     18  C   UNL d   1      58.665  48.960  50.758  0.00  0.00     0.112 A 
ATOM     19  S   UNL d   1      58.128  49.094  50.152  0.00  0.00    -0.047 SA
ATOM     20  C   UNL d   1      57.395  49.313  50.496  0.00  0.00     0.130 A 
ATOM     21  N   UNL d   1      56.666  49.510  50.168  0.00  0.00    -0.236 NA
ATOM     22  C   UNL d   1      57.499  49.309  51.323  0.00  0.00     0.106 A 
ATOM     23  C   UNL d   1      56.036  49.705  50.668  0.00  0.00     0.100 A 
ATOM     24  C   UNL d   1      56.134  49.702  51.491  0.00  0.00     0.022 A 
ATOM     25  C   UNL d   1      56.863  49.505  51.815  0.00  0.00     0.023 A 
ATOM     26  N   UNL d   1      58.288  49.089  51.484  0.00  0.00    -0.237 NA
ENDBRANCH   1  18
TORSDOF 5
ENDMDL
