MODEL 1
REMARK VINA RESULT:      -8.1      0.000      0.000
REMARK  1 active torsions:
REMARK  status: ('A' for Active; 'I' for Inactive)
REMARK    1  A    between atoms: N_3  and  C_1 
ROOT
ATOM      1  C   UNL d   1      53.597  31.682  53.694  0.00  0.00     0.158 A 
ATOM      2  C   UNL d   1      52.941  31.863  53.223  0.00  0.00     0.103 A 
ATOM      3  C   UNL d   1      52.701  32.648  53.120  0.00  0.00     0.104 C 
ATOM      4  N   UNL d   1      52.468  33.430  53.023  0.00  0.00    -0.191 NA
ATOM      5  N   UNL d   1      53.829  30.896  53.792  0.00  0.00    -0.226 NA
ATOM      6  C   UNL d   1      52.521  31.258  52.850  0.00  0.00     0.015 A 
ATOM      7  C   UNL d   1      53.410  30.294  53.420  0.00  0.00     0.101 A 
ATOM      8  C   UNL d   1      52.754  30.475  52.948  0.00  0.00     0.021 A 
ENDROOT
BRANCH   1   9
ATOM      9  N   UNL d   1      54.013  32.284  54.064  0.00  0.00    -0.286 N 
ATOM     10  C   UNL d   1      53.833  32.490  54.846  0.00  0.00     0.102 A 
ATOM     11  C   UNL d   1      54.249  33.092  55.214  0.00  0.00     0.118 A 
ATOM     12  N   UNL d   1      54.842  33.493  54.815  0.00  0.00    -0.239 NA
ATOM     13  C   UNL d   1      55.021  33.288  54.037  0.00  0.00     0.118 A 
ATOM     14  C   UNL d   1      54.607  32.683  53.660  0.00  0.00     0.102 A 
ENDBRANCH   1   9
TORSDOF 1
ENDMDL
MODEL 2
REMARK VINA RESULT:      -7.9      1.350      3.025
REMARK  1 active torsions:
REMARK  status: ('A' for Active; 'I' for Inactive)
REMARK    1  A    between atoms: N_3  and  C_1 
ROOT
ATOM      1  C   UNL d   1      52.993  33.459  53.959  0.00  0.00     0.158 A 
ATOM      2  C   UNL d   1      53.388  32.748  53.803  0.00  0.00     0.103 A 
ATOM      3  C   UNL d   1      53.124  32.243  53.204  0.00  0.00     0.104 C 
ATOM      4  N   UNL d   1      52.857  31.746  52.608  0.00  0.00    -0.191 NA
ATOM      5  N   UNL d   1      53.262  33.958  54.558  0.00  0.00    -0.226 NA
ATOM      6  C   UNL d   1      54.051  32.540  54.248  0.00  0.00     0.015 A 
ATOM      7  C   UNL d   1      53.923  33.749  55.001  0.00  0.00     0.101 A 
ATOM      8  C   UNL d   1      54.318  33.038  54.846  0.00  0.00     0.021 A 
ENDROOT
BRANCH   1   9
ATOM      9  N   UNL d   1      52.334  33.665  53.515  0.00  0.00    -0.286 N 
ATOM     10  C   UNL d   1      52.415  34.179  52.871  0.00  0.00     0.102 A 
ATOM     11  C   UNL d   1      51.757  34.384  52.428  0.00  0.00     0.118 A 
ATOM     12  N   UNL d   1      51.018  34.085  52.619  0.00  0.00    -0.239 NA
ATOM     13  C   UNL d   1      50.937  33.573  53.260  0.00  0.00     0.118 A 
ATOM     14  C   UNL d   1      51.595  33.363  53.710  0.00  0.00     0.102 A 
ENDBRANCH   1   9
TORSDOF 1
ENDMDL
MODEL 3
REMARK VINA RESULT:      -7.5      1.668      2.440
REMARK  1 active torsions:
REMARK  status: ('A' for Active; 'I' for Inactive)
REMARK    1  A    between atoms: N_3  and  C_1 
ROOT
ATOM      1  C   UNL d   1      52.621  33.590  53.596  0.00  0.00     0.158 A 
ATOM      2  C   UNL d   1      52.400  34.387  53.564  0.00  0.00     0.103 A 
ATOM      3  C   UNL d   1      52.883  34.971  53.893  0.00  0.00     0.104 C 
ATOM      4  N   UNL d   1      53.369  35.547  54.222  0.00  0.00    -0.191 NA
ATOM      5  N   UNL d   1      52.133  33.013  53.265  0.00  0.00    -0.226 NA
ATOM      6  C   UNL d   1      51.691  34.603  53.201  0.00  0.00     0.015 A 
ATOM      7  C   UNL d   1      51.426  33.230  52.904  0.00  0.00     0.101 A 
ATOM      8  C   UNL d   1      51.205  34.027  52.872  0.00  0.00     0.021 A 
ENDROOT
BRANCH   1   9
ATOM      9  N   UNL d   1      53.327  33.377  53.957  0.00  0.00    -0.286 N 
ATOM     10  C   UNL d   1      53.998  33.232  53.495  0.00  0.00     0.102 A 
ATOM     11  C   UNL d   1      54.703  33.019  53.855  0.00  0.00     0.118 A 
ATOM     12  N   UNL d   1      54.747  32.949  54.671  0.00  0.00    -0.239 NA
ATOM     13  C   UNL d   1      54.079  33.093  55.131  0.00  0.00     0.118 A 
ATOM     14  C   UNL d   1      53.367  33.308  54.775  0.00  0.00     0.102 A 
ENDBRANCH   1   9
TORSDOF 1
ENDMDL
MODEL 4
REMARK VINA RESULT:      -7.5      1.608      2.968
REMARK  1 active torsions:
REMARK  status: ('A' for Active; 'I' for Inactive)
REMARK    1  A    between atoms: N_3  and  C_1 
ROOT
ATOM      1  C   UNL d   1      53.109  33.456  54.003  0.00  0.00     0.158 A 
ATOM      2  C   UNL d   1      53.465  33.993  54.524  0.00  0.00     0.103 A 
ATOM      3  C   UNL d   1      53.202  34.776  54.563  0.00  0.00     0.104 C 
ATOM      4  N   UNL d   1      52.937  35.553  54.597  0.00  0.00    -0.191 NA
ATOM      5  N   UNL d   1      53.377  32.676  53.970  0.00  0.00    -0.226 NA
ATOM      6  C   UNL d   1      54.086  33.747  55.008  0.00  0.00     0.015 A 
ATOM      7  C   UNL d   1      53.996  32.433  54.454  0.00  0.00     0.101 A 
ATOM      8  C   UNL d   1      54.351  32.970  54.974  0.00  0.00     0.021 A 
ENDROOT
BRANCH   1   9
ATOM      9  N   UNL d   1      52.492  33.702  53.522  0.00  0.00    -0.286 N 
ATOM     10  C   UNL d   1      51.709  33.551  53.746  0.00  0.00     0.102 A 
ATOM     11  C   UNL d   1      51.093  33.796  53.266  0.00  0.00     0.118 A 
ATOM     12  N   UNL d   1      51.246  34.191  52.563  0.00  0.00    -0.239 NA
ATOM     13  C   UNL d   1      52.025  34.341  52.340  0.00  0.00     0.118 A 
ATOM     14  C   UNL d   1      52.650  34.097  52.819  0.00  0.00     0.102 A 
ENDBRANCH   1   9
TORSDOF 1
ENDMDL
MODEL 5
REMARK VINA RESULT:      -7.4      1.426      2.690
REMARK  1 active torsions:
REMARK  status: ('A' for Active; 'I' for Inactive)
REMARK    1  A    between atoms: N_3  and  C_1 
ROOT
ATOM      1  C   UNL d   1      52.582  32.692  53.211  0.00  0.00     0.158 A 
ATOM      2  C   UNL d   1      53.148  32.902  53.777  0.00  0.00     0.103 A 
ATOM      3  C   UNL d   1      53.114  33.637  54.153  0.00  0.00     0.104 C 
ATOM      4  N   UNL d   1      53.075  34.370  54.524  0.00  0.00    -0.191 NA
ATOM      5  N   UNL d   1      52.623  31.956  52.840  0.00  0.00    -0.226 NA
ATOM      6  C   UNL d   1      53.753  32.374  53.970  0.00  0.00     0.015 A 
ATOM      7  C   UNL d   1      53.226  31.431  53.033  0.00  0.00     0.101 A 
ATOM      8  C   UNL d   1      53.792  31.641  53.599  0.00  0.00     0.021 A 
ENDROOT
BRANCH   1   9
ATOM      9  N   UNL d   1      51.981  33.218  53.020  0.00  0.00    -0.286 N 
ATOM     10  C   UNL d   1      51.251  33.166  53.406  0.00  0.00     0.102 A 
ATOM     11  C   UNL d   1      50.652  33.692  53.216  0.00  0.00     0.118 A 
ATOM     12  N   UNL d   1      50.771  34.269  52.645  0.00  0.00    -0.239 NA
ATOM     13  C   UNL d   1      51.498  34.321  52.261  0.00  0.00     0.118 A 
ATOM     14  C   UNL d   1      52.105  33.795  52.448  0.00  0.00     0.102 A 
ENDBRANCH   1   9
TORSDOF 1
ENDMDL
MODEL 6
REMARK VINA RESULT:      -6.7      1.354      3.012
REMARK  1 active torsions:
REMARK  status: ('A' for Active; 'I' for Inactive)
REMARK    1  A    between atoms: N_3  and  C_1 
ROOT
ATOM      1  C   UNL d   1      53.088  33.600  53.678  0.00  0.00     0.158 A 
ATOM      2  C   UNL d   1      53.377  33.850  54.412  0.00  0.00     0.103 A 
ATOM      3  C   UNL d   1      53.730  33.311  54.930  0.00  0.00     0.104 C 
ATOM      4  N   UNL d   1      54.079  32.770  55.441  0.00  0.00    -0.191 NA
ATOM      5  N   UNL d   1      52.737  34.144  53.166  0.00  0.00    -0.226 NA
ATOM      6  C   UNL d   1      53.314  34.643  54.632  0.00  0.00     0.015 A 
ATOM      7  C   UNL d   1      52.675  34.934  53.386  0.00  0.00     0.101 A 
ATOM      8  C   UNL d   1      52.964  35.184  54.121  0.00  0.00     0.021 A 
ENDROOT
BRANCH   1   9
ATOM      9  N   UNL d   1      53.151  32.811  53.461  0.00  0.00    -0.286 N 
ATOM     10  C   UNL d   1      52.471  32.342  53.411  0.00  0.00     0.102 A 
ATOM     11  C   UNL d   1      52.534  31.554  53.195  0.00  0.00     0.118 A 
ATOM     12  N   UNL d   1      53.268  31.227  53.028  0.00  0.00    -0.239 NA
ATOM     13  C   UNL d   1      53.945  31.694  53.078  0.00  0.00     0.118 A 
ATOM     14  C   UNL d   1      53.888  32.487  53.295  0.00  0.00     0.102 A 
ENDBRANCH   1   9
TORSDOF 1
ENDMDL
