MODEL 1
REMARK VINA RESULT:       0.4      0.000      0.000
REMARK  5 active torsions:
REMARK  status: ('A' for Active; 'I' for Inactive)
REMARK    1  A    between atoms: N_6  and  C_1 
REMARK    2  A    between atoms: C_8  and  C_2 
REMARK    3  A    between atoms: C_11  and  C_3 
REMARK       I    between atoms: C_7  and  N_6 
REMARK    4  A    between atoms: C_9  and  C_7 
REMARK    5  A    between atoms: C_20  and  C_11 
ROOT
ATOM      1  C   UNL d   1      33.044  21.078 -23.304  0.00  0.00     0.119 A 
ATOM      2  C   UNL d   1      32.976  21.679 -23.857  0.00  0.00     0.084 A 
ATOM      3  C   UNL d   1      33.141  22.239 -22.652  0.00  0.00     0.031 A 
ATOM      4  S   UNL d   1      33.146  21.415 -22.555  0.00  0.00    -0.068 SA
ATOM      5  C   UNL d   1      33.036  22.400 -23.452  0.00  0.00     0.013 A 
ATOM      6  C   UNL d   1      32.999  23.156 -23.787  0.00  0.00     0.001 C 
ENDROOT
BRANCH   1   7
ATOM      7  N   UNL d   1      33.014  20.255 -23.469  0.00  0.00    -0.201 NA
ATOM      8  C   UNL d   1      32.586  19.744 -22.969  0.00  0.00     0.280 C 
ATOM      9  O   UNL d   1      32.189  20.041 -22.310  0.00  0.00    -0.265 OA
BRANCH   8  10
ATOM     10  C   UNL d   1      32.561  18.933 -23.137  0.00  0.00     0.058 A 
ATOM     11  C   UNL d   1      31.856  18.586 -23.403  0.00  0.00     0.005 A 
ATOM     12  C   UNL d   1      31.837  17.800 -23.565  0.00  0.00     0.000 A 
ATOM     13  C   UNL d   1      31.112  17.481 -23.830  0.00  0.00     0.000 A 
ATOM     14  C   UNL d   1      32.486  17.318 -23.480  0.00  0.00     0.000 A 
ATOM     15  C   UNL d   1      31.064  16.686 -24.002  0.00  0.00     0.000 A 
ATOM     16  C   UNL d   1      31.720  16.195 -23.917  0.00  0.00     0.000 A 
ATOM     17  C   UNL d   1      32.435  16.521 -23.653  0.00  0.00     0.000 A 
ATOM     18  C   UNL d   1      33.215  17.664 -23.208  0.00  0.00     0.000 A 
ATOM     19  C   UNL d   1      33.238  18.472 -23.041  0.00  0.00     0.005 A 
ENDBRANCH   8  10
ENDBRANCH   1   7
BRANCH   2  20
ATOM     20  C   UNL d   1      32.867  21.597 -24.670  0.00  0.00     0.299 C 
ATOM     21  O   UNL d   1      32.311  22.146 -25.088  0.00  0.00    -0.264 OA
ATOM     22  N   UNL d   1      33.238  21.056 -25.067  0.00  0.00    -0.102 N 
ENDBRANCH   2  20
BRANCH   3  23
ATOM     23  C   UNL d   1      33.219  22.864 -22.105  0.00  0.00     0.007 C 
BRANCH  23  24
ATOM     24  C   UNL d   1      32.830  22.819 -21.370  0.00  0.00     0.003 A 
ATOM     25  C   UNL d   1      33.241  22.535 -20.707  0.00  0.00     0.026 A 
ATOM     26  C   UNL d   1      32.865  22.487 -19.977  0.00  0.00     0.119 A 
ATOM     27  O   UNL d   1      33.126  22.235 -19.243  0.00  0.00    -0.300 OA
ATOM     28  C   UNL d   1      32.078  22.721 -19.902  0.00  0.00     0.119 A 
ATOM     29  C   UNL d   1      32.505  22.311 -18.714  0.00  0.00     0.304 A 
ATOM     30  O   UNL d   1      31.858  22.612 -19.123  0.00  0.00    -0.300 OA
ATOM     31  C   UNL d   1      31.668  23.003 -20.557  0.00  0.00     0.026 A 
ATOM     32  C   UNL d   1      32.044  23.052 -21.295  0.00  0.00     0.002 A 
ENDBRANCH  23  24
ENDBRANCH   3  23
TORSDOF 5
ENDMDL
MODEL 2
REMARK VINA RESULT:       2.6      2.754      4.590
REMARK  5 active torsions:
REMARK  status: ('A' for Active; 'I' for Inactive)
REMARK    1  A    between atoms: N_6  and  C_1 
REMARK    2  A    between atoms: C_8  and  C_2 
REMARK    3  A    between atoms: C_11  and  C_3 
REMARK       I    between atoms: C_7  and  N_6 
REMARK    4  A    between atoms: C_9  and  C_7 
REMARK    5  A    between atoms: C_20  and  C_11 
ROOT
ATOM      1  C   UNL d   1      31.128  17.212 -23.991  0.00  0.00     0.119 A 
ATOM      2  C   UNL d   1      31.846  16.848 -24.146  0.00  0.00     0.084 A 
ATOM      3  C   UNL d   1      32.071  18.157 -23.971  0.00  0.00     0.031 A 
ATOM      4  S   UNL d   1      31.257  18.022 -23.881  0.00  0.00    -0.068 SA
ATOM      5  C   UNL d   1      32.431  17.435 -24.134  0.00  0.00     0.013 A 
ATOM      6  C   UNL d   1      33.241  17.324 -24.263  0.00  0.00     0.001 C 
ENDROOT
BRANCH   1   7
ATOM      7  N   UNL d   1      30.382  16.827 -23.949  0.00  0.00    -0.201 NA
ATOM      8  C   UNL d   1      29.737  17.119 -24.386  0.00  0.00     0.280 C 
ATOM      9  O   UNL d   1      29.823  17.787 -24.862  0.00  0.00    -0.265 OA
BRANCH   8  10
ATOM     10  C   UNL d   1      29.004  16.734 -24.340  0.00  0.00     0.058 A 
ATOM     11  C   UNL d   1      28.659  16.587 -23.601  0.00  0.00     0.005 A 
ATOM     12  C   UNL d   1      27.948  16.214 -23.562  0.00  0.00     0.000 A 
ATOM     13  C   UNL d   1      27.628  16.081 -22.802  0.00  0.00     0.000 A 
ATOM     14  C   UNL d   1      27.544  15.969 -24.223  0.00  0.00     0.000 A 
ATOM     15  C   UNL d   1      26.909  15.704 -22.732  0.00  0.00     0.000 A 
ATOM     16  C   UNL d   1      26.496  15.454 -23.401  0.00  0.00     0.000 A 
ATOM     17  C   UNL d   1      26.823  15.591 -24.150  0.00  0.00     0.000 A 
ATOM     18  C   UNL d   1      27.889  16.115 -24.986  0.00  0.00     0.000 A 
ATOM     19  C   UNL d   1      28.619  16.499 -25.030  0.00  0.00     0.005 A 
ENDBRANCH   8  10
ENDBRANCH   1   7
BRANCH   2  20
ATOM     20  C   UNL d   1      31.977  16.047 -24.290  0.00  0.00     0.299 C 
ATOM     21  O   UNL d   1      32.008  15.486 -23.605  0.00  0.00    -0.264 OA
ATOM     22  N   UNL d   1      32.071  15.783 -25.004  0.00  0.00    -0.102 N 
ENDBRANCH   2  20
BRANCH   3  23
ATOM     23  C   UNL d   1      32.528  18.853 -23.924  0.00  0.00     0.007 C 
BRANCH  23  24
ATOM     24  C   UNL d   1      32.638  19.224 -23.187  0.00  0.00     0.003 A 
ATOM     25  C   UNL d   1      32.239  19.932 -23.022  0.00  0.00     0.026 A 
ATOM     26  C   UNL d   1      32.342  20.306 -22.297  0.00  0.00     0.119 A 
ATOM     27  O   UNL d   1      32.027  20.995 -21.987  0.00  0.00    -0.300 OA
ATOM     28  C   UNL d   1      32.843  19.977 -21.731  0.00  0.00     0.119 A 
ATOM     29  C   UNL d   1      32.329  21.096 -21.233  0.00  0.00     0.304 A 
ATOM     30  O   UNL d   1      32.834  20.465 -21.076  0.00  0.00    -0.300 OA
ATOM     31  C   UNL d   1      33.241  19.275 -21.891  0.00  0.00     0.026 A 
ATOM     32  C   UNL d   1      33.139  18.896 -22.622  0.00  0.00     0.002 A 
ENDBRANCH  23  24
ENDBRANCH   3  23
TORSDOF 5
ENDMDL
MODEL 3
REMARK VINA RESULT:       2.7      2.524      5.823
REMARK  5 active torsions:
REMARK  status: ('A' for Active; 'I' for Inactive)
REMARK    1  A    between atoms: N_6  and  C_1 
REMARK    2  A    between atoms: C_8  and  C_2 
REMARK    3  A    between atoms: C_11  and  C_3 
REMARK       I    between atoms: C_7  and  N_6 
REMARK    4  A    between atoms: C_9  and  C_7 
REMARK    5  A    between atoms: C_20  and  C_11 
ROOT
ATOM      1  C   UNL d   1      31.678  17.840 -23.891  0.00  0.00     0.119 A 
ATOM      2  C   UNL d   1      32.035  17.205 -24.268  0.00  0.00     0.084 A 
ATOM      3  C   UNL d   1      30.716  17.134 -24.490  0.00  0.00     0.031 A 
ATOM      4  S   UNL d   1      30.861  17.804 -24.023  0.00  0.00    -0.068 SA
ATOM      5  C   UNL d   1      31.438  16.767 -24.639  0.00  0.00     0.013 A 
ATOM      6  C   UNL d   1      31.540  16.078 -25.086  0.00  0.00     0.001 C 
ENDROOT
BRANCH   1   7
ATOM      7  N   UNL d   1      32.075  18.430 -23.444  0.00  0.00    -0.201 NA
ATOM      8  C   UNL d   1      31.700  19.158 -23.288  0.00  0.00     0.280 C 
ATOM      9  O   UNL d   1      30.939  19.304 -23.570  0.00  0.00    -0.265 OA
BRANCH   8  10
ATOM     10  C   UNL d   1      32.097  19.736 -22.847  0.00  0.00     0.058 A 
ATOM     11  C   UNL d   1      31.778  20.001 -22.129  0.00  0.00     0.005 A 
ATOM     12  C   UNL d   1      32.166  20.562 -21.705  0.00  0.00     0.000 A 
ATOM     13  C   UNL d   1      31.818  20.807 -20.986  0.00  0.00     0.000 A 
ATOM     14  C   UNL d   1      32.869  20.888 -21.948  0.00  0.00     0.000 A 
ATOM     15  C   UNL d   1      32.190  21.375 -20.535  0.00  0.00     0.000 A 
ATOM     16  C   UNL d   1      32.904  21.707 -20.779  0.00  0.00     0.000 A 
ATOM     17  C   UNL d   1      33.241  21.457 -21.494  0.00  0.00     0.000 A 
ATOM     18  C   UNL d   1      33.206  20.623 -22.684  0.00  0.00     0.000 A 
ATOM     19  C   UNL d   1      32.809  20.047 -23.122  0.00  0.00     0.005 A 
ENDBRANCH   8  10
ENDBRANCH   1   7
BRANCH   2  20
ATOM     20  C   UNL d   1      32.839  17.024 -24.283  0.00  0.00     0.299 C 
ATOM     21  O   UNL d   1      33.241  16.786 -23.529  0.00  0.00    -0.264 OA
ATOM     22  N   UNL d   1      33.241  17.058 -24.935  0.00  0.00    -0.102 N 
ENDBRANCH   2  20
BRANCH   3  23
ATOM     23  C   UNL d   1      30.010  16.813 -24.797  0.00  0.00     0.007 C 
BRANCH  23  24
ATOM     24  C   UNL d   1      29.326  16.792 -24.323  0.00  0.00     0.003 A 
ATOM     25  C   UNL d   1      29.157  16.113 -23.878  0.00  0.00     0.026 A 
ATOM     26  C   UNL d   1      28.483  16.084 -23.407  0.00  0.00     0.119 A 
ATOM     27  O   UNL d   1      28.182  15.500 -22.919  0.00  0.00    -0.300 OA
ATOM     28  C   UNL d   1      27.974  16.731 -23.375  0.00  0.00     0.119 A 
ATOM     29  C   UNL d   1      27.489  15.781 -22.585  0.00  0.00     0.304 A 
ATOM     30  O   UNL d   1      27.362  16.543 -22.868  0.00  0.00    -0.300 OA
ATOM     31  C   UNL d   1      28.139  17.407 -23.815  0.00  0.00     0.026 A 
ATOM     32  C   UNL d   1      28.817  17.440 -24.291  0.00  0.00     0.002 A 
ENDBRANCH  23  24
ENDBRANCH   3  23
TORSDOF 5
ENDMDL
