MODEL 1
REMARK VINA RESULT:      22.2      0.000      0.000
REMARK  3 active torsions:
REMARK  status: ('A' for Active; 'I' for Inactive)
REMARK    1  A    between atoms: C_4  and  C_1 
REMARK    2  A    between atoms: C_6  and  C_4 
REMARK    3  A    between atoms: N_5  and  C_7 
ROOT
ATOM      1  C   UNL d   1      45.037 -14.074  43.865  0.00  0.00     0.231 C 
ATOM      2  O   UNL d   1      44.357 -13.907  43.447  0.00  0.00    -0.283 OA
ENDROOT
BRANCH   1   3
ATOM      3  C   UNL d   1      45.242 -14.861  44.048  0.00  0.00     0.188 A 
ATOM      4  N   UNL d   1      45.898 -15.264  43.767  0.00  0.00    -0.224 NA
ATOM      5  C   UNL d   1      45.903 -16.039  44.082  0.00  0.00     0.099 A 
ATOM      6  C   UNL d   1      46.400 -16.670  44.003  0.00  0.00     0.021 A 
ATOM      7  C   UNL d   1      45.224 -16.102  44.570  0.00  0.00     0.083 A 
ATOM      8  C   UNL d   1      46.247 -17.358  44.390  0.00  0.00     0.002 A 
ATOM      9  C   UNL d   1      45.590 -17.460  44.878  0.00  0.00     0.002 A 
ATOM     10  C   UNL d   1      45.084 -16.808  44.955  0.00  0.00     0.019 A 
ATOM     11  N   UNL d   1      44.834 -15.362  44.531  0.00  0.00    -0.285 N 
ATOM     12  C   UNL d   1      44.136 -15.101  44.899  0.00  0.00     0.101 C 
ENDBRANCH   1   3
BRANCH   1  13
ATOM     13  C   UNL d   1      45.544 -13.442  44.116  0.00  0.00     0.064 A 
ATOM     14  C   UNL d   1      45.482 -12.701  43.777  0.00  0.00     0.130 A 
ATOM     15  C   UNL d   1      45.975 -12.090  44.023  0.00  0.00     0.024 A 
ATOM     16  C   UNL d   1      46.537 -12.218  44.614  0.00  0.00     0.002 A 
ATOM     17  C   UNL d   1      46.588 -12.984  44.952  0.00  0.00     0.000 A 
ATOM     18  C   UNL d   1      46.096 -13.599  44.709  0.00  0.00     0.005 A 
BRANCH  14  19
ATOM     19  N   UNL d   1      44.921 -12.564  43.182  0.00  0.00    -0.114 N 
ATOM     20  O   UNL d   1      44.232 -12.206  43.437  0.00  0.00    -0.532 OA
ATOM     21  O   UNL d   1      45.062 -12.782  42.379  0.00  0.00    -0.532 OA
ENDBRANCH  14  19
ENDBRANCH   1  13
TORSDOF 3
ENDMDL
MODEL 2
REMARK VINA RESULT:      24.0      2.786      4.780
REMARK  3 active torsions:
REMARK  status: ('A' for Active; 'I' for Inactive)
REMARK    1  A    between atoms: C_4  and  C_1 
REMARK    2  A    between atoms: C_6  and  C_4 
REMARK    3  A    between atoms: N_5  and  C_7 
ROOT
ATOM      1  C   UNL d   1      46.266 -17.936  44.300  0.00  0.00     0.231 C 
ATOM      2  O   UNL d   1      46.369 -18.411  44.954  0.00  0.00    -0.283 OA
ENDROOT
BRANCH   1   3
ATOM      3  C   UNL d   1      46.055 -17.134  44.385  0.00  0.00     0.188 A 
ATOM      4  N   UNL d   1      46.522 -16.491  44.185  0.00  0.00    -0.224 NA
ATOM      5  C   UNL d   1      46.108 -15.785  44.356  0.00  0.00     0.099 A 
ATOM      6  C   UNL d   1      46.286 -15.001  44.277  0.00  0.00     0.021 A 
ATOM      7  C   UNL d   1      45.365 -16.014  44.669  0.00  0.00     0.083 A 
ATOM      8  C   UNL d   1      45.754 -14.440  44.498  0.00  0.00     0.002 A 
ATOM      9  C   UNL d   1      45.014 -14.624  44.810  0.00  0.00     0.002 A 
ATOM     10  C   UNL d   1      44.838 -15.430  44.888  0.00  0.00     0.019 A 
ATOM     11  N   UNL d   1      45.358 -16.850  44.676  0.00  0.00    -0.285 N 
ATOM     12  C   UNL d   1      44.770 -17.381  44.926  0.00  0.00     0.101 C 
ENDBRANCH   1   3
BRANCH   1  13
ATOM     13  C   UNL d   1      46.373 -18.259  43.523  0.00  0.00     0.064 A 
ATOM     14  C   UNL d   1      46.397 -19.068  43.409  0.00  0.00     0.130 A 
ATOM     15  C   UNL d   1      46.502 -19.377  42.655  0.00  0.00     0.024 A 
ATOM     16  C   UNL d   1      46.584 -18.876  42.004  0.00  0.00     0.002 A 
ATOM     17  C   UNL d   1      46.557 -18.048  42.137  0.00  0.00     0.000 A 
ATOM     18  C   UNL d   1      46.453 -17.733  42.891  0.00  0.00     0.005 A 
BRANCH  14  19
ATOM     19  N   UNL d   1      46.315 -19.579  44.057  0.00  0.00    -0.114 N 
ATOM     20  O   UNL d   1      45.895 -20.262  43.904  0.00  0.00    -0.532 OA
ATOM     21  O   UNL d   1      46.646 -19.396  44.812  0.00  0.00    -0.532 OA
ENDBRANCH  14  19
ENDBRANCH   1  13
TORSDOF 3
ENDMDL
