MODEL 1
REMARK VINA RESULT:       3.1      0.000      0.000
REMARK  8 active torsions:
REMARK  status: ('A' for Active; 'I' for Inactive)
REMARK    1  A    between atoms: N_9  and  C_1 
REMARK    2  A    between atoms: C_12  and  C_2 
REMARK    3  A    between atoms: C_28  and  N_6 
REMARK    4  A    between atoms: C_10  and  C_12 
REMARK    5  A    between atoms: C_16  and  C_14 
REMARK    6  A    between atoms: C_20  and  C_16 
REMARK    7  A    between atoms: O_31  and  C_20 
REMARK    8  A    between atoms: C_34  and  C_28 
ROOT
ATOM      1  C   UNL d   1      31.488  17.388 -24.655  0.00  0.00     0.154 A 
ATOM      2  C   UNL d   1      31.696  18.184 -24.785  0.00  0.00     0.092 A 
ATOM      3  N   UNL d   1      30.680  17.166 -24.667  0.00  0.00    -0.210 NA
ATOM      4  N   UNL d   1      30.304  18.524 -24.938  0.00  0.00    -0.258 N 
ATOM      5  C   UNL d   1      30.087  17.730 -24.808  0.00  0.00     0.152 A 
ATOM      6  C   UNL d   1      31.102  18.761 -24.929  0.00  0.00     0.269 A 
ATOM      7  C   UNL d   1      29.298  17.512 -24.819  0.00  0.00     0.035 A 
ATOM      8  C   UNL d   1      29.711  19.088 -25.079  0.00  0.00     0.084 A 
ATOM      9  O   UNL d   1      31.309  19.549 -25.058  0.00  0.00    -0.266 OA
ATOM     10  C   UNL d   1      28.928  18.860 -25.088  0.00  0.00     0.019 A 
ATOM     11  C   UNL d   1      28.721  18.072 -24.958  0.00  0.00     0.005 A 
ATOM     12  C   UNL d   1      29.091  16.724 -24.690  0.00  0.00     0.003 C 
ENDROOT
BRANCH   1  13
ATOM     13  N   UNL d   1      32.072  16.822 -24.514  0.00  0.00    -0.284 N 
ATOM     14  C   UNL d   1      32.083  16.421 -23.792  0.00  0.00     0.129 A 
ATOM     15  C   UNL d   1      32.667  15.857 -23.656  0.00  0.00     0.296 A 
ATOM     16  O   UNL d   1      32.684  15.453 -22.937  0.00  0.00    -0.264 OA
ATOM     17  N   UNL d   1      33.236  15.692 -24.231  0.00  0.00    -0.204 NA
ATOM     18  C   UNL d   1      33.218  16.096 -24.950  0.00  0.00     0.121 A 
ATOM     19  C   UNL d   1      32.634  16.665 -25.094  0.00  0.00     0.102 A 
BRANCH  14  20
ATOM     20  C   UNL d   1      31.521  16.584 -23.223  0.00  0.00     0.091 C 
BRANCH  20  21
ATOM     21  C   UNL d   1      31.321  16.014 -22.661  0.00  0.00     0.298 C 
ATOM     22  O   UNL d   1      31.892  15.751 -22.118  0.00  0.00    -0.259 OA
BRANCH  21  23
ATOM     23  O   UNL d   1      30.562  15.700 -22.627  0.00  0.00    -0.296 OA
ATOM     24  C   UNL d   1      30.198  15.563 -21.899  0.00  0.00     0.185 C 
ENDBRANCH  21  23
ENDBRANCH  20  21
ENDBRANCH  14  20
ENDBRANCH   1  13
BRANCH   2  25
ATOM     25  C   UNL d   1      32.488  18.410 -24.775  0.00  0.00     0.019 C 
BRANCH  25  26
ATOM     26  C   UNL d   1      32.704  19.147 -24.474  0.00  0.00     0.088 A 
ATOM     27  C   UNL d   1      32.841  19.319 -23.680  0.00  0.00     0.272 A 
ATOM     28  N   UNL d   1      33.042  20.122 -23.630  0.00  0.00    -0.259 N 
ATOM     29  O   UNL d   1      32.788  18.791 -23.045  0.00  0.00    -0.266 OA
ATOM     30  C   UNL d   1      33.028  20.437 -24.393  0.00  0.00     0.153 A 
ATOM     31  S   UNL d   1      32.818  19.829 -24.911  0.00  0.00    -0.053 SA
ATOM     32  S   UNL d   1      33.193  21.212 -24.593  0.00  0.00    -0.052 SA
BRANCH  28  33
ATOM     33  C   UNL d   1      33.226  20.534 -22.935  0.00  0.00     0.084 C 
BRANCH  33  34
ATOM     34  C   UNL d   1      32.632  20.663 -22.369  0.00  0.00     0.019 C 
ATOM     35  C   UNL d   1      32.829  20.652 -21.564  0.00  0.00     0.002 C 
ENDBRANCH  33  34
ENDBRANCH  28  33
ENDBRANCH  25  26
ENDBRANCH   2  25
TORSDOF 8
ENDMDL
MODEL 2
REMARK VINA RESULT:       5.7      1.456      3.024
REMARK  8 active torsions:
REMARK  status: ('A' for Active; 'I' for Inactive)
REMARK    1  A    between atoms: N_9  and  C_1 
REMARK    2  A    between atoms: C_12  and  C_2 
REMARK    3  A    between atoms: C_28  and  N_6 
REMARK    4  A    between atoms: C_10  and  C_12 
REMARK    5  A    between atoms: C_16  and  C_14 
REMARK    6  A    between atoms: C_20  and  C_16 
REMARK    7  A    between atoms: O_31  and  C_20 
REMARK    8  A    between atoms: C_34  and  C_28 
ROOT
ATOM      1  C   UNL d   1      31.186  17.939 -24.195  0.00  0.00     0.154 A 
ATOM      2  C   UNL d   1      31.876  18.350 -23.974  0.00  0.00     0.092 A 
ATOM      3  N   UNL d   1      31.173  17.103 -24.157  0.00  0.00    -0.210 NA
ATOM      4  N   UNL d   1      32.527  17.097 -23.682  0.00  0.00    -0.258 N 
ATOM      5  C   UNL d   1      31.840  16.679 -23.902  0.00  0.00     0.152 A 
ATOM      6  C   UNL d   1      32.555  17.929 -23.714  0.00  0.00     0.269 A 
ATOM      7  C   UNL d   1      31.827  15.861 -23.865  0.00  0.00     0.035 A 
ATOM      8  C   UNL d   1      33.194  16.674 -23.426  0.00  0.00     0.084 A 
ATOM      9  O   UNL d   1      33.239  18.335 -23.494  0.00  0.00    -0.266 OA
ATOM     10  C   UNL d   1      33.170  15.859 -23.394  0.00  0.00     0.019 A 
ATOM     11  C   UNL d   1      32.487  15.453 -23.613  0.00  0.00     0.005 A 
ATOM     12  C   UNL d   1      31.144  15.455 -24.085  0.00  0.00     0.003 C 
ENDROOT
BRANCH   1  13
ATOM     13  N   UNL d   1      30.518  18.353 -24.450  0.00  0.00    -0.284 N 
ATOM     14  C   UNL d   1      29.768  18.038 -24.312  0.00  0.00     0.129 A 
ATOM     15  C   UNL d   1      29.105  18.454 -24.568  0.00  0.00     0.296 A 
ATOM     16  O   UNL d   1      28.352  18.146 -24.433  0.00  0.00    -0.264 OA
ATOM     17  N   UNL d   1      29.186  19.177 -24.958  0.00  0.00    -0.204 NA
ATOM     18  C   UNL d   1      29.939  19.486 -25.093  0.00  0.00     0.121 A 
ATOM     19  C   UNL d   1      30.610  19.073 -24.839  0.00  0.00     0.102 A 
BRANCH  14  20
ATOM     20  C   UNL d   1      29.687  17.323 -23.925  0.00  0.00     0.091 C 
BRANCH  20  21
ATOM     21  C   UNL d   1      28.963  17.110 -23.593  0.00  0.00     0.298 C 
ATOM     22  O   UNL d   1      28.719  17.453 -22.878  0.00  0.00    -0.259 OA
BRANCH  21  23
ATOM     23  O   UNL d   1      28.475  16.559 -23.960  0.00  0.00    -0.296 OA
ATOM     24  C   UNL d   1      27.913  16.142 -23.523  0.00  0.00     0.185 C 
ENDBRANCH  21  23
ENDBRANCH  20  21
ENDBRANCH  14  20
ENDBRANCH   1  13
BRANCH   2  25
ATOM     25  C   UNL d   1      31.896  19.173 -24.008  0.00  0.00     0.019 C 
BRANCH  25  26
ATOM     26  C   UNL d   1      32.227  19.604 -23.388  0.00  0.00     0.088 A 
ATOM     27  C   UNL d   1      32.595  20.338 -23.458  0.00  0.00     0.272 A 
ATOM     28  N   UNL d   1      32.844  20.564 -22.700  0.00  0.00    -0.259 N 
ATOM     29  O   UNL d   1      32.701  20.772 -24.155  0.00  0.00    -0.266 OA
ATOM     30  C   UNL d   1      32.627  19.970 -22.170  0.00  0.00     0.153 A 
ATOM     31  S   UNL d   1      32.245  19.378 -22.602  0.00  0.00    -0.053 SA
ATOM     32  S   UNL d   1      32.766  19.972 -21.365  0.00  0.00    -0.052 SA
BRANCH  28  33
ATOM     33  C   UNL d   1      33.241  21.266 -22.510  0.00  0.00     0.084 C 
BRANCH  33  34
ATOM     34  C   UNL d   1      32.803  21.960 -22.376  0.00  0.00     0.019 C 
ATOM     35  C   UNL d   1      33.040  22.480 -21.776  0.00  0.00     0.002 C 
ENDBRANCH  33  34
ENDBRANCH  28  33
ENDBRANCH  25  26
ENDBRANCH   2  25
TORSDOF 8
ENDMDL
