MODEL 1
REMARK VINA RESULT:      -3.6      0.000      0.000
REMARK  0 active torsions:
REMARK  status: ('A' for Active; 'I' for Inactive)
ROOT
ATOM      1  C   UNL d   1      30.484  16.951 -24.155  0.00  0.00     0.150 A 
ATOM      2  N   UNL d   1      31.216  16.617 -23.947  0.00  0.00    -0.275 N 
ATOM      3  N   UNL d   1      30.613  17.611 -24.612  0.00  0.00    -0.227 NA
ATOM      4  C   UNL d   1      31.305  15.952 -23.493  0.00  0.00     0.149 A 
ATOM      5  N   UNL d   1      30.628  15.576 -23.215  0.00  0.00    -0.228 NA
ATOM      6  C   UNL d   1      29.815  16.561 -23.867  0.00  0.00     0.052 A 
ATOM      7  C   UNL d   1      31.784  17.115 -24.305  0.00  0.00     0.084 A 
ATOM      8  C   UNL d   1      29.888  15.865 -23.392  0.00  0.00     0.086 A 
ATOM      9  C   UNL d   1      31.436  17.698 -24.696  0.00  0.00     0.099 A 
ATOM     10  C   UNL d   1      32.039  15.635 -23.297  0.00  0.00     0.041 C 
ATOM     11  C   UNL d   1      29.061  16.866 -24.055  0.00  0.00     0.004 A 
ATOM     12  C   UNL d   1      32.625  17.065 -24.296  0.00  0.00     0.019 A 
ATOM     13  C   UNL d   1      29.208  15.497 -23.119  0.00  0.00     0.019 A 
ATOM     14  C   UNL d   1      31.893  18.262 -25.097  0.00  0.00     0.021 A 
ATOM     15  C   UNL d   1      28.391  16.477 -23.768  0.00  0.00     0.000 A 
ATOM     16  C   UNL d   1      33.072  17.647 -24.709  0.00  0.00     0.002 A 
ATOM     17  C   UNL d   1      32.715  18.210 -25.085  0.00  0.00     0.002 A 
ATOM     18  C   UNL d   1      28.465  15.802 -23.306  0.00  0.00     0.002 A 
ENDROOT
TORSDOF 0
ENDMDL
MODEL 2
REMARK VINA RESULT:      -3.5      0.673      1.705
REMARK  0 active torsions:
REMARK  status: ('A' for Active; 'I' for Inactive)
ROOT
ATOM      1  C   UNL d   1      30.517  16.204 -23.682  0.00  0.00     0.150 A 
ATOM      2  N   UNL d   1      30.790  16.808 -24.183  0.00  0.00    -0.275 N 
ATOM      3  N   UNL d   1      31.155  15.819 -23.356  0.00  0.00    -0.227 NA
ATOM      4  C   UNL d   1      30.312  17.308 -24.603  0.00  0.00     0.149 A 
ATOM      5  N   UNL d   1      29.498  17.218 -24.535  0.00  0.00    -0.228 NA
ATOM      6  C   UNL d   1      29.696  16.127 -23.625  0.00  0.00     0.052 A 
ATOM      7  C   UNL d   1      31.624  16.760 -24.135  0.00  0.00     0.084 A 
ATOM      8  C   UNL d   1      29.181  16.640 -24.057  0.00  0.00     0.086 A 
ATOM      9  C   UNL d   1      31.843  16.183 -23.652  0.00  0.00     0.099 A 
ATOM     10  C   UNL d   1      30.601  17.902 -25.094  0.00  0.00     0.041 C 
ATOM     11  C   UNL d   1      29.383  15.530 -23.132  0.00  0.00     0.004 A 
ATOM     12  C   UNL d   1      32.213  17.226 -24.517  0.00  0.00     0.019 A 
ATOM     13  C   UNL d   1      28.370  16.542 -23.983  0.00  0.00     0.019 A 
ATOM     14  C   UNL d   1      32.647  16.032 -23.520  0.00  0.00     0.021 A 
ATOM     15  C   UNL d   1      28.562  15.453 -23.075  0.00  0.00     0.000 A 
ATOM     16  C   UNL d   1      33.025  17.058 -24.370  0.00  0.00     0.002 A 
ATOM     17  C   UNL d   1      33.219  16.490 -23.896  0.00  0.00     0.002 A 
ATOM     18  C   UNL d   1      28.064  15.952 -23.495  0.00  0.00     0.002 A 
ENDROOT
TORSDOF 0
ENDMDL
MODEL 3
REMARK VINA RESULT:      -3.2      5.606      6.774
REMARK  0 active torsions:
REMARK  status: ('A' for Active; 'I' for Inactive)
ROOT
ATOM      1  C   UNL d   1      33.224  21.563 -20.822  0.00  0.00     0.150 A 
ATOM      2  N   UNL d   1      33.219  21.646 -21.649  0.00  0.00    -0.275 N 
ATOM      3  N   UNL d   1      33.232  20.771 -20.634  0.00  0.00    -0.227 NA
ATOM      4  C   UNL d   1      33.211  22.355 -22.040  0.00  0.00     0.149 A 
ATOM      5  N   UNL d   1      33.206  23.046 -21.594  0.00  0.00    -0.228 NA
ATOM      6  C   UNL d   1      33.219  22.267 -20.390  0.00  0.00     0.052 A 
ATOM      7  C   UNL d   1      33.226  20.861 -21.939  0.00  0.00     0.084 A 
ATOM      8  C   UNL d   1      33.210  23.017 -20.781  0.00  0.00     0.086 A 
ATOM      9  C   UNL d   1      33.233  20.346 -21.349  0.00  0.00     0.099 A 
ATOM     10  C   UNL d   1      33.207  22.417 -22.861  0.00  0.00     0.041 C 
ATOM     11  C   UNL d   1      33.223  22.225 -19.556  0.00  0.00     0.004 A 
ATOM     12  C   UNL d   1      33.225  20.581 -22.734  0.00  0.00     0.019 A 
ATOM     13  C   UNL d   1      33.206  23.701 -20.328  0.00  0.00     0.019 A 
ATOM     14  C   UNL d   1      33.241  19.532 -21.507  0.00  0.00     0.021 A 
ATOM     15  C   UNL d   1      33.218  22.929 -19.123  0.00  0.00     0.000 A 
ATOM     16  C   UNL d   1      33.232  19.751 -22.874  0.00  0.00     0.002 A 
ATOM     17  C   UNL d   1      33.240  19.263 -22.285  0.00  0.00     0.002 A 
ATOM     18  C   UNL d   1      33.210  23.655 -19.504  0.00  0.00     0.002 A 
ENDROOT
TORSDOF 0
ENDMDL
MODEL 4
REMARK VINA RESULT:      -3.1      5.301      6.405
REMARK  0 active torsions:
REMARK  status: ('A' for Active; 'I' for Inactive)
ROOT
ATOM      1  C   UNL d   1      33.219  21.088 -21.260  0.00  0.00     0.150 A 
ATOM      2  N   UNL d   1      33.219  21.859 -21.572  0.00  0.00    -0.275 N 
ATOM      3  N   UNL d   1      33.211  21.130 -20.448  0.00  0.00    -0.227 NA
ATOM      4  C   UNL d   1      33.226  22.035 -22.362  0.00  0.00     0.149 A 
ATOM      5  N   UNL d   1      33.233  21.414 -22.900  0.00  0.00    -0.228 NA
ATOM      6  C   UNL d   1      33.226  20.476 -21.815  0.00  0.00     0.052 A 
ATOM      7  C   UNL d   1      33.211  22.357 -20.900  0.00  0.00     0.084 A 
ATOM      8  C   UNL d   1      33.234  20.641 -22.644  0.00  0.00     0.086 A 
ATOM      9  C   UNL d   1      33.206  21.935 -20.240  0.00  0.00     0.099 A 
ATOM     10  C   UNL d   1      33.226  22.806 -22.652  0.00  0.00     0.041 C 
ATOM     11  C   UNL d   1      33.226  19.687 -21.541  0.00  0.00     0.004 A 
ATOM     12  C   UNL d   1      33.208  23.199 -20.854  0.00  0.00     0.019 A 
ATOM     13  C   UNL d   1      33.241  20.014 -23.173  0.00  0.00     0.019 A 
ATOM     14  C   UNL d   1      33.198  22.315 -19.502  0.00  0.00     0.021 A 
ATOM     15  C   UNL d   1      33.234  19.074 -22.094  0.00  0.00     0.000 A 
ATOM     16  C   UNL d   1      33.199  23.566 -20.096  0.00  0.00     0.002 A 
ATOM     17  C   UNL d   1      33.195  23.137 -19.463  0.00  0.00     0.002 A 
ATOM     18  C   UNL d   1      33.241  19.237 -22.899  0.00  0.00     0.002 A 
ENDROOT
TORSDOF 0
ENDMDL
MODEL 5
REMARK VINA RESULT:      -2.9      4.688      5.701
REMARK  0 active torsions:
REMARK  status: ('A' for Active; 'I' for Inactive)
ROOT
ATOM      1  C   UNL d   1      33.229  21.051 -22.444  0.00  0.00     0.150 A 
ATOM      2  N   UNL d   1      33.230  21.241 -21.635  0.00  0.00    -0.275 N 
ATOM      3  N   UNL d   1      33.224  21.738 -22.879  0.00  0.00    -0.227 NA
ATOM      4  C   UNL d   1      33.234  20.698 -21.035  0.00  0.00     0.149 A 
ATOM      5  N   UNL d   1      33.238  19.899 -21.232  0.00  0.00    -0.228 NA
ATOM      6  C   UNL d   1      33.232  20.244 -22.624  0.00  0.00     0.052 A 
ATOM      7  C   UNL d   1      33.225  22.077 -21.616  0.00  0.00     0.084 A 
ATOM      8  C   UNL d   1      33.237  19.662 -22.010  0.00  0.00     0.086 A 
ATOM      9  C   UNL d   1      33.222  22.373 -22.341  0.00  0.00     0.099 A 
ATOM     10  C   UNL d   1      33.235  20.905 -20.238  0.00  0.00     0.041 C 
ATOM     11  C   UNL d   1      33.231  20.013 -23.426  0.00  0.00     0.004 A 
ATOM     12  C   UNL d   1      33.224  22.601 -20.955  0.00  0.00     0.019 A 
ATOM     13  C   UNL d   1      33.241  18.868 -22.217  0.00  0.00     0.019 A 
ATOM     14  C   UNL d   1      33.217  23.194 -22.457  0.00  0.00     0.021 A 
ATOM     15  C   UNL d   1      33.235  19.207 -23.607  0.00  0.00     0.000 A 
ATOM     16  C   UNL d   1      33.220  23.431 -21.093  0.00  0.00     0.002 A 
ATOM     17  C   UNL d   1      33.216  23.701 -21.808  0.00  0.00     0.002 A 
ATOM     18  C   UNL d   1      33.240  18.643 -23.010  0.00  0.00     0.002 A 
ENDROOT
TORSDOF 0
ENDMDL
MODEL 6
REMARK VINA RESULT:      -2.9      4.218      5.468
REMARK  0 active torsions:
REMARK  status: ('A' for Active; 'I' for Inactive)
ROOT
ATOM      1  C   UNL d   1      33.208  20.151 -22.047  0.00  0.00     0.150 A 
ATOM      2  N   UNL d   1      33.215  20.935 -22.324  0.00  0.00    -0.275 N 
ATOM      3  N   UNL d   1      33.194  20.155 -21.234  0.00  0.00    -0.227 NA
ATOM      4  C   UNL d   1      33.230  21.147 -23.105  0.00  0.00     0.149 A 
ATOM      5  N   UNL d   1      33.237  20.550 -23.670  0.00  0.00    -0.228 NA
ATOM      6  C   UNL d   1      33.216  19.564 -22.629  0.00  0.00     0.052 A 
ATOM      7  C   UNL d   1      33.205  21.402 -21.630  0.00  0.00     0.084 A 
ATOM      8  C   UNL d   1      33.231  19.767 -23.450  0.00  0.00     0.086 A 
ATOM      9  C   UNL d   1      33.192  20.951 -20.990  0.00  0.00     0.099 A 
ATOM     10  C   UNL d   1      33.237  21.929 -23.360  0.00  0.00     0.041 C 
ATOM     11  C   UNL d   1      33.209  18.764 -22.391  0.00  0.00     0.004 A 
ATOM     12  C   UNL d   1      33.207  22.241 -21.546  0.00  0.00     0.019 A 
ATOM     13  C   UNL d   1      33.238  19.165 -24.007  0.00  0.00     0.019 A 
ATOM     14  C   UNL d   1      33.181  21.296 -20.236  0.00  0.00     0.021 A 
ATOM     15  C   UNL d   1      33.217  18.177 -22.972  0.00  0.00     0.000 A 
ATOM     16  C   UNL d   1      33.194  22.573 -20.772  0.00  0.00     0.002 A 
ATOM     17  C   UNL d   1      33.182  22.116 -20.159  0.00  0.00     0.002 A 
ATOM     18  C   UNL d   1      33.231  18.375 -23.768  0.00  0.00     0.002 A 
ENDROOT
TORSDOF 0
ENDMDL
MODEL 7
REMARK VINA RESULT:      -2.8      0.707      2.044
REMARK  0 active torsions:
REMARK  status: ('A' for Active; 'I' for Inactive)
ROOT
ATOM      1  C   UNL d   1      30.551  16.561 -23.904  0.00  0.00     0.150 A 
ATOM      2  N   UNL d   1      31.222  16.960 -24.191  0.00  0.00    -0.275 N 
ATOM      3  N   UNL d   1      30.791  15.940 -23.435  0.00  0.00    -0.227 NA
ATOM      4  C   UNL d   1      31.198  17.607 -24.676  0.00  0.00     0.149 A 
ATOM      5  N   UNL d   1      30.463  17.896 -24.905  0.00  0.00    -0.228 NA
ATOM      6  C   UNL d   1      29.821  16.864 -24.144  0.00  0.00     0.052 A 
ATOM      7  C   UNL d   1      31.870  16.542 -23.866  0.00  0.00     0.084 A 
ATOM      8  C   UNL d   1      29.777  17.540 -24.651  0.00  0.00     0.086 A 
ATOM      9  C   UNL d   1      31.623  15.945 -23.423  0.00  0.00     0.099 A 
ATOM     10  C   UNL d   1      31.873  17.990 -24.950  0.00  0.00     0.041 C 
ATOM     11  C   UNL d   1      29.124  16.490 -23.876  0.00  0.00     0.004 A 
ATOM     12  C   UNL d   1      32.697  16.680 -23.954  0.00  0.00     0.019 A 
ATOM     13  C   UNL d   1      29.039  17.820 -24.874  0.00  0.00     0.019 A 
ATOM     14  C   UNL d   1      32.172  15.453 -23.045  0.00  0.00     0.021 A 
ATOM     15  C   UNL d   1      28.394  16.792 -24.116  0.00  0.00     0.000 A 
ATOM     16  C   UNL d   1      33.239  16.169 -23.562  0.00  0.00     0.002 A 
ATOM     17  C   UNL d   1      32.979  15.591 -23.134  0.00  0.00     0.002 A 
ATOM     18  C   UNL d   1      28.353  17.448 -24.608  0.00  0.00     0.002 A 
ENDROOT
TORSDOF 0
ENDMDL
MODEL 8
REMARK VINA RESULT:      -2.7      4.706      5.964
REMARK  0 active torsions:
REMARK  status: ('A' for Active; 'I' for Inactive)
ROOT
ATOM      1  C   UNL d   1      33.202  21.396 -22.360  0.00  0.00     0.150 A 
ATOM      2  N   UNL d   1      33.218  20.761 -21.824  0.00  0.00    -0.275 N 
ATOM      3  N   UNL d   1      33.198  21.104 -23.119  0.00  0.00    -0.227 NA
ATOM      4  C   UNL d   1      33.225  20.839 -21.019  0.00  0.00     0.149 A 
ATOM      5  N   UNL d   1      33.217  21.597 -20.700  0.00  0.00    -0.228 NA
ATOM      6  C   UNL d   1      33.194  22.151 -22.023  0.00  0.00     0.052 A 
ATOM      7  C   UNL d   1      33.223  20.078 -22.308  0.00  0.00     0.084 A 
ATOM      8  C   UNL d   1      33.201  22.252 -21.184  0.00  0.00     0.086 A 
ATOM      9  C   UNL d   1      33.212  20.274 -23.066  0.00  0.00     0.099 A 
ATOM     10  C   UNL d   1      33.241  20.197 -20.503  0.00  0.00     0.041 C 
ATOM     11  C   UNL d   1      33.178  22.815 -22.529  0.00  0.00     0.004 A 
ATOM     12  C   UNL d   1      33.238  19.264 -22.090  0.00  0.00     0.019 A 
ATOM     13  C   UNL d   1      33.192  23.012 -20.875  0.00  0.00     0.019 A 
ATOM     14  C   UNL d   1      33.215  19.684 -23.649  0.00  0.00     0.021 A 
ATOM     15  C   UNL d   1      33.170  23.570 -22.193  0.00  0.00     0.000 A 
ATOM     16  C   UNL d   1      33.241  18.680 -22.696  0.00  0.00     0.002 A 
ATOM     17  C   UNL d   1      33.230  18.891 -23.431  0.00  0.00     0.002 A 
ATOM     18  C   UNL d   1      33.177  23.666 -21.378  0.00  0.00     0.002 A 
ENDROOT
TORSDOF 0
ENDMDL
MODEL 9
REMARK VINA RESULT:      -2.7      3.095      4.673
REMARK  0 active torsions:
REMARK  status: ('A' for Active; 'I' for Inactive)
ROOT
ATOM      1  C   UNL d   1      32.920  19.491 -22.709  0.00  0.00     0.150 A 
ATOM      2  N   UNL d   1      33.006  19.534 -23.535  0.00  0.00    -0.275 N 
ATOM      3  N   UNL d   1      32.772  18.720 -22.497  0.00  0.00    -0.227 NA
ATOM      4  C   UNL d   1      33.158  20.214 -23.947  0.00  0.00     0.149 A 
ATOM      5  N   UNL d   1      33.235  20.916 -23.525  0.00  0.00    -0.228 NA
ATOM      6  C   UNL d   1      33.000  20.206 -22.302  0.00  0.00     0.052 A 
ATOM      7  C   UNL d   1      32.900  18.747 -23.798  0.00  0.00     0.084 A 
ATOM      8  C   UNL d   1      33.160  20.926 -22.715  0.00  0.00     0.086 A 
ATOM      9  C   UNL d   1      32.763  18.267 -23.194  0.00  0.00     0.099 A 
ATOM     10  C   UNL d   1      33.240  20.237 -24.765  0.00  0.00     0.041 C 
ATOM     11  C   UNL d   1      32.921  20.204 -21.470  0.00  0.00     0.004 A 
ATOM     12  C   UNL d   1      32.922  18.434 -24.581  0.00  0.00     0.019 A 
ATOM     13  C   UNL d   1      33.235  21.621 -22.286  0.00  0.00     0.019 A 
ATOM     14  C   UNL d   1      32.640  17.458 -23.325  0.00  0.00     0.021 A 
ATOM     15  C   UNL d   1      33.001  20.917 -21.062  0.00  0.00     0.000 A 
ATOM     16  C   UNL d   1      32.796  17.609 -24.693  0.00  0.00     0.002 A 
ATOM     17  C   UNL d   1      32.663  17.156 -24.091  0.00  0.00     0.002 A 
ATOM     18  C   UNL d   1      33.155  21.615 -21.465  0.00  0.00     0.002 A 
ENDROOT
TORSDOF 0
ENDMDL
