MODEL 1
REMARK VINA RESULT:      -5.3      0.000      0.000
REMARK  3 active torsions:
REMARK  status: ('A' for Active; 'I' for Inactive)
REMARK    1  A    between atoms: C_14  and  C_4 
REMARK    2  A    between atoms: C_5  and  S_10 
REMARK    3  A    between atoms: S_10  and  C_14 
ROOT
ATOM      1  N   UNL d   1     -42.364-122.325 -50.943  0.00  0.00    -0.226 NA
ATOM      2  N   UNL d   1     -41.503-122.977 -50.111  0.00  0.00    -0.288 N 
ATOM      3  C   UNL d   1     -42.259-122.650 -50.168  0.00  0.00     0.148 A 
ATOM      4  C   UNL d   1     -41.647-122.474 -51.332  0.00  0.00     0.107 A 
ATOM      5  C   UNL d   1     -41.123-122.862 -50.850  0.00  0.00     0.101 A 
ATOM      6  C   UNL d   1     -41.266-123.330 -49.405  0.00  0.00     0.082 A 
ATOM      7  C   UNL d   1     -42.788-122.672 -49.519  0.00  0.00     0.037 A 
ATOM      8  C   UNL d   1     -41.796-123.352 -48.756  0.00  0.00     0.019 A 
ATOM      9  C   UNL d   1     -42.527-123.035 -48.811  0.00  0.00     0.005 A 
ENDROOT
BRANCH   4  10
ATOM     10  C   UNL d   1     -41.494-122.254 -52.107  0.00  0.00     0.058 C 
BRANCH  10  11
ATOM     11  S   UNL d   1     -41.374-122.815 -52.678  0.00  0.00    -0.059 SA
BRANCH  11  12
ATOM     12  C   UNL d   1     -41.469-122.621 -53.505  0.00  0.00     0.141 A 
ATOM     13  N   UNL d   1     -41.762-121.946 -53.882  0.00  0.00    -0.230 NA
ATOM     14  C   UNL d   1     -41.701-122.119 -54.690  0.00  0.00     0.107 A 
ATOM     15  C   UNL d   1     -41.396-122.840 -54.802  0.00  0.00     0.058 A 
ATOM     16  S   UNL d   1     -41.251-123.157 -54.080  0.00  0.00    -0.059 SA
ENDBRANCH  11  12
ENDBRANCH  10  11
ENDBRANCH   4  10
TORSDOF 3
ENDMDL
MODEL 2
REMARK VINA RESULT:      -5.3      1.090      4.230
REMARK  3 active torsions:
REMARK  status: ('A' for Active; 'I' for Inactive)
REMARK    1  A    between atoms: C_14  and  C_4 
REMARK    2  A    between atoms: C_5  and  S_10 
REMARK    3  A    between atoms: S_10  and  C_14 
ROOT
ATOM      1  N   UNL d   1     -41.872-121.952 -52.912  0.00  0.00    -0.226 NA
ATOM      2  N   UNL d   1     -41.413-122.772 -53.899  0.00  0.00    -0.288 N 
ATOM      3  C   UNL d   1     -41.869-122.101 -53.745  0.00  0.00     0.148 A 
ATOM      4  C   UNL d   1     -41.404-122.555 -52.588  0.00  0.00     0.107 A 
ATOM      5  C   UNL d   1     -41.123-123.053 -53.164  0.00  0.00     0.101 A 
ATOM      6  C   UNL d   1     -41.324-123.033 -54.676  0.00  0.00     0.082 A 
ATOM      7  C   UNL d   1     -42.244-121.682 -54.366  0.00  0.00     0.037 A 
ATOM      8  C   UNL d   1     -41.699-122.613 -55.298  0.00  0.00     0.019 A 
ATOM      9  C   UNL d   1     -42.140-121.964 -55.149  0.00  0.00     0.005 A 
ENDROOT
BRANCH   4  10
ATOM     10  C   UNL d   1     -41.249-122.634 -51.787  0.00  0.00     0.058 C 
BRANCH  10  11
ATOM     11  S   UNL d   1     -41.805-122.422 -51.238  0.00  0.00    -0.059 SA
BRANCH  11  12
ATOM     12  C   UNL d   1     -41.753-122.710 -50.435  0.00  0.00     0.141 A 
ATOM     13  N   UNL d   1     -41.123-123.021 -50.000  0.00  0.00    -0.230 NA
ATOM     14  C   UNL d   1     -41.448-123.191 -49.258  0.00  0.00     0.107 A 
ATOM     15  C   UNL d   1     -42.216-123.001 -49.236  0.00  0.00     0.058 A 
ATOM     16  S   UNL d   1     -42.413-122.705 -49.954  0.00  0.00    -0.059 SA
ENDBRANCH  11  12
ENDBRANCH  10  11
ENDBRANCH   4  10
TORSDOF 3
ENDMDL
MODEL 3
REMARK VINA RESULT:      -5.2      0.961      1.265
REMARK  3 active torsions:
REMARK  status: ('A' for Active; 'I' for Inactive)
REMARK    1  A    between atoms: C_14  and  C_4 
REMARK    2  A    between atoms: C_5  and  S_10 
REMARK    3  A    between atoms: S_10  and  C_14 
ROOT
ATOM      1  N   UNL d   1     -41.697-122.089 -51.790  0.00  0.00    -0.226 NA
ATOM      2  N   UNL d   1     -41.273-123.271 -51.260  0.00  0.00    -0.288 N 
ATOM      3  C   UNL d   1     -41.623-122.545 -51.080  0.00  0.00     0.148 A 
ATOM      4  C   UNL d   1     -41.380-122.572 -52.385  0.00  0.00     0.107 A 
ATOM      5  C   UNL d   1     -41.123-123.280 -52.085  0.00  0.00     0.101 A 
ATOM      6  C   UNL d   1     -41.141-123.817 -50.657  0.00  0.00     0.082 A 
ATOM      7  C   UNL d   1     -41.846-122.355 -50.295  0.00  0.00     0.037 A 
ATOM      8  C   UNL d   1     -41.363-123.628 -49.871  0.00  0.00     0.019 A 
ATOM      9  C   UNL d   1     -41.702-122.925 -49.698  0.00  0.00     0.005 A 
ENDROOT
BRANCH   4  10
ATOM     10  C   UNL d   1     -41.335-122.355 -53.174  0.00  0.00     0.058 C 
BRANCH  10  11
ATOM     11  S   UNL d   1     -41.905-122.590 -53.698  0.00  0.00    -0.059 SA
BRANCH  11  12
ATOM     12  C   UNL d   1     -41.903-122.299 -54.502  0.00  0.00     0.141 A 
ATOM     13  N   UNL d   1     -41.289-122.044 -54.994  0.00  0.00    -0.230 NA
ATOM     14  C   UNL d   1     -41.666-121.835 -55.701  0.00  0.00     0.107 A 
ATOM     15  C   UNL d   1     -42.447-121.951 -55.651  0.00  0.00     0.058 A 
ATOM     16  S   UNL d   1     -42.602-122.236 -54.917  0.00  0.00    -0.059 SA
ENDBRANCH  11  12
ENDBRANCH  10  11
ENDBRANCH   4  10
TORSDOF 3
ENDMDL
MODEL 4
REMARK VINA RESULT:      -5.0      1.399      4.195
REMARK  3 active torsions:
REMARK  status: ('A' for Active; 'I' for Inactive)
REMARK    1  A    between atoms: C_14  and  C_4 
REMARK    2  A    between atoms: C_5  and  S_10 
REMARK    3  A    between atoms: S_10  and  C_14 
ROOT
ATOM      1  N   UNL d   1     -41.511-122.414 -52.200  0.00  0.00    -0.226 NA
ATOM      2  N   UNL d   1     -41.247-123.451 -53.043  0.00  0.00    -0.288 N 
ATOM      3  C   UNL d   1     -41.455-122.653 -53.010  0.00  0.00     0.148 A 
ATOM      4  C   UNL d   1     -41.330-123.096 -51.765  0.00  0.00     0.107 A 
ATOM      5  C   UNL d   1     -41.169-123.724 -52.253  0.00  0.00     0.101 A 
ATOM      6  C   UNL d   1     -41.157-123.817 -53.776  0.00  0.00     0.082 A 
ATOM      7  C   UNL d   1     -41.576-122.209 -53.710  0.00  0.00     0.037 A 
ATOM      8  C   UNL d   1     -41.278-123.374 -54.476  0.00  0.00     0.019 A 
ATOM      9  C   UNL d   1     -41.480-122.601 -54.445  0.00  0.00     0.005 A 
ENDROOT
BRANCH   4  10
ATOM     10  C   UNL d   1     -41.315-123.126 -50.946  0.00  0.00     0.058 C 
BRANCH  10  11
ATOM     11  S   UNL d   1     -41.940-122.846 -50.514  0.00  0.00    -0.059 SA
BRANCH  11  12
ATOM     12  C   UNL d   1     -41.982-122.987 -49.671  0.00  0.00     0.141 A 
ATOM     13  N   UNL d   1     -41.398-123.150 -49.110  0.00  0.00    -0.230 NA
ATOM     14  C   UNL d   1     -41.813-123.226 -48.397  0.00  0.00     0.107 A 
ATOM     15  C   UNL d   1     -42.589-123.119 -48.509  0.00  0.00     0.058 A 
ATOM     16  S   UNL d   1     -42.702-122.971 -49.289  0.00  0.00    -0.059 SA
ENDBRANCH  11  12
ENDBRANCH  10  11
ENDBRANCH   4  10
TORSDOF 3
ENDMDL
MODEL 5
REMARK VINA RESULT:      -4.7      0.781      1.223
REMARK  3 active torsions:
REMARK  status: ('A' for Active; 'I' for Inactive)
REMARK    1  A    between atoms: C_14  and  C_4 
REMARK    2  A    between atoms: C_5  and  S_10 
REMARK    3  A    between atoms: S_10  and  C_14 
ROOT
ATOM      1  N   UNL d   1     -41.123-122.975 -50.025  0.00  0.00    -0.226 NA
ATOM      2  N   UNL d   1     -42.307-122.861 -49.361  0.00  0.00    -0.288 N 
ATOM      3  C   UNL d   1     -41.516-123.082 -49.283  0.00  0.00     0.148 A 
ATOM      4  C   UNL d   1     -41.710-122.686 -50.535  0.00  0.00     0.107 A 
ATOM      5  C   UNL d   1     -42.422-122.612 -50.154  0.00  0.00     0.101 A 
ATOM      6  C   UNL d   1     -42.810-122.916 -48.710  0.00  0.00     0.082 A 
ATOM      7  C   UNL d   1     -41.216-123.360 -48.552  0.00  0.00     0.037 A 
ATOM      8  C   UNL d   1     -42.510-123.194 -47.979  0.00  0.00     0.019 A 
ATOM      9  C   UNL d   1     -41.744-123.408 -47.903  0.00  0.00     0.005 A 
ENDROOT
BRANCH   4  10
ATOM     10  C   UNL d   1     -41.580-122.500 -51.323  0.00  0.00     0.058 C 
BRANCH  10  11
ATOM     11  S   UNL d   1     -41.272-123.050 -51.829  0.00  0.00    -0.059 SA
BRANCH  11  12
ATOM     12  C   UNL d   1     -41.298-122.925 -52.675  0.00  0.00     0.141 A 
ATOM     13  N   UNL d   1     -41.442-122.248 -53.127  0.00  0.00    -0.230 NA
ATOM     14  C   UNL d   1     -41.387-122.509 -53.911  0.00  0.00     0.107 A 
ATOM     15  C   UNL d   1     -41.222-123.282 -53.941  0.00  0.00     0.058 A 
ATOM     16  S   UNL d   1     -41.166-123.547 -53.186  0.00  0.00    -0.059 SA
ENDBRANCH  11  12
ENDBRANCH  10  11
ENDBRANCH   4  10
TORSDOF 3
ENDMDL
