MODEL 1
REMARK VINA RESULT:      -3.7      0.000      0.000
REMARK  4 active torsions:
REMARK  status: ('A' for Active; 'I' for Inactive)
REMARK    1  A    between atoms: N_2  and  C_1 
REMARK    2  A    between atoms: N_3  and  C_1 
REMARK       I    between atoms: C_4  and  N_2 
REMARK    3  A    between atoms: C_5  and  N_3 
REMARK    4  A    between atoms: C_9  and  C_4 
ROOT
ATOM      1  C   UNL d   1     -41.767-123.225 -53.445  0.00  0.00     0.276 C 
ATOM      2  S   UNL d   1     -41.322-123.810 -53.820  0.00  0.00    -0.023 SA
ENDROOT
BRANCH   1   3
ATOM      3  N   UNL d   1     -42.245-122.727 -53.896  0.00  0.00    -0.168 NA
ATOM      4  C   UNL d   1     -42.050-122.551 -54.680  0.00  0.00     0.282 C 
ATOM      5  O   UNL d   1     -41.368-122.881 -55.010  0.00  0.00    -0.265 OA
BRANCH   4   6
ATOM      6  C   UNL d   1     -42.531-122.052 -55.129  0.00  0.00     0.058 C 
ATOM      7  C   UNL d   1     -42.492-121.247 -55.017  0.00  0.00     0.005 C 
ATOM      8  C   UNL d   1     -43.045-122.374 -55.686  0.00  0.00     0.005 C 
ENDBRANCH   4   6
ENDBRANCH   1   3
BRANCH   1   9
ATOM      9  N   UNL d   1     -41.736-123.136 -52.623  0.00  0.00    -0.353 NA
BRANCH   9  10
ATOM     10  C   UNL d   1     -41.705-123.048 -51.807  0.00  0.00     0.216 A 
ATOM     11  N   UNL d   1     -41.699-122.288 -51.478  0.00  0.00    -0.215 NA
ATOM     12  C   UNL d   1     -41.667-122.201 -50.659  0.00  0.00     0.102 A 
ATOM     13  C   UNL d   1     -41.642-122.869 -50.174  0.00  0.00     0.021 A 
ATOM     14  C   UNL d   1     -41.648-123.617 -50.500  0.00  0.00     0.006 A 
ATOM     15  C   UNL d   1     -41.680-123.719 -51.319  0.00  0.00     0.052 A 
ENDBRANCH   9  10
ENDBRANCH   1   9
TORSDOF 4
ENDMDL
