MODEL 1
REMARK VINA RESULT:      -8.4      0.000      0.000
REMARK  3 active torsions:
REMARK  status: ('A' for Active; 'I' for Inactive)
REMARK    1  A    between atoms: S_2  and  C_5 
REMARK    2  A    between atoms: C_7  and  S_2 
REMARK    3  A    between atoms: C_3  and  C_7 
ROOT
ATOM      1  C   UNL d   1      53.157  33.259  53.808  0.00  0.00     0.087 A 
ATOM      2  N   UNL d   1      52.563  33.394  53.248  0.00  0.00    -0.244 NA
ATOM      3  C   UNL d   1      53.458  32.502  53.922  0.00  0.00     0.043 A 
ATOM      4  C   UNL d   1      53.443  33.894  54.250  0.00  0.00     0.018 A 
ATOM      5  C   UNL d   1      54.337  32.999  54.922  0.00  0.00     0.001 A 
ATOM      6  C   UNL d   1      52.265  34.158  53.138  0.00  0.00     0.099 A 
ATOM      7  C   UNL d   1      54.052  32.367  54.482  0.00  0.00     0.008 A 
ATOM      8  C   UNL d   1      54.037  33.760  54.810  0.00  0.00     0.002 A 
ATOM      9  C   UNL d   1      53.153  34.650  54.146  0.00  0.00     0.003 A 
ATOM     10  C   UNL d   1      52.561  34.787  53.589  0.00  0.00     0.021 A 
ENDROOT
BRANCH   3  11
ATOM     11  S   UNL d   1      53.162  31.872  53.471  0.00  0.00    -0.101 SA
BRANCH  11  12
ATOM     12  C   UNL d   1      53.298  31.049  53.446  0.00  0.00     0.160 C 
BRANCH  12  13
ATOM     13  C   UNL d   1      52.946  30.408  53.056  0.00  0.00     0.197 C 
ATOM     14  O   UNL d   1      52.964  30.365  52.231  0.00  0.00    -0.647 OA
ATOM     15  O   UNL d   1      52.575  29.811  53.493  0.00  0.00    -0.647 OA
ENDBRANCH  12  13
ENDBRANCH  11  12
ENDBRANCH   3  11
TORSDOF 3
ENDMDL
MODEL 2
REMARK VINA RESULT:      -8.2      2.022      2.789
REMARK  3 active torsions:
REMARK  status: ('A' for Active; 'I' for Inactive)
REMARK    1  A    between atoms: S_2  and  C_5 
REMARK    2  A    between atoms: C_7  and  S_2 
REMARK    3  A    between atoms: C_3  and  C_7 
ROOT
ATOM      1  C   UNL d   1      53.325  33.215  54.053  0.00  0.00     0.087 A 
ATOM      2  N   UNL d   1      53.309  33.969  54.392  0.00  0.00    -0.244 NA
ATOM      3  C   UNL d   1      52.762  32.997  53.493  0.00  0.00     0.043 A 
ATOM      4  C   UNL d   1      53.913  32.684  54.282  0.00  0.00     0.018 A 
ATOM      5  C   UNL d   1      53.364  31.715  53.383  0.00  0.00     0.001 A 
ATOM      6  C   UNL d   1      53.877  34.182  54.953  0.00  0.00     0.099 A 
ATOM      7  C   UNL d   1      52.778  32.243  53.154  0.00  0.00     0.008 A 
ATOM      8  C   UNL d   1      53.930  31.930  53.943  0.00  0.00     0.002 A 
ATOM      9  C   UNL d   1      54.477  32.888  54.836  0.00  0.00     0.003 A 
ATOM     10  C   UNL d   1      54.464  33.639  55.176  0.00  0.00     0.021 A 
ENDROOT
BRANCH   3  11
ATOM     11  S   UNL d   1      52.176  33.540  53.271  0.00  0.00    -0.101 SA
BRANCH  11  12
ATOM     12  C   UNL d   1      51.507  33.515  52.772  0.00  0.00     0.160 C 
BRANCH  12  13
ATOM     13  C   UNL d   1      50.983  34.079  52.466  0.00  0.00     0.197 C 
ATOM     14  O   UNL d   1      50.343  34.340  52.920  0.00  0.00    -0.647 OA
ATOM     15  O   UNL d   1      51.099  34.382  51.705  0.00  0.00    -0.647 OA
ENDBRANCH  12  13
ENDBRANCH  11  12
ENDBRANCH   3  11
TORSDOF 3
ENDMDL
MODEL 3
REMARK VINA RESULT:      -8.1      1.975      3.035
REMARK  3 active torsions:
REMARK  status: ('A' for Active; 'I' for Inactive)
REMARK    1  A    between atoms: S_2  and  C_5 
REMARK    2  A    between atoms: C_7  and  S_2 
REMARK    3  A    between atoms: C_3  and  C_7 
ROOT
ATOM      1  C   UNL d   1      53.011  32.077  53.325  0.00  0.00     0.087 A 
ATOM      2  N   UNL d   1      52.533  31.559  52.893  0.00  0.00    -0.244 NA
ATOM      3  C   UNL d   1      52.840  32.881  53.348  0.00  0.00     0.043 A 
ATOM      4  C   UNL d   1      53.662  31.776  53.733  0.00  0.00     0.018 A 
ATOM      5  C   UNL d   1      53.966  33.100  54.187  0.00  0.00     0.001 A 
ATOM      6  C   UNL d   1      52.711  30.751  52.874  0.00  0.00     0.099 A 
ATOM      7  C   UNL d   1      53.318  33.399  53.781  0.00  0.00     0.008 A 
ATOM      8  C   UNL d   1      54.141  32.294  54.166  0.00  0.00     0.002 A 
ATOM      9  C   UNL d   1      53.843  30.981  53.718  0.00  0.00     0.003 A 
ATOM     10  C   UNL d   1      53.368  30.461  53.288  0.00  0.00     0.021 A 
ENDROOT
BRANCH   3  11
ATOM     11  S   UNL d   1      52.183  33.171  52.934  0.00  0.00    -0.101 SA
BRANCH  11  12
ATOM     12  C   UNL d   1      51.822  33.919  52.848  0.00  0.00     0.160 C 
BRANCH  12  13
ATOM     13  C   UNL d   1      51.149  34.203  52.457  0.00  0.00     0.197 C 
ATOM     14  O   UNL d   1      51.163  34.320  51.639  0.00  0.00    -0.647 OA
ATOM     15  O   UNL d   1      50.462  34.371  52.886  0.00  0.00    -0.647 OA
ENDBRANCH  12  13
ENDBRANCH  11  12
ENDBRANCH   3  11
TORSDOF 3
ENDMDL
MODEL 4
REMARK VINA RESULT:      -7.8      2.180      3.404
REMARK  3 active torsions:
REMARK  status: ('A' for Active; 'I' for Inactive)
REMARK    1  A    between atoms: S_2  and  C_5 
REMARK    2  A    between atoms: C_7  and  S_2 
REMARK    3  A    between atoms: C_3  and  C_7 
ROOT
ATOM      1  C   UNL d   1      53.331  31.798  53.566  0.00  0.00     0.087 A 
ATOM      2  N   UNL d   1      53.821  31.203  53.866  0.00  0.00    -0.244 NA
ATOM      3  C   UNL d   1      53.461  32.586  53.769  0.00  0.00     0.043 A 
ATOM      4  C   UNL d   1      52.711  31.593  53.062  0.00  0.00     0.018 A 
ATOM      5  C   UNL d   1      52.354  32.976  52.968  0.00  0.00     0.001 A 
ATOM      6  C   UNL d   1      53.686  30.414  53.658  0.00  0.00     0.099 A 
ATOM      7  C   UNL d   1      52.971  33.181  53.469  0.00  0.00     0.008 A 
ATOM      8  C   UNL d   1      52.221  32.188  52.763  0.00  0.00     0.002 A 
ATOM      9  C   UNL d   1      52.572  30.816  52.854  0.00  0.00     0.003 A 
ATOM     10  C   UNL d   1      53.059  30.220  53.151  0.00  0.00     0.021 A 
ENDROOT
BRANCH   3  11
ATOM     11  S   UNL d   1      54.087  32.780  54.276  0.00  0.00    -0.101 SA
BRANCH  11  12
ATOM     12  C   UNL d   1      54.329  33.470  54.677  0.00  0.00     0.160 C 
BRANCH  12  13
ATOM     13  C   UNL d   1      54.940  33.658  55.205  0.00  0.00     0.197 C 
ATOM     14  O   UNL d   1      55.604  34.073  54.939  0.00  0.00    -0.647 OA
ATOM     15  O   UNL d   1      54.887  33.430  55.998  0.00  0.00    -0.647 OA
ENDBRANCH  12  13
ENDBRANCH  11  12
ENDBRANCH   3  11
TORSDOF 3
ENDMDL
MODEL 5
REMARK VINA RESULT:      -7.7      2.173      2.831
REMARK  3 active torsions:
REMARK  status: ('A' for Active; 'I' for Inactive)
REMARK    1  A    between atoms: S_2  and  C_5 
REMARK    2  A    between atoms: C_7  and  S_2 
REMARK    3  A    between atoms: C_3  and  C_7 
ROOT
ATOM      1  C   UNL d   1      52.793  33.413  53.465  0.00  0.00     0.087 A 
ATOM      2  N   UNL d   1      52.660  34.220  53.587  0.00  0.00    -0.244 NA
ATOM      3  C   UNL d   1      53.426  33.035  53.831  0.00  0.00     0.043 A 
ATOM      4  C   UNL d   1      52.282  32.992  52.972  0.00  0.00     0.018 A 
ATOM      5  C   UNL d   1      53.050  31.809  53.219  0.00  0.00     0.001 A 
ATOM      6  C   UNL d   1      52.022  34.594  53.216  0.00  0.00     0.099 A 
ATOM      7  C   UNL d   1      53.559  32.228  53.709  0.00  0.00     0.008 A 
ATOM      8  C   UNL d   1      52.415  32.184  52.851  0.00  0.00     0.002 A 
ATOM      9  C   UNL d   1      51.651  33.355  52.604  0.00  0.00     0.003 A 
ATOM     10  C   UNL d   1      51.516  34.160  52.723  0.00  0.00     0.021 A 
ENDROOT
BRANCH   3  11
ATOM     11  S   UNL d   1      53.932  33.469  54.324  0.00  0.00    -0.101 SA
BRANCH  11  12
ATOM     12  C   UNL d   1      54.620  33.296  54.762  0.00  0.00     0.160 C 
BRANCH  12  13
ATOM     13  C   UNL d   1      55.133  33.732  55.246  0.00  0.00     0.197 C 
ATOM     14  O   UNL d   1      55.776  34.131  54.913  0.00  0.00    -0.647 OA
ATOM     15  O   UNL d   1      55.001  33.769  56.061  0.00  0.00    -0.647 OA
ENDBRANCH  12  13
ENDBRANCH  11  12
ENDBRANCH   3  11
TORSDOF 3
ENDMDL
