MODEL 1
REMARK VINA RESULT:      18.9      0.000      0.000
REMARK  3 active torsions:
REMARK  status: ('A' for Active; 'I' for Inactive)
REMARK    1  A    between atoms: C_2  and  C_1 
REMARK    2  A    between atoms: C_3  and  C_1 
REMARK    3  A    between atoms: C_5  and  C_2 
ROOT
ATOM      1  C   UNL d   1     -51.567  25.365  33.421  0.00  0.00     0.000 C 
ENDROOT
BRANCH   1   2
ATOM      2  C   UNL d   1     -52.381  25.311  33.306  0.00  0.00     0.000 C 
BRANCH   2   3
ATOM      3  C   UNL d   1     -52.769  24.601  33.477  0.00  0.00     0.000 A 
ATOM      4  C   UNL d   1     -53.594  24.594  33.545  0.00  0.00     0.000 A 
ATOM      5  C   UNL d   1     -53.987  23.891  33.715  0.00  0.00     0.000 A 
ATOM      6  C   UNL d   1     -53.557  23.189  33.820  0.00  0.00     0.000 A 
ATOM      7  C   UNL d   1     -52.736  23.195  33.753  0.00  0.00     0.000 A 
ATOM      8  C   UNL d   1     -52.339  23.899  33.582  0.00  0.00     0.000 A 
ENDBRANCH   2   3
ENDBRANCH   1   2
BRANCH   1   9
ATOM      9  C   UNL d   1     -51.198  26.099  33.401  0.00  0.00     0.000 A 
ATOM     10  C   UNL d   1     -50.375  26.145  33.443  0.00  0.00     0.002 A 
ATOM     11  C   UNL d   1     -50.005  26.880  33.423  0.00  0.00     0.021 A 
ATOM     12  C   UNL d   1     -50.453  27.570  33.361  0.00  0.00     0.103 A 
ATOM     13  C   UNL d   1     -51.276  27.520  33.319  0.00  0.00     0.021 A 
ATOM     14  N   UNL d   1     -50.075  28.306  33.341  0.00  0.00    -0.148 N 
ATOM     15  C   UNL d   1     -51.650  26.785  33.339  0.00  0.00     0.002 A 
ENDBRANCH   1   9
TORSDOF 3
ENDMDL
