MODEL 1
REMARK VINA RESULT:      18.5      0.000      0.000
REMARK  5 active torsions:
REMARK  status: ('A' for Active; 'I' for Inactive)
REMARK    1  A    between atoms: C_5  and  N_1 
REMARK    2  A    between atoms: C_2  and  C_7 
REMARK    3  A    between atoms: C_9  and  C_2 
REMARK    4  A    between atoms: C_3  and  C_4 
REMARK    5  A    between atoms: C_7  and  C_8 
ROOT
ATOM      1  C   UNL d   1      45.596 -14.301  44.345  0.00  0.00     0.100 C 
ATOM      2  C   UNL d   1      44.802 -14.470  44.504  0.00  0.00     0.103 C 
ATOM      3  N   UNL d   1      44.007 -14.639  44.663  0.00  0.00    -0.191 NA
ENDROOT
BRANCH   1   4
ATOM      4  C   UNL d   1      46.134 -14.912  44.229  0.00  0.00     0.037 C 
BRANCH   4   5
ATOM      5  C   UNL d   1      45.919 -15.689  44.403  0.00  0.00     0.101 A 
ATOM      6  O   UNL d   1      46.295 -16.372  44.136  0.00  0.00    -0.307 OA
ATOM      7  C   UNL d   1      45.891 -17.015  44.449  0.00  0.00     0.102 A 
ATOM      8  C   UNL d   1      45.265 -16.735  44.909  0.00  0.00     0.027 A 
ATOM      9  C   UNL d   1      45.277 -15.924  44.886  0.00  0.00     0.027 A 
BRANCH   7  10
ATOM     10  C   UNL d   1      46.080 -17.807  44.323  0.00  0.00     0.045 A 
ATOM     11  C   UNL d   1      46.016 -18.134  43.567  0.00  0.00     0.129 A 
ATOM     12  C   UNL d   1      46.204 -18.924  43.438  0.00  0.00     0.024 A 
ATOM     13  C   UNL d   1      46.458 -19.396  44.070  0.00  0.00     0.002 A 
ATOM     14  C   UNL d   1      46.524 -19.077  44.827  0.00  0.00     0.000 A 
ATOM     15  C   UNL d   1      46.647 -20.186  43.944  0.00  0.00     0.000 C 
ATOM     16  C   UNL d   1      46.334 -18.278  44.955  0.00  0.00     0.004 A 
BRANCH  11  17
ATOM     17  N   UNL d   1      45.763 -17.664  42.938  0.00  0.00    -0.114 N 
ATOM     18  O   UNL d   1      44.963 -17.620  42.746  0.00  0.00    -0.532 OA
ATOM     19  O   UNL d   1      46.308 -17.231  42.492  0.00  0.00    -0.532 OA
ENDBRANCH  11  17
ENDBRANCH   7  10
ENDBRANCH   4   5
ENDBRANCH   1   4
BRANCH   1  20
ATOM     20  C   UNL d   1      45.848 -13.517  44.304  0.00  0.00     0.167 C 
ATOM     21  S   UNL d   1      45.601 -13.037  43.678  0.00  0.00    -0.055 SA
ATOM     22  N   UNL d   1      46.343 -13.212  44.883  0.00  0.00    -0.136 N 
ENDBRANCH   1  20
TORSDOF 5
ENDMDL
MODEL 2
REMARK VINA RESULT:      19.1      1.757      4.271
REMARK  5 active torsions:
REMARK  status: ('A' for Active; 'I' for Inactive)
REMARK    1  A    between atoms: C_5  and  N_1 
REMARK    2  A    between atoms: C_2  and  C_7 
REMARK    3  A    between atoms: C_9  and  C_2 
REMARK    4  A    between atoms: C_3  and  C_4 
REMARK    5  A    between atoms: C_7  and  C_8 
ROOT
ATOM      1  C   UNL d   1      46.332 -18.228  43.637  0.00  0.00     0.100 C 
ATOM      2  C   UNL d   1      46.286 -17.902  42.879  0.00  0.00     0.103 C 
ATOM      3  N   UNL d   1      46.240 -17.576  42.119  0.00  0.00    -0.191 NA
ENDROOT
BRANCH   1   4
ATOM      4  C   UNL d   1      46.595 -17.771  44.269  0.00  0.00     0.037 C 
BRANCH   4   5
ATOM      5  C   UNL d   1      46.183 -17.090  44.485  0.00  0.00     0.101 A 
ATOM      6  O   UNL d   1      46.444 -16.313  44.399  0.00  0.00    -0.307 OA
ATOM      7  C   UNL d   1      45.854 -15.821  44.688  0.00  0.00     0.102 A 
ATOM      8  C   UNL d   1      45.227 -16.289  44.954  0.00  0.00     0.027 A 
ATOM      9  C   UNL d   1      45.422 -17.067  44.832  0.00  0.00     0.027 A 
BRANCH   7  10
ATOM     10  C   UNL d   1      45.883 -14.998  44.710  0.00  0.00     0.045 A 
ATOM     11  C   UNL d   1      45.207 -14.553  44.544  0.00  0.00     0.129 A 
ATOM     12  C   UNL d   1      45.233 -13.732  44.564  0.00  0.00     0.024 A 
ATOM     13  C   UNL d   1      45.942 -13.347  44.752  0.00  0.00     0.002 A 
ATOM     14  C   UNL d   1      46.621 -13.783  44.918  0.00  0.00     0.000 A 
ATOM     15  C   UNL d   1      45.972 -12.526  44.773  0.00  0.00     0.000 C 
ATOM     16  C   UNL d   1      46.592 -14.613  44.897  0.00  0.00     0.004 A 
BRANCH  11  17
ATOM     17  N   UNL d   1      44.501 -14.937  44.357  0.00  0.00    -0.114 N 
ATOM     18  O   UNL d   1      44.263 -15.014  43.572  0.00  0.00    -0.532 OA
ATOM     19  O   UNL d   1      44.023 -15.251  44.954  0.00  0.00    -0.532 OA
ENDBRANCH  11  17
ENDBRANCH   7  10
ENDBRANCH   4   5
ENDBRANCH   1   4
BRANCH   1  20
ATOM     20  C   UNL d   1      46.112 -19.013  43.760  0.00  0.00     0.167 C 
ATOM     21  S   UNL d   1      45.867 -19.477  43.121  0.00  0.00    -0.055 SA
ATOM     22  N   UNL d   1      46.137 -19.335  44.514  0.00  0.00    -0.136 N 
ENDBRANCH   1  20
TORSDOF 5
ENDMDL
