MODEL 1
REMARK VINA RESULT:      42.6      0.000      0.000
REMARK  5 active torsions:
REMARK  status: ('A' for Active; 'I' for Inactive)
REMARK    1  A    between atoms: C_6  and  N_1 
REMARK    2  A    between atoms: C_10  and  C_6 
REMARK    3  A    between atoms: O_18  and  C_12 
REMARK    4  A    between atoms: C_20  and  O_18 
REMARK    5  A    between atoms: C_21  and  C_20 
ROOT
ATOM      1  N   UNL d   1     -50.730  26.116  33.311  0.00  0.00    -0.251 N 
ATOM      2  C   UNL d   1     -51.357  26.668  33.312  0.00  0.00     0.378 A 
ATOM      3  C   UNL d   1     -51.059  25.357  33.310  0.00  0.00     0.092 A 
ATOM      4  O   UNL d   1     -52.069  26.247  33.311  0.00  0.00    -0.258 OA
ATOM      5  C   UNL d   1     -51.886  25.438  33.310  0.00  0.00     0.121 A 
ATOM      6  O   UNL d   1     -51.273  27.486  33.314  0.00  0.00    -0.237 OA
ATOM      7  C   UNL d   1     -50.712  24.614  33.309  0.00  0.00     0.020 A 
ATOM      8  C   UNL d   1     -52.358  24.759  33.308  0.00  0.00     0.026 A 
ATOM      9  C   UNL d   1     -51.191  23.942  33.307  0.00  0.00     0.002 A 
ATOM     10  C   UNL d   1     -52.011  24.014  33.307  0.00  0.00     0.002 A 
ATOM     11  C   UNL d   1     -50.836  23.195  33.306  0.00  0.00     0.000 C 
ENDROOT
BRANCH   1  12
ATOM     12  C   UNL d   1     -49.917  26.258  33.312  0.00  0.00     0.085 C 
BRANCH  12  13
ATOM     13  C   UNL d   1     -49.600  26.826  33.820  0.00  0.00     0.018 A 
ATOM     14  C   UNL d   1     -49.436  27.579  33.550  0.00  0.00     0.004 A 
ATOM     15  C   UNL d   1     -49.123  28.141  34.055  0.00  0.00     0.025 A 
ATOM     16  C   UNL d   1     -48.970  27.947  34.842  0.00  0.00     0.100 A 
ATOM     17  C   UNL d   1     -49.136  27.188  35.114  0.00  0.00     0.025 A 
ATOM     18  C   UNL d   1     -49.453  26.622  34.603  0.00  0.00     0.004 A 
BRANCH  16  19
ATOM     19  O   UNL d   1     -48.655  28.511  35.348  0.00  0.00    -0.305 OA
BRANCH  19  20
ATOM     20  C   UNL d   1     -47.949  28.879  35.158  0.00  0.00     0.123 C 
BRANCH  20  21
ATOM     21  C   UNL d   1     -47.825  29.662  35.362  0.00  0.00     0.027 C 
ATOM     22  C   UNL d   1     -47.097  29.900  35.671  0.00  0.00     0.002 C 
ENDBRANCH  20  21
ENDBRANCH  19  20
ENDBRANCH  16  19
ENDBRANCH  12  13
ENDBRANCH   1  12
TORSDOF 5
ENDMDL
