MODEL 1
REMARK VINA RESULT:      -3.0      0.000      0.000
REMARK  7 active torsions:
REMARK  status: ('A' for Active; 'I' for Inactive)
REMARK    1  A    between atoms: C_2  and  N_1 
REMARK    2  A    between atoms: C_4  and  C_2 
REMARK    3  A    between atoms: O_3  and  C_9 
REMARK    4  A    between atoms: C_7  and  O_3 
REMARK    5  A    between atoms: C_9  and  C_4 
REMARK    6  A    between atoms: C_10  and  C_12 
REMARK    7  A    between atoms: C_17  and  C_10 
ROOT
ATOM      1  N   UNL d   1     -41.795-122.710 -50.885  0.00  0.00    -0.300 N 
ATOM      2  C   UNL d   1     -42.095-123.417 -50.679  0.00  0.00     0.080 A 
ATOM      3  C   UNL d   1     -41.306-122.275 -50.347  0.00  0.00     0.080 A 
ATOM      4  C   UNL d   1     -41.463-123.334 -49.403  0.00  0.00     0.003 A 
ATOM      5  C   UNL d   1     -41.931-123.737 -49.933  0.00  0.00     0.019 A 
ATOM      6  C   UNL d   1     -41.147-122.600 -49.605  0.00  0.00     0.019 A 
ENDROOT
BRANCH   1   7
ATOM      7  C   UNL d   1     -41.986-122.415 -51.659  0.00  0.00     0.125 C 
BRANCH   7   8
ATOM      8  C   UNL d   1     -41.641-122.765 -52.356  0.00  0.00     0.238 C 
ATOM      9  O   UNL d   1     -41.123-123.401 -52.294  0.00  0.00    -0.283 OA
BRANCH   8  10
ATOM     10  C   UNL d   1     -41.836-122.453 -53.093  0.00  0.00     0.166 C 
BRANCH  10  11
ATOM     11  O   UNL d   1     -41.603-122.833 -53.784  0.00  0.00    -0.302 OA
BRANCH  11  12
ATOM     12  C   UNL d   1     -41.769-122.475 -54.527  0.00  0.00     0.100 A 
ATOM     13  C   UNL d   1     -41.169-122.438 -55.128  0.00  0.00     0.026 A 
ATOM     14  C   UNL d   1     -41.327-122.088 -55.859  0.00  0.00     0.013 A 
ATOM     15  C   UNL d   1     -42.067-121.773 -56.010  0.00  0.00     0.058 A 
ATOM     16  C   UNL d   1     -42.665-121.801 -55.434  0.00  0.00     0.013 A 
ATOM     17 CL   UNL d   1     -42.230-121.412 -56.765  0.00  0.00    -0.082 Cl
ATOM     18  C   UNL d   1     -42.512-122.149 -54.704  0.00  0.00     0.026 A 
ENDBRANCH  11  12
ENDBRANCH  10  11
ENDBRANCH   8  10
ENDBRANCH   7   8
ENDBRANCH   1   7
BRANCH   4  19
ATOM     19  C   UNL d   1     -41.300-123.688 -48.618  0.00  0.00     0.000 C 
BRANCH  19  20
ATOM     20  C   UNL d   1     -41.782-123.487 -47.968  0.00  0.00     0.000 A 
ATOM     21  C   UNL d   1     -42.519-123.817 -47.875  0.00  0.00     0.000 A 
ATOM     22  C   UNL d   1     -42.995-123.609 -47.220  0.00  0.00     0.000 A 
ATOM     23  C   UNL d   1     -42.704-123.067 -46.676  0.00  0.00     0.000 A 
ATOM     24  C   UNL d   1     -41.967-122.737 -46.769  0.00  0.00     0.000 A 
ATOM     25  C   UNL d   1     -41.501-122.939 -47.409  0.00  0.00     0.000 A 
ENDBRANCH  19  20
ENDBRANCH   4  19
TORSDOF 7
ENDMDL
MODEL 2
REMARK VINA RESULT:      -2.8      2.344      6.268
REMARK  7 active torsions:
REMARK  status: ('A' for Active; 'I' for Inactive)
REMARK    1  A    between atoms: C_2  and  N_1 
REMARK    2  A    between atoms: C_4  and  C_2 
REMARK    3  A    between atoms: O_3  and  C_9 
REMARK    4  A    between atoms: C_7  and  O_3 
REMARK    5  A    between atoms: C_9  and  C_4 
REMARK    6  A    between atoms: C_10  and  C_12 
REMARK    7  A    between atoms: C_17  and  C_10 
ROOT
ATOM      1  N   UNL d   1     -41.222-122.556 -52.118  0.00  0.00    -0.300 N 
ATOM      2  C   UNL d   1     -41.124-123.283 -52.421  0.00  0.00     0.080 A 
ATOM      3  C   UNL d   1     -41.358-121.891 -52.625  0.00  0.00     0.080 A 
ATOM      4  C   UNL d   1     -41.282-122.774 -53.744  0.00  0.00     0.003 A 
ATOM      5  C   UNL d   1     -41.153-123.400 -53.241  0.00  0.00     0.019 A 
ATOM      6  C   UNL d   1     -41.385-122.014 -53.441  0.00  0.00     0.019 A 
ENDROOT
BRANCH   1   7
ATOM      7  C   UNL d   1     -41.186-122.476 -51.273  0.00  0.00     0.125 C 
BRANCH   7   8
ATOM      8  C   UNL d   1     -41.888-122.303 -50.820  0.00  0.00     0.238 C 
ATOM      9  O   UNL d   1     -42.317-121.614 -50.958  0.00  0.00    -0.283 OA
BRANCH   8  10
ATOM     10  C   UNL d   1     -42.128-122.838 -50.242  0.00  0.00     0.166 C 
BRANCH  10  11
ATOM     11  O   UNL d   1     -41.708-122.912 -49.539  0.00  0.00    -0.302 OA
BRANCH  11  12
ATOM     12  C   UNL d   1     -42.115-123.137 -48.837  0.00  0.00     0.100 A 
ATOM     13  C   UNL d   1     -42.924-123.393 -48.877  0.00  0.00     0.026 A 
ATOM     14  C   UNL d   1     -43.328-123.615 -48.191  0.00  0.00     0.013 A 
ATOM     15  C   UNL d   1     -42.949-123.588 -47.466  0.00  0.00     0.058 A 
ATOM     16  C   UNL d   1     -42.157-123.340 -47.411  0.00  0.00     0.013 A 
ATOM     17 CL   UNL d   1     -43.366-123.817 -46.758  0.00  0.00    -0.082 Cl
ATOM     18  C   UNL d   1     -41.751-123.118 -48.092  0.00  0.00     0.026 A 
ENDBRANCH  11  12
ENDBRANCH  10  11
ENDBRANCH   8  10
ENDBRANCH   7   8
ENDBRANCH   1   7
BRANCH   4  19
ATOM     19  C   UNL d   1     -41.309-122.916 -54.608  0.00  0.00     0.000 C 
BRANCH  19  20
ATOM     20  C   UNL d   1     -41.932-122.594 -55.058  0.00  0.00     0.000 A 
ATOM     21  C   UNL d   1     -42.705-122.802 -54.914  0.00  0.00     0.000 A 
ATOM     22  C   UNL d   1     -43.323-122.472 -55.372  0.00  0.00     0.000 A 
ATOM     23  C   UNL d   1     -43.133-121.938 -55.966  0.00  0.00     0.000 A 
ATOM     24  C   UNL d   1     -42.361-121.730 -56.110  0.00  0.00     0.000 A 
ATOM     25  C   UNL d   1     -41.755-122.051 -55.664  0.00  0.00     0.000 A 
ENDBRANCH  19  20
ENDBRANCH   4  19
TORSDOF 7
ENDMDL
