MODEL 1
REMARK VINA RESULT:      39.2      0.000      0.000
REMARK  4 active torsions:
REMARK  status: ('A' for Active; 'I' for Inactive)
REMARK    1  A    between atoms: C_9  and  C_2 
REMARK    2  A    between atoms: C_7  and  C_9 
REMARK       I    between atoms: N_13  and  C_7 
REMARK    3  A    between atoms: C_10  and  C_19 
REMARK    4  A    between atoms: C_19  and  N_13 
ROOT
ATOM      1  C   UNL d   1      57.466  49.703  50.908  0.00  0.00     0.100 A 
ATOM      2  C   UNL d   1      58.789  49.705  51.060  0.00  0.00     0.032 A 
ATOM      3  O   UNL d   1      57.632  49.706  51.710  0.00  0.00    -0.305 OA
ATOM      4  C   UNL d   1      58.185  49.702  50.498  0.00  0.00     0.025 A 
ATOM      5  C   UNL d   1      58.456  49.708  51.809  0.00  0.00     0.123 A 
ATOM      6  C   UNL d   1      56.750  49.700  50.495  0.00  0.00     0.023 A 
ATOM      7  C   UNL d   1      58.186  49.698  49.678  0.00  0.00     0.002 A 
ATOM      8  C   UNL d   1      56.755  49.696  49.665  0.00  0.00     0.002 A 
ATOM      9  C   UNL d   1      57.477  49.695  49.259  0.00  0.00     0.000 A 
ATOM     10  C   UNL d   1      56.036  49.701  50.898  0.00  0.00     0.002 C 
ATOM     11  C   UNL d   1      56.049  49.693  49.250  0.00  0.00     0.000 C 
ENDROOT
BRANCH   2  12
ATOM     12  C   UNL d   1      59.603  49.705  50.900  0.00  0.00     0.065 C 
BRANCH  12  13
ATOM     13  C   UNL d   1      60.144  49.477  51.476  0.00  0.00     0.279 C 
ATOM     14  N   UNL d   1      60.795  49.022  51.270  0.00  0.00    -0.204 NA
ATOM     15  O   UNL d   1      60.032  49.705  52.259  0.00  0.00    -0.265 OA
BRANCH  14  16
ATOM     16  C   UNL d   1      60.917  48.788  50.492  0.00  0.00     0.127 C 
BRANCH  16  17
ATOM     17  C   UNL d   1      61.234  48.052  50.318  0.00  0.00     0.119 A 
ATOM     18  O   UNL d   1      62.025  47.854  50.309  0.00  0.00    -0.304 OA
ATOM     19  C   UNL d   1      62.091  47.052  50.105  0.00  0.00     0.123 A 
ATOM     20  C   UNL d   1      61.329  46.754  49.988  0.00  0.00     0.029 A 
ATOM     21  C   UNL d   1      60.796  47.371  50.119  0.00  0.00     0.028 A 
ENDBRANCH  16  17
ENDBRANCH  14  16
ENDBRANCH  12  13
ENDBRANCH   2  12
TORSDOF 4
ENDMDL
