MODEL 1
REMARK VINA RESULT:      -4.7      0.000      0.000
REMARK  4 active torsions:
REMARK  status: ('A' for Active; 'I' for Inactive)
REMARK    1  A    between atoms: N_7  and  C_2 
REMARK    2  A    between atoms: C_5  and  C_10 
REMARK    3  A    between atoms: N_6  and  N_7 
REMARK    4  A    between atoms: C_10  and  N_6 
ROOT
ATOM      1  C   UNL d   1      58.155  -0.266  29.977  0.00  0.00     0.125 C 
ENDROOT
BRANCH   1   2
ATOM      2  C   UNL d   1      58.727  -0.710  29.557  0.00  0.00     0.060 A 
ATOM      3  C   UNL d   1      59.416  -0.340  29.280  0.00  0.00     0.197 A 
ATOM      4  C   UNL d   1      59.984  -0.786  28.862  0.00  0.00     0.043 A 
ATOM      5  O   UNL d   1      59.557   0.460  29.408  0.00  0.00    -0.286 OA
ATOM      6  C   UNL d   1      59.858  -1.582  28.727  0.00  0.00     0.010 A 
ATOM      7  C   UNL d   1      59.171  -1.942  29.005  0.00  0.00     0.035 A 
ATOM      8  C   UNL d   1      58.600  -1.523  29.419  0.00  0.00     0.011 A 
ATOM      9 BR   UNL d   1      59.034  -2.766  28.870  0.00  0.00    -0.049 Br
ENDBRANCH   1   2
BRANCH   1  10
ATOM     10  N   UNL d   1      57.710  -0.605  30.608  0.00  0.00    -0.144 NA
BRANCH  10  11
ATOM     11  N   UNL d   1      57.207  -0.152  31.045  0.00  0.00    -0.121 NA
BRANCH  11  12
ATOM     12  C   UNL d   1      56.824  -0.477  31.704  0.00  0.00     0.217 A 
ATOM     13  N   UNL d   1      56.615  -1.230  31.891  0.00  0.00    -0.181 NA
ATOM     14  C   UNL d   1      56.257  -1.211  32.605  0.00  0.00     0.288 A 
ATOM     15  O   UNL d   1      55.954  -1.864  33.007  0.00  0.00    -0.265 OA
ATOM     16  C   UNL d   1      56.227  -0.471  32.886  0.00  0.00     0.101 A 
ATOM     17  S   UNL d   1      56.585   0.020  32.327  0.00  0.00    -0.041 SA
ENDBRANCH  11  12
ENDBRANCH  10  11
ENDBRANCH   1  10
TORSDOF 4
ENDMDL
MODEL 2
REMARK VINA RESULT:      -4.5      2.479      4.454
REMARK  4 active torsions:
REMARK  status: ('A' for Active; 'I' for Inactive)
REMARK    1  A    between atoms: N_7  and  C_2 
REMARK    2  A    between atoms: C_5  and  C_10 
REMARK    3  A    between atoms: N_6  and  N_7 
REMARK    4  A    between atoms: C_10  and  N_6 
ROOT
ATOM      1  C   UNL d   1      57.015   0.062  31.322  0.00  0.00     0.125 C 
ENDROOT
BRANCH   1   2
ATOM      2  C   UNL d   1      56.609  -0.198  32.007  0.00  0.00     0.060 A 
ATOM      3  C   UNL d   1      56.443  -1.005  32.107  0.00  0.00     0.197 A 
ATOM      4  C   UNL d   1      56.039  -1.261  32.790  0.00  0.00     0.043 A 
ATOM      5  O   UNL d   1      56.667  -1.564  31.546  0.00  0.00    -0.286 OA
ATOM      6  C   UNL d   1      55.810  -0.718  33.356  0.00  0.00     0.010 A 
ATOM      7  C   UNL d   1      55.979   0.082  33.249  0.00  0.00     0.035 A 
ATOM      8  C   UNL d   1      56.375   0.355  32.584  0.00  0.00     0.011 A 
ATOM      9 BR   UNL d   1      55.745   0.650  33.830  0.00  0.00    -0.049 Br
ENDBRANCH   1   2
BRANCH   1  10
ATOM     10  N   UNL d   1      57.832   0.270  31.345  0.00  0.00    -0.144 NA
BRANCH  10  11
ATOM     11  N   UNL d   1      58.168   0.682  30.740  0.00  0.00    -0.121 NA
BRANCH  11  12
ATOM     12  C   UNL d   1      58.987   0.642  30.617  0.00  0.00     0.217 A 
ATOM     13  N   UNL d   1      59.611   0.680  31.121  0.00  0.00    -0.181 NA
ATOM     14  C   UNL d   1      60.277   0.610  30.686  0.00  0.00     0.288 A 
ATOM     15  O   UNL d   1      61.046   0.619  30.981  0.00  0.00    -0.265 OA
ATOM     16  C   UNL d   1      60.104   0.528  29.917  0.00  0.00     0.101 A 
ATOM     17  S   UNL d   1      59.282   0.546  29.845  0.00  0.00    -0.041 SA
ENDBRANCH  11  12
ENDBRANCH  10  11
ENDBRANCH   1  10
TORSDOF 4
ENDMDL
MODEL 3
REMARK VINA RESULT:      -4.4      1.479      1.589
REMARK  4 active torsions:
REMARK  status: ('A' for Active; 'I' for Inactive)
REMARK    1  A    between atoms: N_7  and  C_2 
REMARK    2  A    between atoms: C_5  and  C_10 
REMARK    3  A    between atoms: N_6  and  N_7 
REMARK    4  A    between atoms: C_10  and  N_6 
ROOT
ATOM      1  C   UNL d   1      57.743   0.636  30.189  0.00  0.00     0.125 C 
ENDROOT
BRANCH   1   2
ATOM      2  C   UNL d   1      58.473   0.522  29.795  0.00  0.00     0.060 A 
ATOM      3  C   UNL d   1      58.483   0.344  28.985  0.00  0.00     0.197 A 
ATOM      4  C   UNL d   1      59.213   0.232  28.596  0.00  0.00     0.043 A 
ATOM      5  O   UNL d   1      57.788   0.273  28.551  0.00  0.00    -0.286 OA
ATOM      6  C   UNL d   1      59.912   0.298  29.015  0.00  0.00     0.010 A 
ATOM      7  C   UNL d   1      59.893   0.476  29.819  0.00  0.00     0.035 A 
ATOM      8  C   UNL d   1      59.187   0.590  30.221  0.00  0.00     0.011 A 
ATOM      9 BR   UNL d   1      60.613   0.547  30.259  0.00  0.00    -0.049 Br
ENDBRANCH   1   2
BRANCH   1  10
ATOM     10  N   UNL d   1      57.525   0.170  30.857  0.00  0.00    -0.144 NA
BRANCH  10  11
ATOM     11  N   UNL d   1      56.900   0.382  31.319  0.00  0.00    -0.121 NA
BRANCH  11  12
ATOM     12  C   UNL d   1      56.614  -0.142  31.895  0.00  0.00     0.217 A 
ATOM     13  N   UNL d   1      56.582  -0.944  31.928  0.00  0.00    -0.181 NA
ATOM     14  C   UNL d   1      56.245  -1.143  32.624  0.00  0.00     0.288 A 
ATOM     15  O   UNL d   1      56.105  -1.912  32.885  0.00  0.00    -0.265 OA
ATOM     16  C   UNL d   1      56.059  -0.497  33.042  0.00  0.00     0.101 A 
ATOM     17  S   UNL d   1      56.285   0.160  32.597  0.00  0.00    -0.041 SA
ENDBRANCH  11  12
ENDBRANCH  10  11
ENDBRANCH   1  10
TORSDOF 4
ENDMDL
MODEL 4
REMARK VINA RESULT:      -4.3      2.250      4.043
REMARK  4 active torsions:
REMARK  status: ('A' for Active; 'I' for Inactive)
REMARK    1  A    between atoms: N_7  and  C_2 
REMARK    2  A    between atoms: C_5  and  C_10 
REMARK    3  A    between atoms: N_6  and  N_7 
REMARK    4  A    between atoms: C_10  and  N_6 
ROOT
ATOM      1  C   UNL d   1      57.366  -0.258  31.021  0.00  0.00     0.125 C 
ENDROOT
BRANCH   1   2
ATOM      2  C   UNL d   1      57.085  -0.287  31.809  0.00  0.00     0.060 A 
ATOM      3  C   UNL d   1      57.443   0.182  32.393  0.00  0.00     0.197 A 
ATOM      4  C   UNL d   1      57.160   0.150  33.178  0.00  0.00     0.043 A 
ATOM      5  O   UNL d   1      58.072   0.682  32.219  0.00  0.00    -0.286 OA
ATOM      6  C   UNL d   1      56.536  -0.342  33.366  0.00  0.00     0.010 A 
ATOM      7  C   UNL d   1      56.186  -0.805  32.780  0.00  0.00     0.035 A 
ATOM      8  C   UNL d   1      56.448  -0.789  32.003  0.00  0.00     0.011 A 
ATOM      9 BR   UNL d   1      55.539  -1.317  32.968  0.00  0.00    -0.049 Br
ENDBRANCH   1   2
BRANCH   1  10
ATOM     10  N   UNL d   1      57.757  -0.916  30.667  0.00  0.00    -0.144 NA
BRANCH  10  11
ATOM     11  N   UNL d   1      58.011  -0.880  29.903  0.00  0.00    -0.121 NA
BRANCH  11  12
ATOM     12  C   UNL d   1      58.419  -1.521  29.573  0.00  0.00     0.217 A 
ATOM     13  N   UNL d   1      58.301  -2.314  29.610  0.00  0.00    -0.181 NA
ATOM     14  C   UNL d   1      58.874  -2.665  29.178  0.00  0.00     0.288 A 
ATOM     15  O   UNL d   1      58.962  -3.476  29.066  0.00  0.00    -0.265 OA
ATOM     16  C   UNL d   1      59.360  -2.124  28.863  0.00  0.00     0.101 A 
ATOM     17  S   UNL d   1      59.090  -1.381  29.101  0.00  0.00    -0.041 SA
ENDBRANCH  11  12
ENDBRANCH  10  11
ENDBRANCH   1  10
TORSDOF 4
ENDMDL
