MODEL 1
REMARK VINA RESULT:      -8.2      0.000      0.000
REMARK  6 active torsions:
REMARK  status: ('A' for Active; 'I' for Inactive)
REMARK    1  A    between atoms: N_4  and  C_3 
REMARK       I    between atoms: C_6  and  N_10 
REMARK    2  A    between atoms: C_21  and  C_6 
REMARK    3  A    between atoms: C_11  and  C_7 
REMARK    4  A    between atoms: C_9  and  O_12 
REMARK    5  A    between atoms: N_10  and  C_22 
REMARK    6  A    between atoms: O_12  and  C_21 
ROOT
ATOM      1  C   UNL d   1      51.688  34.345  53.274  0.00  0.00     0.019 A 
ATOM      2  C   UNL d   1      51.712  34.087  54.050  0.00  0.00     0.003 A 
ATOM      3  C   UNL d   1      52.393  34.473  52.864  0.00  0.00     0.003 A 
ATOM      4  C   UNL d   1      53.136  34.079  54.019  0.00  0.00     0.085 A 
ATOM      5  C   UNL d   1      53.117  34.340  53.236  0.00  0.00     0.019 A 
ATOM      6  C   UNL d   1      52.437  33.954  54.422  0.00  0.00     0.019 A 
ENDROOT
BRANCH   4   7
ATOM      7  N   UNL d   1      53.860  33.946  54.391  0.00  0.00    -0.206 NA
ATOM      8  C   UNL d   1      54.171  33.185  54.431  0.00  0.00     0.304 C 
ATOM      9  O   UNL d   1      54.898  33.052  54.805  0.00  0.00    -0.263 OA
BRANCH   8  10
ATOM     10  C   UNL d   1      53.756  32.554  54.097  0.00  0.00     0.185 C 
BRANCH  10  11
ATOM     11  O   UNL d   1      54.002  31.779  54.235  0.00  0.00    -0.299 OA
BRANCH  11  12
ATOM     12  C   UNL d   1      53.638  31.154  53.839  0.00  0.00     0.111 A 
ATOM     13  C   UNL d   1      53.327  30.520  54.266  0.00  0.00     0.081 A 
ATOM     14  C   UNL d   1      52.965  29.899  53.879  0.00  0.00     0.025 A 
ATOM     15 CL   UNL d   1      53.383  30.513  55.101  0.00  0.00    -0.080 Cl
ATOM     16  C   UNL d   1      52.911  29.907  53.055  0.00  0.00     0.059 A 
ATOM     17  C   UNL d   1      53.222  30.541  52.627  0.00  0.00     0.013 A 
ATOM     18 CL   UNL d   1      52.543  29.276  52.656  0.00  0.00    -0.082 Cl
ATOM     19  C   UNL d   1      53.586  31.166  53.024  0.00  0.00     0.026 A 
ENDBRANCH  11  12
ENDBRANCH  10  11
ENDBRANCH   8  10
ENDBRANCH   4   7
BRANCH   1  20
ATOM     20  C   UNL d   1      50.964  34.478  52.902  0.00  0.00     0.103 A 
ATOM     21  N   UNL d   1      50.398  34.954  53.260  0.00  0.00    -0.147 NA
ATOM     22  N   UNL d   1      49.674  35.088  52.888  0.00  0.00    -0.130 NA
ATOM     23  C   UNL d   1      49.516  34.744  52.157  0.00  0.00     0.170 A 
ATOM     24  C   UNL d   1      50.084  34.266  51.797  0.00  0.00     0.041 A 
ATOM     25  C   UNL d   1      50.808  34.132  52.169  0.00  0.00     0.024 A 
BRANCH  23  26
ATOM     26  N   UNL d   1      48.792  34.877  51.785  0.00  0.00    -0.284 N 
ATOM     27  C   UNL d   1      48.645  34.563  51.045  0.00  0.00     0.108 A 
ATOM     28  C   UNL d   1      47.921  34.696  50.673  0.00  0.00     0.142 A 
ATOM     29  O   UNL d   1      47.343  35.144  51.041  0.00  0.00    -0.300 OA
ATOM     30  C   UNL d   1      47.488  35.463  51.788  0.00  0.00     0.142 A 
ATOM     31  C   UNL d   1      48.213  35.330  52.160  0.00  0.00     0.108 A 
ENDBRANCH  23  26
ENDBRANCH   1  20
TORSDOF 6
ENDMDL
MODEL 2
REMARK VINA RESULT:      -6.5      2.772      6.399
REMARK  6 active torsions:
REMARK  status: ('A' for Active; 'I' for Inactive)
REMARK    1  A    between atoms: N_4  and  C_3 
REMARK       I    between atoms: C_6  and  N_10 
REMARK    2  A    between atoms: C_21  and  C_6 
REMARK    3  A    between atoms: C_11  and  C_7 
REMARK    4  A    between atoms: C_9  and  O_12 
REMARK    5  A    between atoms: N_10  and  C_22 
REMARK    6  A    between atoms: O_12  and  C_21 
ROOT
ATOM      1  C   UNL d   1      50.989  33.992  52.465  0.00  0.00     0.019 A 
ATOM      2  C   UNL d   1      50.265  33.664  52.659  0.00  0.00     0.003 A 
ATOM      3  C   UNL d   1      51.065  34.430  51.769  0.00  0.00     0.003 A 
ATOM      4  C   UNL d   1      49.685  34.200  51.474  0.00  0.00     0.085 A 
ATOM      5  C   UNL d   1      50.413  34.534  51.273  0.00  0.00     0.019 A 
ATOM      6  C   UNL d   1      49.614  33.768  52.164  0.00  0.00     0.019 A 
ENDROOT
BRANCH   4   7
ATOM      7  N   UNL d   1      49.034  34.304  50.979  0.00  0.00    -0.206 NA
ATOM      8  C   UNL d   1      48.425  34.811  51.199  0.00  0.00     0.304 C 
ATOM      9  O   UNL d   1      47.770  34.916  50.702  0.00  0.00    -0.263 OA
BRANCH   8  10
ATOM     10  C   UNL d   1      48.466  35.216  51.918  0.00  0.00     0.185 C 
BRANCH  10  11
ATOM     11  O   UNL d   1      48.003  35.888  52.040  0.00  0.00    -0.299 OA
BRANCH  11  12
ATOM     12  C   UNL d   1      47.769  36.093  52.804  0.00  0.00     0.111 A 
ATOM     13  C   UNL d   1      46.994  36.338  52.946  0.00  0.00     0.081 A 
ATOM     14  C   UNL d   1      46.757  36.542  53.700  0.00  0.00     0.025 A 
ATOM     15 CL   UNL d   1      46.448  36.378  52.314  0.00  0.00    -0.080 Cl
ATOM     16  C   UNL d   1      47.298  36.502  54.323  0.00  0.00     0.059 A 
ATOM     17  C   UNL d   1      48.072  36.257  54.182  0.00  0.00     0.013 A 
ATOM     18 CL   UNL d   1      47.060  36.709  55.093  0.00  0.00    -0.082 Cl
ATOM     19  C   UNL d   1      48.307  36.052  53.418  0.00  0.00     0.026 A 
ENDBRANCH  11  12
ENDBRANCH  10  11
ENDBRANCH   8  10
ENDBRANCH   4   7
BRANCH   1  20
ATOM     20  C   UNL d   1      51.640  33.888  52.960  0.00  0.00     0.103 A 
ATOM     21  N   UNL d   1      52.031  33.165  52.981  0.00  0.00    -0.147 NA
ATOM     22  N   UNL d   1      52.682  33.061  53.476  0.00  0.00    -0.130 NA
ATOM     23  C   UNL d   1      52.943  33.680  53.950  0.00  0.00     0.170 A 
ATOM     24  C   UNL d   1      52.552  34.407  53.930  0.00  0.00     0.041 A 
ATOM     25  C   UNL d   1      51.900  34.511  53.435  0.00  0.00     0.024 A 
BRANCH  23  26
ATOM     26  N   UNL d   1      53.595  33.576  54.445  0.00  0.00    -0.284 N 
ATOM     27  C   UNL d   1      53.771  32.836  54.745  0.00  0.00     0.108 A 
ATOM     28  C   UNL d   1      54.423  32.732  55.240  0.00  0.00     0.142 A 
ATOM     29  O   UNL d   1      54.898  33.368  55.436  0.00  0.00    -0.300 OA
ATOM     30  C   UNL d   1      54.723  34.117  55.135  0.00  0.00     0.142 A 
ATOM     31  C   UNL d   1      54.072  34.221  54.640  0.00  0.00     0.108 A 
ENDBRANCH  23  26
ENDBRANCH   1  20
TORSDOF 6
ENDMDL
MODEL 3
REMARK VINA RESULT:      -5.6      1.689      2.631
REMARK  6 active torsions:
REMARK  status: ('A' for Active; 'I' for Inactive)
REMARK    1  A    between atoms: N_4  and  C_3 
REMARK       I    between atoms: C_6  and  N_10 
REMARK    2  A    between atoms: C_21  and  C_6 
REMARK    3  A    between atoms: C_11  and  C_7 
REMARK    4  A    between atoms: C_9  and  O_12 
REMARK    5  A    between atoms: N_10  and  C_22 
REMARK    6  A    between atoms: O_12  and  C_21 
ROOT
ATOM      1  C   UNL d   1      51.042  33.226  52.777  0.00  0.00     0.019 A 
ATOM      2  C   UNL d   1      50.989  32.546  53.229  0.00  0.00     0.003 A 
ATOM      3  C   UNL d   1      51.684  33.329  52.268  0.00  0.00     0.003 A 
ATOM      4  C   UNL d   1      52.210  32.064  52.676  0.00  0.00     0.085 A 
ATOM      5  C   UNL d   1      52.268  32.748  52.218  0.00  0.00     0.019 A 
ATOM      6  C   UNL d   1      51.573  31.966  53.179  0.00  0.00     0.019 A 
ENDROOT
BRANCH   4   7
ATOM      7  N   UNL d   1      52.794  31.484  52.626  0.00  0.00    -0.206 NA
ATOM      8  C   UNL d   1      53.467  31.533  53.096  0.00  0.00     0.304 C 
ATOM      9  O   UNL d   1      54.054  30.950  53.045  0.00  0.00    -0.263 OA
BRANCH   8  10
ATOM     10  C   UNL d   1      53.558  32.166  53.619  0.00  0.00     0.185 C 
BRANCH  10  11
ATOM     11  O   UNL d   1      54.045  32.088  54.280  0.00  0.00    -0.299 OA
BRANCH  11  12
ATOM     12  C   UNL d   1      54.417  32.752  54.598  0.00  0.00     0.111 A 
ATOM     13  C   UNL d   1      54.385  32.894  55.410  0.00  0.00     0.081 A 
ATOM     14  C   UNL d   1      54.753  33.550  55.729  0.00  0.00     0.025 A 
ATOM     15 CL   UNL d   1      53.975  32.364  55.909  0.00  0.00    -0.080 Cl
ATOM     16  C   UNL d   1      55.158  34.073  55.235  0.00  0.00     0.059 A 
ATOM     17  C   UNL d   1      55.190  33.931  54.423  0.00  0.00     0.013 A 
ATOM     18 CL   UNL d   1      55.533  34.742  55.557  0.00  0.00    -0.082 Cl
ATOM     19  C   UNL d   1      54.817  33.267  54.105  0.00  0.00     0.026 A 
ENDBRANCH  11  12
ENDBRANCH  10  11
ENDBRANCH   8  10
ENDBRANCH   4   7
BRANCH   1  20
ATOM     20  C   UNL d   1      50.458  33.806  52.827  0.00  0.00     0.103 A 
ATOM     21  N   UNL d   1      50.358  34.231  53.524  0.00  0.00    -0.147 NA
ATOM     22  N   UNL d   1      49.775  34.812  53.574  0.00  0.00    -0.130 NA
ATOM     23  C   UNL d   1      49.291  34.968  52.928  0.00  0.00     0.170 A 
ATOM     24  C   UNL d   1      49.390  34.541  52.227  0.00  0.00     0.041 A 
ATOM     25  C   UNL d   1      49.974  33.961  52.177  0.00  0.00     0.024 A 
BRANCH  23  26
ATOM     26  N   UNL d   1      48.707  35.548  52.978  0.00  0.00    -0.284 N 
ATOM     27  C   UNL d   1      48.235  35.715  52.332  0.00  0.00     0.108 A 
ATOM     28  C   UNL d   1      47.651  36.295  52.382  0.00  0.00     0.142 A 
ATOM     29  O   UNL d   1      47.539  36.709  53.078  0.00  0.00    -0.300 OA
ATOM     30  C   UNL d   1      48.014  36.544  53.733  0.00  0.00     0.142 A 
ATOM     31  C   UNL d   1      48.598  35.963  53.683  0.00  0.00     0.108 A 
ENDBRANCH  23  26
ENDBRANCH   1  20
TORSDOF 6
ENDMDL
