MODEL 1
REMARK VINA RESULT:      20.4      0.000      0.000
REMARK  3 active torsions:
REMARK  status: ('A' for Active; 'I' for Inactive)
REMARK    1  A    between atoms: C_2  and  C_3 
REMARK    2  A    between atoms: C_5  and  C_2 
REMARK    3  A    between atoms: C_3  and  C_6 
ROOT
ATOM      1  N   UNL d   1      13.333  13.062  -3.317  0.00  0.00    -0.246 NA
ATOM      2  C   UNL d   1      13.147  13.422  -4.034  0.00  0.00     0.081 A 
ATOM      3  C   UNL d   1      13.321  12.224  -3.275  0.00  0.00     0.081 A 
ATOM      4  C   UNL d   1      12.951  12.957  -4.700  0.00  0.00     0.018 A 
ATOM      5  C   UNL d   1      12.947  12.146  -4.628  0.00  0.00     0.003 A 
ATOM      6  C   UNL d   1      13.134  11.782  -3.908  0.00  0.00     0.019 A 
ATOM      7  C   UNL d   1      13.155  14.249  -4.094  0.00  0.00     0.019 A 
ATOM      8  C   UNL d   1      12.769  13.333  -5.405  0.00  0.00     0.002 A 
ATOM      9  C   UNL d   1      12.964  14.593  -4.825  0.00  0.00     0.002 A 
ATOM     10  C   UNL d   1      12.778  14.151  -5.458  0.00  0.00     0.000 A 
ENDROOT
BRANCH   3  11
ATOM     11  C   UNL d   1      13.504  11.828  -2.563  0.00  0.00     0.019 C 
BRANCH  11  12
ATOM     12  C   UNL d   1      14.274  11.779  -2.295  0.00  0.00     0.005 C 
BRANCH  12  13
ATOM     13  C   UNL d   1      14.459  12.039  -1.534  0.00  0.00     0.039 A 
ATOM     14  C   UNL d   1      15.207  12.302  -1.364  0.00  0.00     0.196 A 
ATOM     15  O   UNL d   1      15.819  12.321  -1.952  0.00  0.00    -0.287 OA
ATOM     16  C   UNL d   1      15.393  12.562  -0.603  0.00  0.00     0.042 A 
ATOM     17  C   UNL d   1      14.802  12.549  -0.017  0.00  0.00     0.003 A 
ATOM     18  C   UNL d   1      14.077  12.294  -0.178  0.00  0.00     0.000 A 
ATOM     19  C   UNL d   1      13.891  12.035  -0.938  0.00  0.00     0.003 A 
ENDBRANCH  12  13
ENDBRANCH  11  12
ENDBRANCH   3  11
TORSDOF 3
ENDMDL
MODEL 2
REMARK VINA RESULT:      22.7      1.502      4.053
REMARK  3 active torsions:
REMARK  status: ('A' for Active; 'I' for Inactive)
REMARK    1  A    between atoms: C_2  and  C_3 
REMARK    2  A    between atoms: C_5  and  C_2 
REMARK    3  A    between atoms: C_3  and  C_6 
ROOT
ATOM      1  N   UNL d   1      14.428  13.530  -1.935  0.00  0.00    -0.246 NA
ATOM      2  C   UNL d   1      14.847  13.832  -1.293  0.00  0.00     0.081 A 
ATOM      3  C   UNL d   1      14.383  12.698  -2.028  0.00  0.00     0.081 A 
ATOM      4  C   UNL d   1      15.216  13.314  -0.751  0.00  0.00     0.018 A 
ATOM      5  C   UNL d   1      15.155  12.510  -0.869  0.00  0.00     0.003 A 
ATOM      6  C   UNL d   1      14.733  12.205  -1.513  0.00  0.00     0.019 A 
ATOM      7  C   UNL d   1      14.902  14.652  -1.185  0.00  0.00     0.019 A 
ATOM      8  C   UNL d   1      15.629  13.632  -0.119  0.00  0.00     0.002 A 
ATOM      9  C   UNL d   1      15.329  14.936  -0.532  0.00  0.00     0.002 A 
ATOM     10  C   UNL d   1      15.680  14.444  -0.017  0.00  0.00     0.000 A 
ENDROOT
BRANCH   3  11
ATOM     11  C   UNL d   1      13.966  12.361  -2.668  0.00  0.00     0.019 C 
BRANCH  11  12
ATOM     12  C   UNL d   1      13.409  12.791  -3.082  0.00  0.00     0.005 C 
BRANCH  12  13
ATOM     13  C   UNL d   1      13.305  12.656  -3.889  0.00  0.00     0.039 A 
ATOM     14  C   UNL d   1      13.010  13.243  -4.366  0.00  0.00     0.196 A 
ATOM     15  O   UNL d   1      12.801  14.006  -4.058  0.00  0.00    -0.287 OA
ATOM     16  C   UNL d   1      12.906  13.109  -5.173  0.00  0.00     0.042 A 
ATOM     17  C   UNL d   1      13.107  12.365  -5.487  0.00  0.00     0.003 A 
ATOM     18  C   UNL d   1      13.392  11.795  -5.029  0.00  0.00     0.000 A 
ATOM     19  C   UNL d   1      13.497  11.929  -4.222  0.00  0.00     0.003 A 
ENDBRANCH  12  13
ENDBRANCH  11  12
ENDBRANCH   3  11
TORSDOF 3
ENDMDL
