MODEL 1
REMARK VINA RESULT:      71.3      0.000      0.000
REMARK  5 active torsions:
REMARK  status: ('A' for Active; 'I' for Inactive)
REMARK    1  A    between atoms: C_12  and  C_4 
REMARK    2  A    between atoms: N_10  and  C_5 
REMARK    3  A    between atoms: C_11  and  C_8 
REMARK    4  A    between atoms: C_14  and  N_10 
REMARK    5  A    between atoms: C_15  and  C_14 
ROOT
ATOM      1  C   UNL d   1     -50.874  25.905  33.542  0.00  0.00     0.167 A 
ATOM      2  N   UNL d   1     -50.274  26.485  33.622  0.00  0.00    -0.195 N 
ATOM      3  N   UNL d   1     -51.654  26.135  33.465  0.00  0.00    -0.231 NA
ATOM      4  C   UNL d   1     -50.681  25.120  33.541  0.00  0.00     0.057 A 
ATOM      5  C   UNL d   1     -50.489  27.262  33.620  0.00  0.00     0.167 A 
ATOM      6  N   UNL d   1     -49.317  25.467  33.696  0.00  0.00    -0.161 NA
ATOM      7  C   UNL d   1     -51.269  27.504  33.544  0.00  0.00     0.054 A 
ATOM      8  C   UNL d   1     -51.859  26.933  33.465  0.00  0.00     0.063 A 
ATOM      9  C   UNL d   1     -49.907  24.896  33.618  0.00  0.00     0.124 A 
ENDROOT
BRANCH   5  10
ATOM     10  N   UNL d   1     -49.880  27.852  33.701  0.00  0.00    -0.224 NA
BRANCH  10  11
ATOM     11  C   UNL d   1     -49.040  27.948  33.679  0.00  0.00     0.120 C 
BRANCH  11  12
ATOM     12  C   UNL d   1     -48.651  28.494  34.194  0.00  0.00     0.101 A 
ATOM     13  N   UNL d   1     -47.964  28.250  34.633  0.00  0.00    -0.242 NA
ATOM     14  C   UNL d   1     -47.578  28.804  35.149  0.00  0.00     0.099 A 
ATOM     15  C   UNL d   1     -47.878  29.599  35.225  0.00  0.00     0.021 A 
ATOM     16  C   UNL d   1     -48.571  29.834  34.777  0.00  0.00     0.003 A 
ATOM     17  C   UNL d   1     -48.951  29.283  34.268  0.00  0.00     0.021 A 
ENDBRANCH  11  12
ENDBRANCH  10  11
ENDBRANCH   5  10
BRANCH   8  18
ATOM     18  C   UNL d   1     -52.675  27.169  33.385  0.00  0.00     0.036 C 
ATOM     19  C   UNL d   1     -53.482  27.397  33.306  0.00  0.00     0.006 C 
ATOM     20  C   UNL d   1     -52.872  27.995  33.341  0.00  0.00     0.006 C 
ATOM     21  C   UNL d   1     -53.288  26.574  33.349  0.00  0.00     0.006 C 
ENDBRANCH   8  18
BRANCH   4  22
ATOM     22  C   UNL d   1     -51.271  24.548  33.463  0.00  0.00     0.004 A 
ATOM     23  C   UNL d   1     -52.038  24.780  33.410  0.00  0.00     0.000 A 
ATOM     24  C   UNL d   1     -52.628  24.209  33.332  0.00  0.00     0.000 A 
ATOM     25  C   UNL d   1     -52.433  23.424  33.308  0.00  0.00     0.000 A 
ATOM     26  C   UNL d   1     -51.652  23.196  33.362  0.00  0.00     0.000 A 
ATOM     27  C   UNL d   1     -51.061  23.767  33.441  0.00  0.00     0.000 A 
ENDBRANCH   4  22
TORSDOF 5
ENDMDL
