MODEL 1
REMARK VINA RESULT:      -6.5      0.000      0.000
REMARK  5 active torsions:
REMARK  status: ('A' for Active; 'I' for Inactive)
REMARK    1  A    between atoms: C_4  and  S_1 
REMARK    2  A    between atoms: C_12  and  S_1 
REMARK    3  A    between atoms: C_3  and  C_6 
REMARK       I    between atoms: N_8  and  C_3 
REMARK    4  A    between atoms: C_6  and  C_4 
REMARK    5  A    between atoms: C_14  and  N_8 
ROOT
ATOM      1  C   UNL d   1     -41.551-122.989 -51.918  0.00  0.00     0.280 C 
ATOM      2  N   UNL d   1     -41.366-122.363 -52.428  0.00  0.00    -0.208 NA
ATOM      3  O   UNL d   1     -41.883-123.687 -52.233  0.00  0.00    -0.265 OA
ENDROOT
BRANCH   1   4
ATOM      4  C   UNL d   1     -41.414-122.930 -51.118  0.00  0.00     0.075 C 
BRANCH   4   5
ATOM      5  C   UNL d   1     -41.935-123.149 -50.636  0.00  0.00     0.104 C 
BRANCH   5   6
ATOM      6  S   UNL d   1     -41.910-123.152 -49.800  0.00  0.00     0.211 S 
ATOM      7  O   UNL d   1     -42.549-122.620 -49.771  0.00  0.00    -0.217 OA
ATOM      8  O   UNL d   1     -41.261-123.692 -49.833  0.00  0.00    -0.217 OA
BRANCH   6   9
ATOM      9  C   UNL d   1     -41.879-123.160 -48.973  0.00  0.00     0.088 A 
ATOM     10  C   UNL d   1     -41.162-123.287 -48.586  0.00  0.00     0.011 A 
ATOM     11  C   UNL d   1     -41.129-123.296 -47.757  0.00  0.00     0.001 A 
ATOM     12  C   UNL d   1     -41.818-123.176 -47.322  0.00  0.00     0.000 A 
ATOM     13  C   UNL d   1     -42.542-123.047 -47.699  0.00  0.00     0.001 A 
ATOM     14  C   UNL d   1     -42.572-123.040 -48.530  0.00  0.00     0.011 A 
ENDBRANCH   6   9
ENDBRANCH   5   6
ENDBRANCH   4   5
ENDBRANCH   1   4
BRANCH   2  15
ATOM     15  C   UNL d   1     -41.508-122.429 -53.240  0.00  0.00     0.087 A 
ATOM     16  C   UNL d   1     -42.039-121.914 -53.600  0.00  0.00     0.045 A 
ATOM     17  C   UNL d   1     -42.181-121.979 -54.406  0.00  0.00     0.121 A 
ATOM     18  O   UNL d   1     -42.678-121.545 -54.913  0.00  0.00    -0.299 OA
ATOM     19  C   UNL d   1     -41.789-122.559 -54.846  0.00  0.00     0.119 A 
ATOM     20  C   UNL d   1     -42.579-121.875 -55.666  0.00  0.00     0.304 A 
ATOM     21  O   UNL d   1     -42.045-122.484 -55.629  0.00  0.00    -0.300 OA
ATOM     22  C   UNL d   1     -41.263-123.069 -54.487  0.00  0.00     0.028 A 
ATOM     23  C   UNL d   1     -41.123-123.003 -53.684  0.00  0.00     0.021 A 
ENDBRANCH   2  15
TORSDOF 5
ENDMDL
MODEL 2
REMARK VINA RESULT:      -6.4      1.339      5.472
REMARK  5 active torsions:
REMARK  status: ('A' for Active; 'I' for Inactive)
REMARK    1  A    between atoms: C_4  and  S_1 
REMARK    2  A    between atoms: C_12  and  S_1 
REMARK    3  A    between atoms: C_3  and  C_6 
REMARK       I    between atoms: N_8  and  C_3 
REMARK    4  A    between atoms: C_6  and  C_4 
REMARK    5  A    between atoms: C_14  and  N_8 
ROOT
ATOM      1  C   UNL d   1     -41.589-122.756 -51.062  0.00  0.00     0.280 C 
ATOM      2  N   UNL d   1     -42.156-122.455 -50.537  0.00  0.00    -0.208 NA
ATOM      3  O   UNL d   1     -41.150-123.432 -50.844  0.00  0.00    -0.265 OA
ENDROOT
BRANCH   1   4
ATOM      4  C   UNL d   1     -41.457-122.401 -51.781  0.00  0.00     0.075 C 
BRANCH   4   5
ATOM      5  C   UNL d   1     -41.367-122.819 -52.389  0.00  0.00     0.104 C 
BRANCH   5   6
ATOM      6  S   UNL d   1     -41.519-122.624 -53.189  0.00  0.00     0.211 S 
ATOM      7  O   UNL d   1     -41.284-121.838 -53.050  0.00  0.00    -0.217 OA
ATOM      8  O   UNL d   1     -41.757-123.423 -53.327  0.00  0.00    -0.217 OA
BRANCH   6   9
ATOM      9  C   UNL d   1     -41.671-122.438 -53.980  0.00  0.00     0.088 A 
ATOM     10  C   UNL d   1     -41.190-122.741 -54.577  0.00  0.00     0.011 A 
ATOM     11  C   UNL d   1     -41.341-122.556 -55.372  0.00  0.00     0.001 A 
ATOM     12  C   UNL d   1     -41.976-122.067 -55.561  0.00  0.00     0.000 A 
ATOM     13  C   UNL d   1     -42.465-121.758 -54.972  0.00  0.00     0.001 A 
ATOM     14  C   UNL d   1     -42.311-121.946 -54.177  0.00  0.00     0.011 A 
ENDBRANCH   6   9
ENDBRANCH   5   6
ENDBRANCH   4   5
ENDBRANCH   1   4
BRANCH   2  15
ATOM     15  C   UNL d   1     -42.286-122.821 -49.807  0.00  0.00     0.087 A 
ATOM     16  C   UNL d   1     -41.768-122.675 -49.185  0.00  0.00     0.045 A 
ATOM     17  C   UNL d   1     -41.896-123.037 -48.460  0.00  0.00     0.121 A 
ATOM     18  O   UNL d   1     -41.474-122.997 -47.743  0.00  0.00    -0.299 OA
ATOM     19  C   UNL d   1     -42.542-123.543 -48.362  0.00  0.00     0.119 A 
ATOM     20  C   UNL d   1     -41.878-123.488 -47.213  0.00  0.00     0.304 A 
ATOM     21  O   UNL d   1     -42.521-123.817 -47.581  0.00  0.00    -0.300 OA
ATOM     22  C   UNL d   1     -43.056-123.686 -48.980  0.00  0.00     0.028 A 
ATOM     23  C   UNL d   1     -42.927-123.325 -49.702  0.00  0.00     0.021 A 
ENDBRANCH   2  15
TORSDOF 5
ENDMDL
MODEL 3
REMARK VINA RESULT:      -5.9      1.338      5.502
REMARK  5 active torsions:
REMARK  status: ('A' for Active; 'I' for Inactive)
REMARK    1  A    between atoms: C_4  and  S_1 
REMARK    2  A    between atoms: C_12  and  S_1 
REMARK    3  A    between atoms: C_3  and  C_6 
REMARK       I    between atoms: N_8  and  C_3 
REMARK    4  A    between atoms: C_6  and  C_4 
REMARK    5  A    between atoms: C_14  and  N_8 
ROOT
ATOM      1  C   UNL d   1     -41.568-122.609 -51.594  0.00  0.00     0.280 C 
ATOM      2  N   UNL d   1     -41.935-122.265 -50.935  0.00  0.00    -0.208 NA
ATOM      3  O   UNL d   1     -41.156-123.329 -51.502  0.00  0.00    -0.265 OA
ENDROOT
BRANCH   1   4
ATOM      4  C   UNL d   1     -41.605-122.254 -52.324  0.00  0.00     0.075 C 
BRANCH   4   5
ATOM      5  C   UNL d   1     -41.518-122.662 -52.939  0.00  0.00     0.104 C 
BRANCH   5   6
ATOM      6  S   UNL d   1     -41.715-122.471 -53.730  0.00  0.00     0.211 S 
ATOM      7  O   UNL d   1     -41.442-121.693 -53.617  0.00  0.00    -0.217 OA
ATOM      8  O   UNL d   1     -41.991-123.261 -53.841  0.00  0.00    -0.217 OA
BRANCH   6   9
ATOM      9  C   UNL d   1     -41.912-122.288 -54.512  0.00  0.00     0.088 A 
ATOM     10  C   UNL d   1     -42.701-122.187 -54.728  0.00  0.00     0.011 A 
ATOM     11  C   UNL d   1     -42.900-122.004 -55.513  0.00  0.00     0.001 A 
ATOM     12  C   UNL d   1     -42.304-121.924 -56.075  0.00  0.00     0.000 A 
ATOM     13  C   UNL d   1     -41.510-122.024 -55.871  0.00  0.00     0.001 A 
ATOM     14  C   UNL d   1     -41.314-122.207 -55.083  0.00  0.00     0.011 A 
ENDBRANCH   6   9
ENDBRANCH   5   6
ENDBRANCH   4   5
ENDBRANCH   1   4
BRANCH   2  15
ATOM     15  C   UNL d   1     -41.893-122.631 -50.194  0.00  0.00     0.087 A 
ATOM     16  C   UNL d   1     -42.588-122.841 -49.809  0.00  0.00     0.045 A 
ATOM     17  C   UNL d   1     -42.548-123.205 -49.074  0.00  0.00     0.121 A 
ATOM     18  O   UNL d   1     -43.146-123.475 -48.561  0.00  0.00    -0.299 OA
ATOM     19  C   UNL d   1     -41.812-123.355 -48.730  0.00  0.00     0.119 A 
ATOM     20  C   UNL d   1     -42.755-123.791 -47.903  0.00  0.00     0.304 A 
ATOM     21  O   UNL d   1     -41.953-123.720 -48.001  0.00  0.00    -0.300 OA
ATOM     22  C   UNL d   1     -41.123-123.145 -49.114  0.00  0.00     0.028 A 
ATOM     23  C   UNL d   1     -41.164-122.783 -49.846  0.00  0.00     0.021 A 
ENDBRANCH   2  15
TORSDOF 5
ENDMDL
