MODEL 1
REMARK VINA RESULT:      47.9      0.000      0.000
REMARK  5 active torsions:
REMARK  status: ('A' for Active; 'I' for Inactive)
REMARK    1  A    between atoms: N_15  and  C_6 
REMARK    2  A    between atoms: N_14  and  C_18 
REMARK    3  A    between atoms: C_24  and  N_15 
REMARK    4  A    between atoms: C_18  and  C_19 
REMARK    5  A    between atoms: C_19  and  C_24 
ROOT
ATOM      1  N   UNL d   1     -51.025  25.750  33.308  0.00  0.00    -0.183 N 
ATOM      2  C   UNL d   1     -51.098  24.928  33.307  0.00  0.00     0.169 A 
ATOM      3  C   UNL d   1     -51.831  24.577  33.307  0.00  0.00     0.073 A 
ATOM      4  C   UNL d   1     -52.492  25.052  33.307  0.00  0.00     0.185 A 
ATOM      5  N   UNL d   1     -52.419  25.874  33.308  0.00  0.00    -0.142 NA
ATOM      6  C   UNL d   1     -50.284  26.083  33.308  0.00  0.00     0.218 A 
ATOM      7  N   UNL d   1     -50.428  24.461  33.307  0.00  0.00    -0.226 NA
ATOM      8  C   UNL d   1     -51.903  23.764  33.306  0.00  0.00     0.007 A 
ATOM      9  N   UNL d   1     -53.242  24.711  33.307  0.00  0.00    -0.225 NA
ATOM     10  C   UNL d   1     -49.618  25.625  33.308  0.00  0.00     0.071 A 
ATOM     11  C   UNL d   1     -52.637  23.412  33.306  0.00  0.00     0.019 A 
ATOM     12  C   UNL d   1     -49.691  24.804  33.308  0.00  0.00     0.087 A 
ATOM     13  C   UNL d   1     -53.315  23.889  33.306  0.00  0.00     0.083 A 
ATOM     14  C   UNL d   1     -51.230  23.297  33.306  0.00  0.00     0.000 C 
ATOM     15  C   UNL d   1     -48.993  24.321  33.308  0.00  0.00     0.021 C 
ATOM     16  C   UNL d   1     -54.048  23.546  33.306  0.00  0.00     0.021 C 
ENDROOT
BRANCH   6  17
ATOM     17  N   UNL d   1     -50.218  26.932  33.309  0.00  0.00    -0.380 NA
BRANCH  17  18
ATOM     18  C   UNL d   1     -50.243  27.771  33.370  0.00  0.00     0.164 C 
BRANCH  18  19
ATOM     19  C   UNL d   1     -49.890  28.152  34.031  0.00  0.00     0.054 C 
BRANCH  19  20
ATOM     20  C   UNL d   1     -49.201  27.799  34.404  0.00  0.00     0.083 C 
BRANCH  20  21
ATOM     21  N   UNL d   1     -48.745  28.241  34.964  0.00  0.00    -0.299 N 
ATOM     22  C   UNL d   1     -48.986  28.259  35.784  0.00  0.00     0.107 A 
ATOM     23  C   UNL d   1     -48.534  28.700  36.352  0.00  0.00     0.142 A 
ATOM     24  O   UNL d   1     -47.840  29.123  36.101  0.00  0.00    -0.300 OA
ATOM     25  C   UNL d   1     -47.603  29.105  35.291  0.00  0.00     0.142 A 
ATOM     26  C   UNL d   1     -48.055  28.664  34.722  0.00  0.00     0.107 A 
ENDBRANCH  20  21
ENDBRANCH  19  20
ENDBRANCH  18  19
ENDBRANCH  17  18
ENDBRANCH   6  17
TORSDOF 5
ENDMDL
