MODEL 1
REMARK VINA RESULT:       3.1      0.000      0.000
REMARK  4 active torsions:
REMARK  status: ('A' for Active; 'I' for Inactive)
REMARK    1  A    between atoms: C_7  and  N_1 
REMARK    2  A    between atoms: C_10  and  C_5 
REMARK    3  A    between atoms: N_6  and  C_9 
REMARK    4  A    between atoms: O_18  and  C_13 
ROOT
ATOM      1  N   UNL d   1     -41.588-122.475 -53.771  0.00  0.00    -0.279 N 
ATOM      2  C   UNL d   1     -41.299-123.248 -53.796  0.00  0.00     0.206 A 
ATOM      3  N   UNL d   1     -41.220-123.501 -53.035  0.00  0.00    -0.217 NA
ATOM      4  C   UNL d   1     -41.679-122.271 -52.983  0.00  0.00     0.101 A 
ATOM      5  C   UNL d   1     -41.450-122.910 -52.552  0.00  0.00     0.101 A 
ATOM      6  S   UNL d   1     -41.123-123.682 -54.499  0.00  0.00    -0.038 SA
ENDROOT
BRANCH   5   7
ATOM      7  C   UNL d   1     -41.477-122.881 -51.738  0.00  0.00     0.019 A 
ATOM      8  C   UNL d   1     -41.153-122.355 -51.202  0.00  0.00     0.003 A 
ATOM      9  C   UNL d   1     -41.271-122.460 -50.378  0.00  0.00     0.024 A 
ATOM     10  C   UNL d   1     -41.712-123.091 -50.108  0.00  0.00     0.127 A 
ATOM     11  C   UNL d   1     -42.043-123.628 -50.661  0.00  0.00     0.024 A 
ATOM     12  C   UNL d   1     -41.918-123.512 -51.469  0.00  0.00     0.003 A 
BRANCH  10  13
ATOM     13  N   UNL d   1     -41.829-123.196 -49.297  0.00  0.00    -0.114 N 
ATOM     14  O   UNL d   1     -42.440-123.665 -49.028  0.00  0.00    -0.532 OA
ATOM     15  O   UNL d   1     -41.324-122.823 -48.757  0.00  0.00    -0.532 OA
ENDBRANCH  10  13
ENDBRANCH   5   7
BRANCH   1  16
ATOM     16  C   UNL d   1     -41.735-122.044 -54.474  0.00  0.00     0.088 A 
ATOM     17  C   UNL d   1     -42.070-121.290 -54.443  0.00  0.00     0.110 A 
ATOM     18  C   UNL d   1     -42.209-120.881 -55.124  0.00  0.00     0.026 A 
ATOM     19  C   UNL d   1     -42.019-121.205 -55.867  0.00  0.00     0.002 A 
ATOM     20  C   UNL d   1     -41.682-121.959 -55.914  0.00  0.00     0.002 A 
ATOM     21  C   UNL d   1     -41.542-122.379 -55.196  0.00  0.00     0.020 A 
BRANCH  17  22
ATOM     22  O   UNL d   1     -42.262-120.966 -53.671  0.00  0.00    -0.327 OA
ATOM     23  C   UNL d   1     -43.019-120.620 -53.567  0.00  0.00     0.181 C 
ENDBRANCH  17  22
ENDBRANCH   1  16
TORSDOF 4
ENDMDL
