MODEL 1
REMARK VINA RESULT:      -3.4      0.000      0.000
REMARK  5 active torsions:
REMARK  status: ('A' for Active; 'I' for Inactive)
REMARK    1  A    between atoms: O_8  and  C_2 
REMARK    2  A    between atoms: C_11  and  C_5 
REMARK    3  A    between atoms: C_15  and  O_8 
REMARK    4  A    between atoms: N_14  and  C_11 
REMARK    5  A    between atoms: O_23  and  C_16 
ROOT
ATOM      1  C   UNL d   1      31.126  16.976 -24.333  0.00  0.00     0.108 A 
ATOM      2  C   UNL d   1      32.538  17.795 -24.024  0.00  0.00     0.161 A 
ATOM      3  C   UNL d   1      31.648  16.702 -23.739  0.00  0.00     0.064 A 
ATOM      4  C   UNL d   1      32.347  17.106 -23.586  0.00  0.00     0.222 A 
ATOM      5  C   UNL d   1      30.419  16.567 -24.488  0.00  0.00     0.079 A 
ATOM      6  O   UNL d   1      31.306  17.656 -24.772  0.00  0.00    -0.305 OA
ATOM      7  C   UNL d   1      32.021  18.067 -24.612  0.00  0.00     0.126 A 
ATOM      8  C   UNL d   1      31.449  16.017 -23.310  0.00  0.00     0.009 A 
ATOM      9  C   UNL d   1      30.237  15.888 -24.053  0.00  0.00     0.199 A 
ATOM     10  O   UNL d   1      32.864  16.839 -23.001  0.00  0.00    -0.284 OA
ATOM     11  C   UNL d   1      30.749  15.614 -23.466  0.00  0.00     0.042 A 
ATOM     12  O   UNL d   1      29.530  15.487 -24.215  0.00  0.00    -0.286 OA
ATOM     13  C   UNL d   1      32.208  18.743 -25.042  0.00  0.00     0.029 C 
ENDROOT
BRANCH   2  14
ATOM     14  O   UNL d   1      33.238  18.198 -23.868  0.00  0.00    -0.302 OA
BRANCH  14  15
ATOM     15  C   UNL d   1      33.239  18.832 -23.342  0.00  0.00     0.100 A 
ATOM     16  C   UNL d   1      33.240  18.688 -22.530  0.00  0.00     0.027 A 
ATOM     17  C   UNL d   1      33.241  19.314 -22.004  0.00  0.00     0.026 A 
ATOM     18  C   UNL d   1      33.240  20.098 -22.290  0.00  0.00     0.094 A 
ATOM     19  C   UNL d   1      33.239  20.236 -23.103  0.00  0.00     0.026 A 
ATOM     20  C   UNL d   1      33.238  19.603 -23.629  0.00  0.00     0.027 A 
BRANCH  18  21
ATOM     21  O   UNL d   1      33.241  20.730 -21.763  0.00  0.00    -0.328 OA
ATOM     22  C   UNL d   1      32.619  20.820 -21.228  0.00  0.00     0.181 C 
ENDBRANCH  18  21
ENDBRANCH  14  15
ENDBRANCH   2  14
BRANCH   5  23
ATOM     23  C   UNL d   1      29.907  16.840 -25.075  0.00  0.00     0.086 C 
BRANCH  23  24
ATOM     24  N   UNL d   1      29.144  17.058 -24.874  0.00  0.00    -0.300 N 
ATOM     25  C   UNL d   1      28.520  16.534 -24.999  0.00  0.00     0.100 C 
ATOM     26  C   UNL d   1      28.993  17.803 -24.547  0.00  0.00     0.100 C 
ENDBRANCH  23  24
ENDBRANCH   5  23
TORSDOF 5
ENDMDL
MODEL 2
REMARK VINA RESULT:      -3.0      1.718      5.008
REMARK  5 active torsions:
REMARK  status: ('A' for Active; 'I' for Inactive)
REMARK    1  A    between atoms: O_8  and  C_2 
REMARK    2  A    between atoms: C_11  and  C_5 
REMARK    3  A    between atoms: C_15  and  O_8 
REMARK    4  A    between atoms: N_14  and  C_11 
REMARK    5  A    between atoms: O_23  and  C_16 
ROOT
ATOM      1  C   UNL d   1      33.235  20.537 -22.454  0.00  0.00     0.108 A 
ATOM      2  C   UNL d   1      33.239  19.166 -23.393  0.00  0.00     0.161 A 
ATOM      3  C   UNL d   1      33.236  20.601 -23.289  0.00  0.00     0.064 A 
ATOM      4  C   UNL d   1      33.238  19.923 -23.754  0.00  0.00     0.222 A 
ATOM      5  C   UNL d   1      33.233  21.222 -21.984  0.00  0.00     0.079 A 
ATOM      6  O   UNL d   1      33.235  19.793 -22.088  0.00  0.00    -0.305 OA
ATOM      7  C   UNL d   1      33.237  19.103 -22.566  0.00  0.00     0.126 A 
ATOM      8  C   UNL d   1      33.236  21.356 -23.638  0.00  0.00     0.009 A 
ATOM      9  C   UNL d   1      33.232  21.966 -22.346  0.00  0.00     0.199 A 
ATOM     10  O   UNL d   1      33.239  19.982 -24.577  0.00  0.00    -0.284 OA
ATOM     11  C   UNL d   1      33.234  22.033 -23.169  0.00  0.00     0.042 A 
ATOM     12  O   UNL d   1      33.230  22.643 -21.869  0.00  0.00    -0.286 OA
ATOM     13  C   UNL d   1      33.238  18.360 -22.212  0.00  0.00     0.029 C 
ENDROOT
BRANCH   2  14
ATOM     14  O   UNL d   1      33.241  18.490 -23.861  0.00  0.00    -0.302 OA
BRANCH  14  15
ATOM     15  C   UNL d   1      32.528  18.150 -24.095  0.00  0.00     0.100 A 
ATOM     16  C   UNL d   1      32.157  18.412 -24.783  0.00  0.00     0.027 A 
ATOM     17  C   UNL d   1      31.450  18.078 -25.019  0.00  0.00     0.026 A 
ATOM     18  C   UNL d   1      31.103  17.472 -24.563  0.00  0.00     0.094 A 
ATOM     19  C   UNL d   1      31.477  17.213 -23.875  0.00  0.00     0.026 A 
ATOM     20  C   UNL d   1      32.190  17.552 -23.641  0.00  0.00     0.027 A 
BRANCH  18  21
ATOM     21  O   UNL d   1      30.390  17.133 -24.798  0.00  0.00    -0.328 OA
ATOM     22  C   UNL d   1      29.716  17.230 -24.332  0.00  0.00     0.181 C 
ENDBRANCH  18  21
ENDBRANCH  14  15
ENDBRANCH   2  14
BRANCH   5  23
ATOM     23  C   UNL d   1      33.231  21.156 -21.162  0.00  0.00     0.086 C 
BRANCH  23  24
ATOM     24  N   UNL d   1      32.695  21.591 -20.722  0.00  0.00    -0.300 N 
ATOM     25  C   UNL d   1      32.953  22.243 -20.287  0.00  0.00     0.100 C 
ATOM     26  C   UNL d   1      31.894  21.382 -20.710  0.00  0.00     0.100 C 
ENDBRANCH  23  24
ENDBRANCH   5  23
TORSDOF 5
ENDMDL
MODEL 3
REMARK VINA RESULT:      -1.3      1.541      4.710
REMARK  5 active torsions:
REMARK  status: ('A' for Active; 'I' for Inactive)
REMARK    1  A    between atoms: O_8  and  C_2 
REMARK    2  A    between atoms: C_11  and  C_5 
REMARK    3  A    between atoms: C_15  and  O_8 
REMARK    4  A    between atoms: N_14  and  C_11 
REMARK    5  A    between atoms: O_23  and  C_16 
ROOT
ATOM      1  C   UNL d   1      33.109  19.652 -22.987  0.00  0.00     0.108 A 
ATOM      2  C   UNL d   1      32.988  18.178 -23.743  0.00  0.00     0.161 A 
ATOM      3  C   UNL d   1      33.053  19.612 -23.821  0.00  0.00     0.064 A 
ATOM      4  C   UNL d   1      32.994  18.883 -24.196  0.00  0.00     0.222 A 
ATOM      5  C   UNL d   1      33.169  20.390 -22.609  0.00  0.00     0.079 A 
ATOM      6  O   UNL d   1      33.105  18.960 -22.530  0.00  0.00    -0.305 OA
ATOM      7  C   UNL d   1      33.044  18.218 -22.917  0.00  0.00     0.126 A 
ATOM      8  C   UNL d   1      33.059  20.318 -24.262  0.00  0.00     0.009 A 
ATOM      9  C   UNL d   1      33.173  21.082 -23.061  0.00  0.00     0.199 A 
ATOM     10  O   UNL d   1      32.938  18.840 -25.018  0.00  0.00    -0.284 OA
ATOM     11  C   UNL d   1      33.119  21.047 -23.884  0.00  0.00     0.042 A 
ATOM     12  O   UNL d   1      33.234  21.812 -22.674  0.00  0.00    -0.286 OA
ATOM     13  C   UNL d   1      33.039  17.525 -22.472  0.00  0.00     0.029 C 
ENDROOT
BRANCH   2  14
ATOM     14  O   UNL d   1      32.929  17.450 -24.121  0.00  0.00    -0.302 OA
BRANCH  14  15
ATOM     15  C   UNL d   1      32.188  17.115 -24.254  0.00  0.00     0.100 A 
ATOM     16  C   UNL d   1      31.790  17.271 -24.960  0.00  0.00     0.027 A 
ATOM     17  C   UNL d   1      31.055  16.941 -25.096  0.00  0.00     0.026 A 
ATOM     18  C   UNL d   1      30.707  16.448 -24.521  0.00  0.00     0.094 A 
ATOM     19  C   UNL d   1      31.108  16.295 -23.816  0.00  0.00     0.026 A 
ATOM     20  C   UNL d   1      31.849  16.629 -23.683  0.00  0.00     0.027 A 
BRANCH  18  21
ATOM     21  O   UNL d   1      29.966  16.114 -24.655  0.00  0.00    -0.328 OA
ATOM     22  C   UNL d   1      29.294  16.593 -24.654  0.00  0.00     0.181 C 
ENDBRANCH  18  21
ENDBRANCH  14  15
ENDBRANCH   2  14
BRANCH   5  23
ATOM     23  C   UNL d   1      33.224  20.425 -21.786  0.00  0.00     0.086 C 
BRANCH  23  24
ATOM     24  N   UNL d   1      32.883  21.053 -21.385  0.00  0.00    -0.300 N 
ATOM     25  C   UNL d   1      32.242  20.921 -20.884  0.00  0.00     0.100 C 
ATOM     26  C   UNL d   1      33.178  21.820 -21.479  0.00  0.00     0.100 C 
ENDBRANCH  23  24
ENDBRANCH   5  23
TORSDOF 5
ENDMDL
MODEL 4
REMARK VINA RESULT:      -1.1      1.509      4.478
REMARK  5 active torsions:
REMARK  status: ('A' for Active; 'I' for Inactive)
REMARK    1  A    between atoms: O_8  and  C_2 
REMARK    2  A    between atoms: C_11  and  C_5 
REMARK    3  A    between atoms: C_15  and  O_8 
REMARK    4  A    between atoms: N_14  and  C_11 
REMARK    5  A    between atoms: O_23  and  C_16 
ROOT
ATOM      1  C   UNL d   1      32.363  17.716 -23.791  0.00  0.00     0.108 A 
ATOM      2  C   UNL d   1      31.542  16.272 -23.789  0.00  0.00     0.161 A 
ATOM      3  C   UNL d   1      31.887  17.503 -24.446  0.00  0.00     0.064 A 
ATOM      4  C   UNL d   1      31.481  16.789 -24.446  0.00  0.00     0.222 A 
ATOM      5  C   UNL d   1      32.773  18.438 -23.792  0.00  0.00     0.079 A 
ATOM      6  O   UNL d   1      32.429  17.211 -23.137  0.00  0.00    -0.305 OA
ATOM      7  C   UNL d   1      32.012  16.482 -23.140  0.00  0.00     0.126 A 
ATOM      8  C   UNL d   1      31.833  18.023 -25.094  0.00  0.00     0.009 A 
ATOM      9  C   UNL d   1      32.709  18.944 -24.443  0.00  0.00     0.199 A 
ATOM     10  O   UNL d   1      31.011  16.576 -25.090  0.00  0.00    -0.284 OA
ATOM     11  C   UNL d   1      32.242  18.738 -25.090  0.00  0.00     0.042 A 
ATOM     12  O   UNL d   1      33.123  19.662 -24.434  0.00  0.00    -0.286 OA
ATOM     13  C   UNL d   1      32.072  15.975 -22.495  0.00  0.00     0.029 C 
ENDROOT
BRANCH   2  14
ATOM     14  O   UNL d   1      31.134  15.557 -23.792  0.00  0.00    -0.302 OA
BRANCH  14  15
ATOM     15  C   UNL d   1      30.316  15.551 -23.697  0.00  0.00     0.100 A 
ATOM     16  C   UNL d   1      29.992  15.611 -22.940  0.00  0.00     0.027 A 
ATOM     17  C   UNL d   1      29.181  15.605 -22.841  0.00  0.00     0.026 A 
ATOM     18  C   UNL d   1      28.680  15.539 -23.505  0.00  0.00     0.094 A 
ATOM     19  C   UNL d   1      29.009  15.479 -24.260  0.00  0.00     0.026 A 
ATOM     20  C   UNL d   1      29.827  15.485 -24.355  0.00  0.00     0.027 A 
BRANCH  18  21
ATOM     21  O   UNL d   1      27.863  15.533 -23.409  0.00  0.00    -0.328 OA
ATOM     22  C   UNL d   1      27.492  16.154 -23.013  0.00  0.00     0.181 C 
ENDBRANCH  18  21
ENDBRANCH  14  15
ENDBRANCH   2  14
BRANCH   5  23
ATOM     23  C   UNL d   1      33.241  18.645 -23.144  0.00  0.00     0.086 C 
BRANCH  23  24
ATOM     24  N   UNL d   1      32.933  19.130 -22.561  0.00  0.00    -0.300 N 
ATOM     25  C   UNL d   1      33.148  19.014 -21.773  0.00  0.00     0.100 C 
ATOM     26  C   UNL d   1      32.405  19.737 -22.756  0.00  0.00     0.100 C 
ENDBRANCH  23  24
ENDBRANCH   5  23
TORSDOF 5
ENDMDL
