MODEL 1
REMARK VINA RESULT:      60.6      0.000      0.000
REMARK  3 active torsions:
REMARK  status: ('A' for Active; 'I' for Inactive)
REMARK    1  A    between atoms: C_9  and  S_1 
REMARK       I    between atoms: C_4  and  N_8 
REMARK    2  A    between atoms: C_5  and  C_4 
REMARK    3  A    between atoms: N_8  and  C_18 
ROOT
ATOM      1  C   UNL d   1     -55.162 -99.340 -43.058  0.00  0.00     0.302 C 
ATOM      2  N   UNL d   1     -54.731-100.039 -43.077  0.00  0.00    -0.206 NA
ATOM      3  O   UNL d   1     -54.994 -98.766 -42.494  0.00  0.00    -0.263 OA
ENDROOT
BRANCH   1   4
ATOM      4  C   UNL d   1     -55.765 -99.210 -43.600  0.00  0.00     0.161 A 
ATOM      5  O   UNL d   1     -55.578 -99.125 -44.408  0.00  0.00    -0.268 OA
ATOM      6  C   UNL d   1     -56.187 -98.992 -44.960  0.00  0.00     0.300 A 
ATOM      7  O   UNL d   1     -56.003 -98.909 -45.757  0.00  0.00    -0.259 OA
ATOM      8  C   UNL d   1     -56.975 -98.944 -44.712  0.00  0.00     0.064 A 
ATOM      9  C   UNL d   1     -57.154 -99.030 -43.902  0.00  0.00     0.007 A 
ATOM     10  C   UNL d   1     -57.573 -98.813 -45.257  0.00  0.00     0.005 A 
ATOM     11  C   UNL d   1     -56.555 -99.162 -43.348  0.00  0.00     0.030 A 
ATOM     12  C   UNL d   1     -57.944 -98.981 -43.654  0.00  0.00     0.000 A 
ATOM     13  C   UNL d   1     -58.538 -98.849 -44.211  0.00  0.00     0.000 A 
ATOM     14  C   UNL d   1     -58.354 -98.766 -45.008  0.00  0.00     0.000 A 
ENDBRANCH   1   4
BRANCH   2  15
ATOM     15  C   UNL d   1     -54.904-100.613 -43.644  0.00  0.00     0.085 A 
ATOM     16  C   UNL d   1     -55.149-101.357 -43.405  0.00  0.00     0.020 A 
ATOM     17  C   UNL d   1     -55.321-101.932 -43.967  0.00  0.00     0.015 A 
ATOM     18  C   UNL d   1     -55.246-101.755 -44.772  0.00  0.00     0.107 A 
ATOM     19  C   UNL d   1     -54.999-101.003 -45.004  0.00  0.00     0.015 A 
ATOM     20  C   UNL d   1     -54.828-100.434 -44.448  0.00  0.00     0.020 A 
BRANCH  18  21
ATOM     21  S   UNL d   1     -55.419-102.330 -45.335  0.00  0.00     0.302 S 
ATOM     22  O   UNL d   1     -56.109-102.576 -44.981  0.00  0.00    -0.197 OA
ATOM     23  O   UNL d   1     -54.716-102.072 -45.687  0.00  0.00    -0.197 OA
ATOM     24  N   UNL d   1     -55.517-102.878 -45.935  0.00  0.00    -0.043 N 
ENDBRANCH  18  21
ENDBRANCH   2  15
TORSDOF 3
ENDMDL
MODEL 2
REMARK VINA RESULT:      62.9      1.375      2.129
REMARK  3 active torsions:
REMARK  status: ('A' for Active; 'I' for Inactive)
REMARK    1  A    between atoms: C_9  and  S_1 
REMARK       I    between atoms: C_4  and  N_8 
REMARK    2  A    between atoms: C_5  and  C_4 
REMARK    3  A    between atoms: N_8  and  C_18 
ROOT
ATOM      1  C   UNL d   1     -55.273 -99.240 -45.146  0.00  0.00     0.302 C 
ATOM      2  N   UNL d   1     -54.719 -99.833 -45.020  0.00  0.00    -0.206 NA
ATOM      3  O   UNL d   1     -55.217 -98.757 -45.808  0.00  0.00    -0.263 OA
ENDROOT
BRANCH   1   4
ATOM      4  C   UNL d   1     -55.887 -99.125 -44.612  0.00  0.00     0.161 A 
ATOM      5  O   UNL d   1     -55.712 -99.016 -43.804  0.00  0.00    -0.268 OA
ATOM      6  C   UNL d   1     -56.332 -98.900 -43.261  0.00  0.00     0.300 A 
ATOM      7  O   UNL d   1     -56.160 -98.792 -42.464  0.00  0.00    -0.259 OA
ATOM      8  C   UNL d   1     -57.119 -98.891 -43.517  0.00  0.00     0.064 A 
ATOM      9  C   UNL d   1     -57.285 -99.000 -44.327  0.00  0.00     0.007 A 
ATOM     10  C   UNL d   1     -57.728 -98.776 -42.981  0.00  0.00     0.005 A 
ATOM     11  C   UNL d   1     -56.675 -99.117 -44.872  0.00  0.00     0.030 A 
ATOM     12  C   UNL d   1     -58.073 -98.992 -44.583  0.00  0.00     0.000 A 
ATOM     13  C   UNL d   1     -58.679 -98.875 -44.035  0.00  0.00     0.000 A 
ATOM     14  C   UNL d   1     -58.507 -98.767 -43.239  0.00  0.00     0.000 A 
ENDBRANCH   1   4
BRANCH   2  15
ATOM     15  C   UNL d   1     -54.778-100.316 -44.353  0.00  0.00     0.085 A 
ATOM     16  C   UNL d   1     -54.833 -99.976 -43.610  0.00  0.00     0.020 A 
ATOM     17  C   UNL d   1     -54.892-100.454 -42.944  0.00  0.00     0.015 A 
ATOM     18  C   UNL d   1     -54.895-101.278 -43.029  0.00  0.00     0.107 A 
ATOM     19  C   UNL d   1     -54.839-101.612 -43.780  0.00  0.00     0.015 A 
ATOM     20  C   UNL d   1     -54.781-101.139 -44.440  0.00  0.00     0.020 A 
BRANCH  18  21
ATOM     21  S   UNL d   1     -54.954-101.757 -42.362  0.00  0.00     0.302 S 
ATOM     22  O   UNL d   1     -54.756-101.172 -41.832  0.00  0.00    -0.197 OA
ATOM     23  O   UNL d   1     -55.155-102.345 -42.909  0.00  0.00    -0.197 OA
ATOM     24  N   UNL d   1     -55.035-102.299 -41.753  0.00  0.00    -0.043 N 
ENDBRANCH  18  21
ENDBRANCH   2  15
TORSDOF 3
ENDMDL
MODEL 3
REMARK VINA RESULT:      63.6      1.845      3.752
REMARK  3 active torsions:
REMARK  status: ('A' for Active; 'I' for Inactive)
REMARK    1  A    between atoms: C_9  and  S_1 
REMARK       I    between atoms: C_4  and  N_8 
REMARK    2  A    between atoms: C_5  and  C_4 
REMARK    3  A    between atoms: N_8  and  C_18 
ROOT
ATOM      1  C   UNL d   1     -55.317 -99.294 -45.241  0.00  0.00     0.302 C 
ATOM      2  N   UNL d   1     -56.036 -98.911 -45.337  0.00  0.00    -0.206 NA
ATOM      3  O   UNL d   1     -54.740 -99.242 -45.824  0.00  0.00    -0.263 OA
ENDROOT
BRANCH   1   4
ATOM      4  C   UNL d   1     -55.167 -99.733 -44.563  0.00  0.00     0.161 A 
ATOM      5  O   UNL d   1     -55.015 -99.337 -43.844  0.00  0.00    -0.268 OA
ATOM      6  C   UNL d   1     -54.863 -99.779 -43.155  0.00  0.00     0.300 A 
ATOM      7  O   UNL d   1     -54.712 -99.389 -42.447  0.00  0.00    -0.259 OA
ATOM      8  C   UNL d   1     -54.862-100.606 -43.179  0.00  0.00     0.064 A 
ATOM      9  C   UNL d   1     -55.016-100.994 -43.901  0.00  0.00     0.007 A 
ATOM     10  C   UNL d   1     -54.712-101.039 -42.499  0.00  0.00     0.005 A 
ATOM     11  C   UNL d   1     -55.168-100.563 -44.589  0.00  0.00     0.030 A 
ATOM     12  C   UNL d   1     -55.015-101.823 -43.923  0.00  0.00     0.000 A 
ATOM     13  C   UNL d   1     -54.863-102.249 -43.234  0.00  0.00     0.000 A 
ATOM     14  C   UNL d   1     -54.713-101.859 -42.526  0.00  0.00     0.000 A 
ENDBRANCH   1   4
BRANCH   2  15
ATOM     15  C   UNL d   1     -56.614 -98.965 -44.749  0.00  0.00     0.085 A 
ATOM     16  C   UNL d   1     -56.420 -98.784 -43.974  0.00  0.00     0.020 A 
ATOM     17  C   UNL d   1     -56.992 -98.837 -43.386  0.00  0.00     0.015 A 
ATOM     18  C   UNL d   1     -57.761 -99.074 -43.581  0.00  0.00     0.107 A 
ATOM     19  C   UNL d   1     -57.947 -99.254 -44.364  0.00  0.00     0.015 A 
ATOM     20  C   UNL d   1     -57.381 -99.202 -44.946  0.00  0.00     0.020 A 
BRANCH  18  21
ATOM     21  S   UNL d   1     -58.334 -99.127 -42.992  0.00  0.00     0.302 S 
ATOM     22  O   UNL d   1     -57.830 -99.422 -42.425  0.00  0.00    -0.197 OA
ATOM     23  O   UNL d   1     -58.837 -98.827 -43.576  0.00  0.00    -0.197 OA
ATOM     24  N   UNL d   1     -58.960 -99.148 -42.466  0.00  0.00    -0.043 N 
ENDBRANCH  18  21
ENDBRANCH   2  15
TORSDOF 3
ENDMDL
