MODEL 1
REMARK VINA RESULT:      -1.2      0.000      0.000
REMARK  6 active torsions:
REMARK  status: ('A' for Active; 'I' for Inactive)
REMARK    1  A    between atoms: C_5  and  N_1 
REMARK    2  A    between atoms: C_8  and  C_3 
REMARK    3  A    between atoms: C_7  and  C_4 
REMARK    4  A    between atoms: N_12  and  C_5 
REMARK    5  A    between atoms: N_11  and  C_10 
REMARK    6  A    between atoms: O_22  and  C_19 
ROOT
ATOM      1  N   UNL d   1      32.841  20.016 -23.314  0.00  0.00    -0.203 N 
ATOM      2  N   UNL d   1      32.941  20.679 -22.849  0.00  0.00    -0.163 NA
ATOM      3  C   UNL d   1      32.843  20.436 -22.063  0.00  0.00     0.103 A 
ATOM      4  C   UNL d   1      32.682  19.370 -22.818  0.00  0.00     0.087 A 
ATOM      5  C   UNL d   1      32.681  19.619 -22.046  0.00  0.00     0.040 A 
ENDROOT
BRANCH   4   6
ATOM      6  C   UNL d   1      32.543  18.587 -23.036  0.00  0.00     0.018 A 
ATOM      7  C   UNL d   1      31.798  18.354 -23.301  0.00  0.00     0.003 A 
ATOM      8  C   UNL d   1      31.659  17.570 -23.520  0.00  0.00     0.018 A 
ATOM      9  C   UNL d   1      32.265  17.020 -23.474  0.00  0.00     0.064 A 
ATOM     10  C   UNL d   1      33.016  17.240 -23.211  0.00  0.00     0.018 A 
ATOM     11  C   UNL d   1      33.148  18.028 -22.993  0.00  0.00     0.003 A 
BRANCH   9  12
ATOM     12  N   UNL d   1      32.110  16.248 -23.695  0.00  0.00    -0.301 N 
ATOM     13  C   UNL d   1      31.367  16.044 -24.008  0.00  0.00     0.100 C 
ATOM     14  C   UNL d   1      32.688  15.670 -23.607  0.00  0.00     0.100 C 
ENDBRANCH   9  12
ENDBRANCH   4   6
BRANCH   1  15
ATOM     15  C   UNL d   1      32.897  20.020 -24.156  0.00  0.00     0.222 C 
ATOM     16  S   UNL d   1      33.241  19.376 -24.559  0.00  0.00    -0.037 SA
BRANCH  15  17
ATOM     17  N   UNL d   1      32.599  20.687 -24.597  0.00  0.00    -0.214 NA
ATOM     18  C   UNL d   1      33.128  21.121 -25.097  0.00  0.00     0.122 C 
ENDBRANCH  15  17
ENDBRANCH   1  15
BRANCH   3  19
ATOM     19  C   UNL d   1      32.905  20.956 -21.447  0.00  0.00     0.019 A 
ATOM     20  C   UNL d   1      32.932  20.693 -20.672  0.00  0.00     0.004 A 
ATOM     21  C   UNL d   1      32.996  21.237 -20.054  0.00  0.00     0.024 A 
ATOM     22  C   UNL d   1      33.033  22.051 -20.204  0.00  0.00     0.094 A 
ATOM     23  C   UNL d   1      33.006  22.314 -20.980  0.00  0.00     0.024 A 
ATOM     24  C   UNL d   1      32.942  21.768 -21.592  0.00  0.00     0.004 A 
BRANCH  22  25
ATOM     25  O   UNL d   1      33.097  22.597 -19.575  0.00  0.00    -0.328 OA
ATOM     26  C   UNL d   1      33.213  22.320 -18.799  0.00  0.00     0.181 C 
ENDBRANCH  22  25
ENDBRANCH   3  19
TORSDOF 6
ENDMDL
MODEL 2
REMARK VINA RESULT:      -0.9      2.340      5.505
REMARK  6 active torsions:
REMARK  status: ('A' for Active; 'I' for Inactive)
REMARK    1  A    between atoms: C_5  and  N_1 
REMARK    2  A    between atoms: C_8  and  C_3 
REMARK    3  A    between atoms: C_7  and  C_4 
REMARK    4  A    between atoms: N_12  and  C_5 
REMARK    5  A    between atoms: N_11  and  C_10 
REMARK    6  A    between atoms: O_22  and  C_19 
ROOT
ATOM      1  N   UNL d   1      32.485  22.187 -21.024  0.00  0.00    -0.203 N 
ATOM      2  N   UNL d   1      32.503  21.691 -21.672  0.00  0.00    -0.163 NA
ATOM      3  C   UNL d   1      32.828  20.973 -21.413  0.00  0.00     0.103 A 
ATOM      4  C   UNL d   1      32.797  21.778 -20.372  0.00  0.00     0.087 A 
ATOM      5  C   UNL d   1      33.011  21.030 -20.603  0.00  0.00     0.040 A 
ENDROOT
BRANCH   4   6
ATOM      6  C   UNL d   1      32.890  22.053 -19.601  0.00  0.00     0.018 A 
ATOM      7  C   UNL d   1      32.747  22.844 -19.420  0.00  0.00     0.003 A 
ATOM      8  C   UNL d   1      32.840  23.119 -18.647  0.00  0.00     0.018 A 
ATOM      9  C   UNL d   1      33.077  22.604 -18.055  0.00  0.00     0.064 A 
ATOM     10  C   UNL d   1      33.225  21.809 -18.223  0.00  0.00     0.018 A 
ATOM     11  C   UNL d   1      33.129  21.540 -19.001  0.00  0.00     0.003 A 
BRANCH   9  12
ATOM     12  N   UNL d   1      33.165  22.893 -17.296  0.00  0.00    -0.301 N 
ATOM     13  C   UNL d   1      33.178  22.371 -16.649  0.00  0.00     0.100 C 
ATOM     14  C   UNL d   1      33.241  23.702 -17.169  0.00  0.00     0.100 C 
ENDBRANCH   9  12
ENDBRANCH   4   6
BRANCH   1  15
ATOM     15  C   UNL d   1      32.192  22.978 -21.047  0.00  0.00     0.222 C 
ATOM     16  S   UNL d   1      32.722  23.622 -21.075  0.00  0.00    -0.037 SA
BRANCH  15  17
ATOM     17  N   UNL d   1      31.352  23.119 -21.041  0.00  0.00    -0.214 NA
ATOM     18  C   UNL d   1      31.026  23.699 -21.565  0.00  0.00     0.122 C 
ENDBRANCH  15  17
ENDBRANCH   1  15
BRANCH   3  19
ATOM     19  C   UNL d   1      32.929  20.348 -21.916  0.00  0.00     0.019 A 
ATOM     20  C   UNL d   1      33.033  20.463 -22.720  0.00  0.00     0.004 A 
ATOM     21  C   UNL d   1      33.135  19.814 -23.220  0.00  0.00     0.024 A 
ATOM     22  C   UNL d   1      33.134  19.041 -22.922  0.00  0.00     0.094 A 
ATOM     23  C   UNL d   1      33.030  18.926 -22.117  0.00  0.00     0.024 A 
ATOM     24  C   UNL d   1      32.929  19.576 -21.623  0.00  0.00     0.004 A 
BRANCH  22  25
ATOM     25  O   UNL d   1      33.238  18.388 -23.433  0.00  0.00    -0.328 OA
ATOM     26  C   UNL d   1      33.215  17.616 -23.124  0.00  0.00     0.181 C 
ENDBRANCH  22  25
ENDBRANCH   3  19
TORSDOF 6
ENDMDL
MODEL 3
REMARK VINA RESULT:       0.3      1.959      4.901
REMARK  6 active torsions:
REMARK  status: ('A' for Active; 'I' for Inactive)
REMARK    1  A    between atoms: C_5  and  N_1 
REMARK    2  A    between atoms: C_8  and  C_3 
REMARK    3  A    between atoms: C_7  and  C_4 
REMARK    4  A    between atoms: N_12  and  C_5 
REMARK    5  A    between atoms: N_11  and  C_10 
REMARK    6  A    between atoms: O_22  and  C_19 
ROOT
ATOM      1  N   UNL d   1      32.864  20.991 -22.871  0.00  0.00    -0.203 N 
ATOM      2  N   UNL d   1      32.877  20.296 -23.297  0.00  0.00    -0.163 NA
ATOM      3  C   UNL d   1      32.929  19.679 -22.746  0.00  0.00     0.103 A 
ATOM      4  C   UNL d   1      32.907  20.803 -22.063  0.00  0.00     0.087 A 
ATOM      5  C   UNL d   1      32.947  19.997 -21.977  0.00  0.00     0.040 A 
ENDROOT
BRANCH   4   6
ATOM      6  C   UNL d   1      32.911  21.323 -21.423  0.00  0.00     0.018 A 
ATOM      7  C   UNL d   1      33.235  22.077 -21.500  0.00  0.00     0.003 A 
ATOM      8  C   UNL d   1      33.239  22.597 -20.859  0.00  0.00     0.018 A 
ATOM      9  C   UNL d   1      32.919  22.364 -20.141  0.00  0.00     0.064 A 
ATOM     10  C   UNL d   1      32.591  21.611 -20.051  0.00  0.00     0.018 A 
ATOM     11  C   UNL d   1      32.590  21.095 -20.698  0.00  0.00     0.003 A 
BRANCH   9  12
ATOM     12  N   UNL d   1      32.931  22.891 -19.517  0.00  0.00    -0.301 N 
ATOM     13  C   UNL d   1      32.727  23.688 -19.639  0.00  0.00     0.100 C 
ATOM     14  C   UNL d   1      33.144  22.635 -18.765  0.00  0.00     0.100 C 
ENDBRANCH   9  12
ENDBRANCH   4   6
BRANCH   1  15
ATOM     15  C   UNL d   1      32.815  21.757 -23.222  0.00  0.00     0.222 C 
ATOM     16  S   UNL d   1      32.351  22.353 -22.868  0.00  0.00    -0.037 SA
BRANCH  15  17
ATOM     17  N   UNL d   1      33.241  21.921 -23.942  0.00  0.00    -0.214 NA
ATOM     18  C   UNL d   1      33.221  22.703 -24.266  0.00  0.00     0.122 C 
ENDBRANCH  15  17
ENDBRANCH   1  15
BRANCH   3  19
ATOM     19  C   UNL d   1      32.954  18.904 -22.978  0.00  0.00     0.019 A 
ATOM     20  C   UNL d   1      33.214  18.318 -22.468  0.00  0.00     0.004 A 
ATOM     21  C   UNL d   1      33.233  17.532 -22.719  0.00  0.00     0.024 A 
ATOM     22  C   UNL d   1      32.993  17.322 -23.483  0.00  0.00     0.094 A 
ATOM     23  C   UNL d   1      32.732  17.908 -23.993  0.00  0.00     0.024 A 
ATOM     24  C   UNL d   1      32.715  18.690 -23.738  0.00  0.00     0.004 A 
BRANCH  22  25
ATOM     25  O   UNL d   1      33.015  16.524 -23.732  0.00  0.00    -0.328 OA
ATOM     26  C   UNL d   1      32.639  16.303 -24.440  0.00  0.00     0.181 C 
ENDBRANCH  22  25
ENDBRANCH   3  19
TORSDOF 6
ENDMDL
MODEL 4
REMARK VINA RESULT:       0.8      1.432      2.192
REMARK  6 active torsions:
REMARK  status: ('A' for Active; 'I' for Inactive)
REMARK    1  A    between atoms: C_5  and  N_1 
REMARK    2  A    between atoms: C_8  and  C_3 
REMARK    3  A    between atoms: C_7  and  C_4 
REMARK    4  A    between atoms: N_12  and  C_5 
REMARK    5  A    between atoms: N_11  and  C_10 
REMARK    6  A    between atoms: O_22  and  C_19 
ROOT
ATOM      1  N   UNL d   1      32.877  21.743 -21.874  0.00  0.00    -0.203 N 
ATOM      2  N   UNL d   1      32.911  22.273 -21.254  0.00  0.00    -0.163 NA
ATOM      3  C   UNL d   1      33.011  21.827 -20.563  0.00  0.00     0.103 A 
ATOM      4  C   UNL d   1      32.955  20.976 -21.566  0.00  0.00     0.087 A 
ATOM      5  C   UNL d   1      33.039  21.018 -20.760  0.00  0.00     0.040 A 
ENDROOT
BRANCH   4   6
ATOM      6  C   UNL d   1      32.954  20.263 -21.980  0.00  0.00     0.018 A 
ATOM      7  C   UNL d   1      32.669  20.230 -22.752  0.00  0.00     0.003 A 
ATOM      8  C   UNL d   1      32.667  19.515 -23.166  0.00  0.00     0.018 A 
ATOM      9  C   UNL d   1      32.951  18.835 -22.809  0.00  0.00     0.064 A 
ATOM     10  C   UNL d   1      33.240  18.854 -22.035  0.00  0.00     0.018 A 
ATOM     11  C   UNL d   1      33.238  19.574 -21.626  0.00  0.00     0.003 A 
BRANCH   9  12
ATOM     12  N   UNL d   1      32.943  18.136 -23.233  0.00  0.00    -0.301 N 
ATOM     13  C   UNL d   1      32.908  17.407 -22.837  0.00  0.00     0.100 C 
ATOM     14  C   UNL d   1      32.969  18.153 -24.055  0.00  0.00     0.100 C 
ENDBRANCH   9  12
ENDBRANCH   4   6
BRANCH   1  15
ATOM     15  C   UNL d   1      32.778  21.969 -22.681  0.00  0.00     0.222 C 
ATOM     16  S   UNL d   1      33.237  21.611 -23.277  0.00  0.00    -0.037 SA
BRANCH  15  17
ATOM     17  N   UNL d   1      32.205  22.567 -22.886  0.00  0.00    -0.214 NA
ATOM     18  C   UNL d   1      32.412  23.160 -23.453  0.00  0.00     0.122 C 
ENDBRANCH  15  17
ENDBRANCH   1  15
BRANCH   3  19
ATOM     19  C   UNL d   1      33.068  22.176 -19.837  0.00  0.00     0.019 A 
ATOM     20  C   UNL d   1      33.116  21.727 -19.153  0.00  0.00     0.004 A 
ATOM     21  C   UNL d   1      33.173  22.100 -18.419  0.00  0.00     0.024 A 
ATOM     22  C   UNL d   1      33.183  22.926 -18.358  0.00  0.00     0.094 A 
ATOM     23  C   UNL d   1      33.135  23.375 -19.042  0.00  0.00     0.024 A 
ATOM     24  C   UNL d   1      33.078  22.999 -19.771  0.00  0.00     0.004 A 
BRANCH  22  25
ATOM     25  O   UNL d   1      33.241  23.297 -17.612  0.00  0.00    -0.328 OA
ATOM     26  C   UNL d   1      32.688  23.116 -17.018  0.00  0.00     0.181 C 
ENDBRANCH  22  25
ENDBRANCH   3  19
TORSDOF 6
ENDMDL
