MODEL 1
REMARK VINA RESULT:      -7.9      0.000      0.000
REMARK  3 active torsions:
REMARK  status: ('A' for Active; 'I' for Inactive)
REMARK    1  A    between atoms: N_2  and  S_1 
REMARK    2  A    between atoms: N_4  and  S_1 
REMARK    3  A    between atoms: C_9  and  N_3 
ROOT
ATOM      1  N   UNL d   1      53.200  33.586  53.916  0.00  0.00    -0.213 N 
ATOM      2  N   UNL d   1      51.826  33.942  53.084  0.00  0.00    -0.301 N 
ATOM      3  C   UNL d   1      52.968  34.360  53.827  0.00  0.00     0.112 A 
ATOM      4  C   UNL d   1      52.748  32.952  53.587  0.00  0.00     0.112 A 
ATOM      5  C   UNL d   1      52.279  34.539  53.410  0.00  0.00     0.100 A 
ATOM      6  C   UNL d   1      52.059  33.131  53.170  0.00  0.00     0.100 A 
ENDROOT
BRANCH   2   7
ATOM      7  C   UNL d   1      51.133  34.122  52.664  0.00  0.00     0.064 A 
ATOM      8  C   UNL d   1      50.440  34.291  53.086  0.00  0.00     0.018 A 
ATOM      9  C   UNL d   1      49.745  34.471  52.671  0.00  0.00     0.013 A 
ATOM     10  C   UNL d   1      49.745  34.482  51.848  0.00  0.00     0.058 A 
ATOM     11  C   UNL d   1      50.448  34.310  51.433  0.00  0.00     0.013 A 
ATOM     12 CL   UNL d   1      49.050  34.661  51.432  0.00  0.00    -0.082 Cl
ATOM     13  C   UNL d   1      51.136  34.132  51.844  0.00  0.00     0.018 A 
ENDBRANCH   2   7
BRANCH   1  14
ATOM     14  S   UNL d   1      53.903  33.404  54.341  0.00  0.00     0.337 S 
ATOM     15  O   UNL d   1      54.059  33.776  55.064  0.00  0.00    -0.181 OA
ATOM     16  O   UNL d   1      54.442  32.851  54.035  0.00  0.00    -0.181 OA
BRANCH  14  17
ATOM     17  N   UNL d   1      54.518  33.368  54.901  0.00  0.00    -0.213 N 
ATOM     18  C   UNL d   1      54.416  32.943  55.594  0.00  0.00     0.113 C 
ATOM     19  C   UNL d   1      55.236  33.765  54.756  0.00  0.00     0.113 C 
ENDBRANCH  14  17
ENDBRANCH   1  14
TORSDOF 3
ENDMDL
MODEL 2
REMARK VINA RESULT:      -7.6      2.534      3.447
REMARK  3 active torsions:
REMARK  status: ('A' for Active; 'I' for Inactive)
REMARK    1  A    between atoms: N_2  and  S_1 
REMARK    2  A    between atoms: N_4  and  S_1 
REMARK    3  A    between atoms: C_9  and  N_3 
ROOT
ATOM      1  N   UNL d   1      53.232  31.414  53.585  0.00  0.00    -0.213 N 
ATOM      2  N   UNL d   1      53.160  33.028  53.897  0.00  0.00    -0.301 N 
ATOM      3  C   UNL d   1      52.712  31.885  53.173  0.00  0.00     0.112 A 
ATOM      4  C   UNL d   1      53.742  31.737  54.176  0.00  0.00     0.112 A 
ATOM      5  C   UNL d   1      52.676  32.694  53.330  0.00  0.00     0.100 A 
ATOM      6  C   UNL d   1      53.706  32.546  54.333  0.00  0.00     0.100 A 
ENDROOT
BRANCH   2   7
ATOM      7  C   UNL d   1      53.124  33.842  54.054  0.00  0.00     0.064 A 
ATOM      8  C   UNL d   1      53.384  34.121  54.790  0.00  0.00     0.018 A 
ATOM      9  C   UNL d   1      53.350  34.934  54.951  0.00  0.00     0.013 A 
ATOM     10  C   UNL d   1      53.060  35.457  54.386  0.00  0.00     0.058 A 
ATOM     11  C   UNL d   1      52.800  35.165  53.649  0.00  0.00     0.013 A 
ATOM     12 CL   UNL d   1      53.025  36.270  54.547  0.00  0.00    -0.082 Cl
ATOM     13  C   UNL d   1      52.834  34.361  53.489  0.00  0.00     0.018 A 
ENDBRANCH   2   7
BRANCH   1  14
ATOM     14  S   UNL d   1      53.268  30.588  53.425  0.00  0.00     0.337 S 
ATOM     15  O   UNL d   1      52.583  30.127  53.467  0.00  0.00    -0.181 OA
ATOM     16  O   UNL d   1      53.994  30.236  53.225  0.00  0.00    -0.181 OA
BRANCH  14  17
ATOM     17  N   UNL d   1      53.093  29.784  53.309  0.00  0.00    -0.213 N 
ATOM     18  C   UNL d   1      52.819  29.524  52.582  0.00  0.00     0.113 C 
ATOM     19  C   UNL d   1      53.197  29.241  53.933  0.00  0.00     0.113 C 
ENDBRANCH  14  17
ENDBRANCH   1  14
TORSDOF 3
ENDMDL
MODEL 3
REMARK VINA RESULT:      -7.2      2.683      4.401
REMARK  3 active torsions:
REMARK  status: ('A' for Active; 'I' for Inactive)
REMARK    1  A    between atoms: N_2  and  S_1 
REMARK    2  A    between atoms: N_4  and  S_1 
REMARK    3  A    between atoms: C_9  and  N_3 
ROOT
ATOM      1  N   UNL d   1      51.165  34.198  52.847  0.00  0.00    -0.213 N 
ATOM      2  N   UNL d   1      52.567  33.936  53.667  0.00  0.00    -0.301 N 
ATOM      3  C   UNL d   1      51.760  34.752  52.822  0.00  0.00     0.112 A 
ATOM      4  C   UNL d   1      51.249  33.483  53.288  0.00  0.00     0.112 A 
ATOM      5  C   UNL d   1      52.463  34.620  53.233  0.00  0.00     0.100 A 
ATOM      6  C   UNL d   1      51.952  33.351  53.700  0.00  0.00     0.100 A 
ENDROOT
BRANCH   2   7
ATOM      7  C   UNL d   1      53.274  33.803  54.081  0.00  0.00     0.064 A 
ATOM      8  C   UNL d   1      53.432  34.250  54.761  0.00  0.00     0.018 A 
ATOM      9  C   UNL d   1      54.137  34.120  55.177  0.00  0.00     0.013 A 
ATOM     10  C   UNL d   1      54.675  33.554  54.917  0.00  0.00     0.058 A 
ATOM     11  C   UNL d   1      54.506  33.111  54.231  0.00  0.00     0.013 A 
ATOM     12 CL   UNL d   1      55.380  33.425  55.333  0.00  0.00    -0.082 Cl
ATOM     13  C   UNL d   1      53.808  33.238  53.818  0.00  0.00     0.018 A 
ENDBRANCH   2   7
BRANCH   1  14
ATOM     14  S   UNL d   1      50.448  34.333  52.427  0.00  0.00     0.337 S 
ATOM     15  O   UNL d   1      49.794  34.658  52.816  0.00  0.00    -0.181 OA
ATOM     16  O   UNL d   1      50.397  34.139  51.621  0.00  0.00    -0.181 OA
BRANCH  14  17
ATOM     17  N   UNL d   1      49.673  34.539  52.204  0.00  0.00    -0.213 N 
ATOM     18  C   UNL d   1      49.384  34.314  51.471  0.00  0.00     0.113 C 
ATOM     19  C   UNL d   1      49.192  34.973  52.728  0.00  0.00     0.113 C 
ENDBRANCH  14  17
ENDBRANCH   1  14
TORSDOF 3
ENDMDL
