MODEL 1
REMARK VINA RESULT:      80.5      0.000      0.000
REMARK  3 active torsions:
REMARK  status: ('A' for Active; 'I' for Inactive)
REMARK    1  A    between atoms: N_6  and  C_1 
REMARK    2  A    between atoms: C_14  and  N_4 
REMARK    3  A    between atoms: C_7  and  N_6 
ROOT
ATOM      1  C   UNL d   1      60.255  48.956  50.496  0.00  0.00     0.157 A 
ATOM      2  C   UNL d   1      60.327  48.196  50.181  0.00  0.00     0.298 A 
ATOM      3  N   UNL d   1      61.216  48.374  51.108  0.00  0.00    -0.238 N 
ATOM      4  N   UNL d   1      60.916  47.828  50.551  0.00  0.00    -0.209 N 
ATOM      5  C   UNL d   1      60.774  49.037  51.025  0.00  0.00     0.104 A 
ATOM      6  O   UNL d   1      59.855  47.872  49.574  0.00  0.00    -0.263 OA
ATOM      7  C   UNL d   1      61.844  48.287  51.655  0.00  0.00     0.120 C 
ATOM      8  C   UNL d   1      60.882  49.699  51.459  0.00  0.00     0.022 C 
ENDROOT
BRANCH   1   9
ATOM      9  N   UNL d   1      59.716  49.538  50.281  0.00  0.00    -0.239 NA
BRANCH   9  10
ATOM     10  C   UNL d   1      59.002  49.577  50.652  0.00  0.00     0.082 A 
ATOM     11  C   UNL d   1      58.279  49.617  50.215  0.00  0.00     0.021 A 
ATOM     12  C   UNL d   1      57.549  49.657  50.585  0.00  0.00     0.040 A 
ATOM     13  C   UNL d   1      58.316  49.614  49.397  0.00  0.00     0.002 A 
ATOM     14  C   UNL d   1      56.853  49.695  50.150  0.00  0.00     0.003 A 
ATOM     15  C   UNL d   1      57.512  49.660  51.403  0.00  0.00     0.196 A 
ATOM     16  C   UNL d   1      56.909  49.691  49.326  0.00  0.00     0.000 A 
ATOM     17  C   UNL d   1      57.628  49.652  48.950  0.00  0.00     0.000 A 
ATOM     18  C   UNL d   1      58.204  49.622  51.851  0.00  0.00     0.044 A 
ATOM     19  O   UNL d   1      56.746  49.702  51.784  0.00  0.00    -0.287 OA
ATOM     20  C   UNL d   1      58.965  49.580  51.459  0.00  0.00     0.022 A 
ENDBRANCH   9  10
ENDBRANCH   1   9
BRANCH   4  21
ATOM     21  C   UNL d   1      61.174  47.062  50.408  0.00  0.00     0.085 A 
ATOM     22  C   UNL d   1      60.739  46.414  50.724  0.00  0.00     0.019 A 
ATOM     23  C   UNL d   1      60.991  45.635  50.586  0.00  0.00     0.002 A 
ATOM     24  C   UNL d   1      61.672  45.477  50.135  0.00  0.00     0.000 A 
ATOM     25  C   UNL d   1      62.110  46.114  49.817  0.00  0.00     0.002 A 
ATOM     26  C   UNL d   1      61.852  46.892  49.960  0.00  0.00     0.019 A 
ENDBRANCH   4  21
TORSDOF 3
ENDMDL
