MODEL 1
REMARK VINA RESULT:      53.1      0.000      0.000
REMARK  3 active torsions:
REMARK  status: ('A' for Active; 'I' for Inactive)
REMARK    1  A    between atoms: S_7  and  C_3 
REMARK       I    between atoms: N_4  and  C_5 
REMARK    2  A    between atoms: C_5  and  C_10 
REMARK    3  A    between atoms: C_10  and  S_7 
ROOT
ATOM      1  N   UNL d   1      58.345  49.707  50.232  0.00  0.00    -0.236 NA
ATOM      2  N   UNL d   1      57.069  49.697  51.285  0.00  0.00    -0.242 NA
ATOM      3  C   UNL d   1      58.490  49.705  51.045  0.00  0.00     0.129 A 
ATOM      4  C   UNL d   1      57.845  49.700  51.576  0.00  0.00     0.105 A 
ATOM      5  C   UNL d   1      57.580  49.705  49.942  0.00  0.00     0.100 A 
ATOM      6  C   UNL d   1      56.936  49.699  50.474  0.00  0.00     0.099 A 
ATOM      7  C   UNL d   1      57.973  49.697  52.381  0.00  0.00     0.023 C 
ATOM      8  C   UNL d   1      56.162  49.697  50.186  0.00  0.00     0.021 A 
ATOM      9  C   UNL d   1      57.439  49.707  49.133  0.00  0.00     0.021 A 
ATOM     10  C   UNL d   1      56.034  49.699  49.361  0.00  0.00     0.002 A 
ATOM     11  C   UNL d   1      56.668  49.705  48.837  0.00  0.00     0.002 A 
ENDROOT
BRANCH   3  12
ATOM     12  S   UNL d   1      59.259  49.708  51.320  0.00  0.00    -0.061 SA
BRANCH  12  13
ATOM     13  C   UNL d   1      59.864  49.420  50.857  0.00  0.00     0.098 C 
BRANCH  13  14
ATOM     14  C   UNL d   1      60.557  49.122  51.212  0.00  0.00     0.271 C 
ATOM     15  N   UNL d   1      60.926  48.457  50.880  0.00  0.00    -0.272 N 
ATOM     16  C   UNL d   1      61.621  48.157  51.235  0.00  0.00     0.083 A 
ATOM     17  C   UNL d   1      60.616  48.101  50.215  0.00  0.00     0.083 A 
ATOM     18  C   UNL d   1      61.984  47.498  50.903  0.00  0.00     0.019 A 
ATOM     19  C   UNL d   1      61.675  47.141  50.238  0.00  0.00     0.003 A 
ATOM     20  C   UNL d   1      60.995  47.434  49.890  0.00  0.00     0.019 A 
ATOM     21  C   UNL d   1      62.070  46.455  49.910  0.00  0.00     0.000 C 
ATOM     22  O   UNL d   1      60.868  49.480  51.880  0.00  0.00    -0.266 OA
ENDBRANCH  13  14
ENDBRANCH  12  13
ENDBRANCH   3  12
TORSDOF 3
ENDMDL
