MODEL 1
REMARK VINA RESULT:       6.4      0.000      0.000
REMARK  6 active torsions:
REMARK  status: ('A' for Active; 'I' for Inactive)
REMARK    1  A    between atoms: S_3  and  C_1 
REMARK    2  A    between atoms: C_11  and  S_3 
REMARK    3  A    between atoms: N_8  and  C_4 
REMARK    4  A    between atoms: C_7  and  C_5 
REMARK    5  A    between atoms: C_18  and  N_8 
REMARK    6  A    between atoms: C_17  and  C_18 
ROOT
ATOM      1  C   UNL d   1     -41.523-121.506 -52.427  0.00  0.00     0.212 A 
ATOM      2  N   UNL d   1     -41.454-120.695 -52.551  0.00  0.00    -0.205 NA
ATOM      3  C   UNL d   1     -41.417-121.653 -51.622  0.00  0.00     0.213 A 
ATOM      4  C   UNL d   1     -41.305-120.340 -51.821  0.00  0.00     0.208 A 
ATOM      5  O   UNL d   1     -41.282-120.929 -51.251  0.00  0.00    -0.267 OA
ENDROOT
BRANCH   1   6
ATOM      6  S   UNL d   1     -41.674-122.014 -53.059  0.00  0.00     0.230 S 
ATOM      7  O   UNL d   1     -42.366-122.459 -53.081  0.00  0.00    -0.215 OA
ATOM      8  O   UNL d   1     -41.123-122.080 -53.678  0.00  0.00    -0.215 OA
BRANCH   6   9
ATOM      9  C   UNL d   1     -41.817-122.520 -53.693  0.00  0.00     0.090 A 
ATOM     10  C   UNL d   1     -41.398-123.231 -53.763  0.00  0.00     0.011 A 
ATOM     11  C   UNL d   1     -41.544-123.737 -54.402  0.00  0.00     0.001 A 
ATOM     12  C   UNL d   1     -42.111-123.529 -54.971  0.00  0.00     0.000 A 
ATOM     13  C   UNL d   1     -42.531-122.819 -54.902  0.00  0.00     0.001 A 
ATOM     14  C   UNL d   1     -42.379-122.316 -54.258  0.00  0.00     0.011 A 
ENDBRANCH   6   9
ENDBRANCH   1   6
BRANCH   3  15
ATOM     15  N   UNL d   1     -41.441-122.392 -51.252  0.00  0.00    -0.219 NA
BRANCH  15  16
ATOM     16  C   UNL d   1     -41.271-122.463 -50.452  0.00  0.00     0.103 C 
BRANCH  16  17
ATOM     17  C   UNL d   1     -41.828-122.812 -49.955  0.00  0.00     0.038 A 
ATOM     18  C   UNL d   1     -41.961-122.506 -49.197  0.00  0.00     0.101 A 
ATOM     19  N   UNL d   1     -42.518-122.859 -48.704  0.00  0.00    -0.242 NA
ATOM     20  C   UNL d   1     -42.938-123.511 -48.971  0.00  0.00     0.099 A 
ATOM     21  C   UNL d   1     -42.808-123.816 -49.722  0.00  0.00     0.021 A 
ATOM     22  C   UNL d   1     -42.249-123.464 -50.218  0.00  0.00     0.005 A 
ENDBRANCH  16  17
ENDBRANCH  15  16
ENDBRANCH   3  15
BRANCH   4  23
ATOM     23  C   UNL d   1     -41.236-119.534 -51.944  0.00  0.00     0.141 A 
ATOM     24  O   UNL d   1     -41.194-118.950 -52.520  0.00  0.00    -0.302 OA
ATOM     25  C   UNL d   1     -41.124-118.220 -52.144  0.00  0.00     0.123 A 
ATOM     26  C   UNL d   1     -41.123-118.358 -51.329  0.00  0.00     0.029 A 
ATOM     27  C   UNL d   1     -41.192-119.168 -51.206  0.00  0.00     0.030 A 
ENDBRANCH   4  23
TORSDOF 6
ENDMDL
MODEL 2
REMARK VINA RESULT:       7.2      1.078      3.637
REMARK  6 active torsions:
REMARK  status: ('A' for Active; 'I' for Inactive)
REMARK    1  A    between atoms: S_3  and  C_1 
REMARK    2  A    between atoms: C_11  and  S_3 
REMARK    3  A    between atoms: N_8  and  C_4 
REMARK    4  A    between atoms: C_7  and  C_5 
REMARK    5  A    between atoms: C_18  and  N_8 
REMARK    6  A    between atoms: C_17  and  C_18 
ROOT
ATOM      1  C   UNL d   1     -41.995-122.045 -52.192  0.00  0.00     0.212 A 
ATOM      2  N   UNL d   1     -42.407-122.569 -51.709  0.00  0.00    -0.205 NA
ATOM      3  C   UNL d   1     -41.722-121.423 -51.722  0.00  0.00     0.213 A 
ATOM      4  C   UNL d   1     -42.390-122.271 -50.940  0.00  0.00     0.208 A 
ATOM      5  O   UNL d   1     -41.969-121.567 -50.949  0.00  0.00    -0.267 OA
ENDROOT
BRANCH   1   6
ATOM      6  S   UNL d   1     -41.916-122.193 -52.999  0.00  0.00     0.230 S 
ATOM      7  O   UNL d   1     -42.209-121.660 -53.553  0.00  0.00    -0.215 OA
ATOM      8  O   UNL d   1     -41.537-122.887 -53.257  0.00  0.00    -0.215 OA
BRANCH   6   9
ATOM      9  C   UNL d   1     -41.832-122.349 -53.804  0.00  0.00     0.090 A 
ATOM     10  C   UNL d   1     -42.355-122.014 -54.351  0.00  0.00     0.011 A 
ATOM     11  C   UNL d   1     -42.268-122.173 -55.158  0.00  0.00     0.001 A 
ATOM     12  C   UNL d   1     -41.656-122.669 -55.418  0.00  0.00     0.000 A 
ATOM     13  C   UNL d   1     -41.132-123.005 -54.872  0.00  0.00     0.001 A 
ATOM     14  C   UNL d   1     -41.225-122.841 -54.062  0.00  0.00     0.011 A 
ENDBRANCH   6   9
ENDBRANCH   1   6
BRANCH   3  15
ATOM     15  N   UNL d   1     -41.282-120.773 -51.979  0.00  0.00    -0.219 NA
BRANCH  15  16
ATOM     16  C   UNL d   1     -41.123-120.149 -51.469  0.00  0.00     0.103 C 
BRANCH  16  17
ATOM     17  C   UNL d   1     -41.124-119.380 -51.766  0.00  0.00     0.038 A 
ATOM     18  C   UNL d   1     -41.125-119.249 -52.583  0.00  0.00     0.101 A 
ATOM     19  N   UNL d   1     -41.125-118.478 -52.874  0.00  0.00    -0.242 NA
ATOM     20  C   UNL d   1     -41.125-117.848 -52.349  0.00  0.00     0.099 A 
ATOM     21  C   UNL d   1     -41.124-117.976 -51.539  0.00  0.00     0.021 A 
ATOM     22  C   UNL d   1     -41.123-118.748 -51.244  0.00  0.00     0.005 A 
ENDBRANCH  16  17
ENDBRANCH  15  16
ENDBRANCH   3  15
BRANCH   4  23
ATOM     23  C   UNL d   1     -42.800-122.791 -50.460  0.00  0.00     0.141 A 
ATOM     24  O   UNL d   1     -43.442-123.302 -50.429  0.00  0.00    -0.302 OA
ATOM     25  C   UNL d   1     -43.468-123.640 -49.677  0.00  0.00     0.123 A 
ATOM     26  C   UNL d   1     -42.836-123.332 -49.243  0.00  0.00     0.029 A 
ATOM     27  C   UNL d   1     -42.424-122.809 -49.726  0.00  0.00     0.030 A 
ENDBRANCH   4  23
TORSDOF 6
ENDMDL
MODEL 3
REMARK VINA RESULT:       7.5      0.951      3.443
REMARK  6 active torsions:
REMARK  status: ('A' for Active; 'I' for Inactive)
REMARK    1  A    between atoms: S_3  and  C_1 
REMARK    2  A    between atoms: C_11  and  S_3 
REMARK    3  A    between atoms: N_8  and  C_4 
REMARK    4  A    between atoms: C_7  and  C_5 
REMARK    5  A    between atoms: C_18  and  N_8 
REMARK    6  A    between atoms: C_17  and  C_18 
ROOT
ATOM      1  C   UNL d   1     -41.548-122.071 -52.244  0.00  0.00     0.212 A 
ATOM      2  N   UNL d   1     -41.680-122.186 -53.049  0.00  0.00    -0.205 NA
ATOM      3  C   UNL d   1     -41.554-122.810 -51.875  0.00  0.00     0.213 A 
ATOM      4  C   UNL d   1     -41.766-122.996 -53.178  0.00  0.00     0.208 A 
ATOM      5  O   UNL d   1     -41.689-123.379 -52.457  0.00  0.00    -0.267 OA
ENDROOT
BRANCH   1   6
ATOM      6  S   UNL d   1     -41.440-121.312 -51.941  0.00  0.00     0.230 S 
ATOM      7  O   UNL d   1     -41.130-120.714 -52.413  0.00  0.00    -0.215 OA
ATOM      8  O   UNL d   1     -41.645-121.149 -51.152  0.00  0.00    -0.215 OA
BRANCH   6   9
ATOM      9  C   UNL d   1     -41.334-120.557 -51.631  0.00  0.00     0.090 A 
ATOM     10  C   UNL d   1     -41.244-120.449 -50.814  0.00  0.00     0.011 A 
ATOM     11  C   UNL d   1     -41.138-119.689 -50.506  0.00  0.00     0.001 A 
ATOM     12  C   UNL d   1     -41.124-119.034 -51.016  0.00  0.00     0.000 A 
ATOM     13  C   UNL d   1     -41.214-119.140 -51.832  0.00  0.00     0.001 A 
ATOM     14  C   UNL d   1     -41.320-119.907 -52.136  0.00  0.00     0.011 A 
ENDBRANCH   6   9
ENDBRANCH   1   6
BRANCH   3  15
ATOM     15  N   UNL d   1     -41.443-122.956 -51.070  0.00  0.00    -0.219 NA
BRANCH  15  16
ATOM     16  C   UNL d   1     -41.842-123.570 -50.699  0.00  0.00     0.103 C 
BRANCH  16  17
ATOM     17  C   UNL d   1     -41.936-123.549 -49.880  0.00  0.00     0.038 A 
ATOM     18  C   UNL d   1     -41.286-123.672 -49.383  0.00  0.00     0.101 A 
ATOM     19  N   UNL d   1     -41.385-123.650 -48.566  0.00  0.00    -0.242 NA
ATOM     20  C   UNL d   1     -42.130-123.506 -48.253  0.00  0.00     0.099 A 
ATOM     21  C   UNL d   1     -42.776-123.384 -48.744  0.00  0.00     0.021 A 
ATOM     22  C   UNL d   1     -42.679-123.406 -49.565  0.00  0.00     0.005 A 
ENDBRANCH  16  17
ENDBRANCH  15  16
ENDBRANCH   3  15
BRANCH   4  23
ATOM     23  C   UNL d   1     -41.897-123.109 -53.978  0.00  0.00     0.141 A 
ATOM     24  O   UNL d   1     -42.432-122.987 -54.588  0.00  0.00    -0.302 OA
ATOM     25  C   UNL d   1     -42.109-123.295 -55.282  0.00  0.00     0.123 A 
ATOM     26  C   UNL d   1     -41.368-123.609 -55.094  0.00  0.00     0.029 A 
ATOM     27  C   UNL d   1     -41.237-123.494 -54.290  0.00  0.00     0.030 A 
ENDBRANCH   4  23
TORSDOF 6
ENDMDL
