MODEL 1
REMARK VINA RESULT:      59.8      0.000      0.000
REMARK  3 active torsions:
REMARK  status: ('A' for Active; 'I' for Inactive)
REMARK    1  A    between atoms: C_7  and  N_1 
REMARK    2  A    between atoms: C_6  and  C_2 
REMARK    3  A    between atoms: O_19  and  C_9 
ROOT
ATOM      1  N   UNL d   1      43.814 -14.623  37.506  0.00  0.00    -0.259 N 
ATOM      2  C   UNL d   1      44.213 -15.224  37.096  0.00  0.00     0.137 A 
ATOM      3  C   UNL d   1      43.016 -14.758  37.471  0.00  0.00     0.282 A 
ATOM      4  N   UNL d   1      43.629 -15.744  36.801  0.00  0.00    -0.287 N 
ATOM      5  C   UNL d   1      42.882 -15.452  37.036  0.00  0.00     0.122 A 
ATOM      6  O   UNL d   1      42.415 -14.293  37.807  0.00  0.00    -0.265 OA
ATOM      7  C   UNL d   1      43.503 -16.435  36.368  0.00  0.00     0.082 A 
ATOM      8  C   UNL d   1      42.312 -15.973  36.740  0.00  0.00     0.024 A 
ATOM      9  C   UNL d   1      42.687 -16.576  36.330  0.00  0.00     0.021 A 
ENDROOT
BRANCH   2  10
ATOM     10  C   UNL d   1      45.027 -15.307  36.991  0.00  0.00     0.056 A 
ATOM     11  C   UNL d   1      45.447 -15.847  37.432  0.00  0.00     0.097 A 
ATOM     12  C   UNL d   1      46.258 -15.934  37.332  0.00  0.00     0.024 A 
ATOM     13  C   UNL d   1      46.647 -15.463  36.774  0.00  0.00     0.002 A 
ATOM     14  C   UNL d   1      46.227 -14.923  36.333  0.00  0.00     0.000 A 
ATOM     15  C   UNL d   1      45.405 -14.837  36.437  0.00  0.00     0.005 A 
BRANCH  11  16
ATOM     16  O   UNL d   1      45.050 -16.316  37.990  0.00  0.00    -0.328 OA
ATOM     17  C   UNL d   1      45.486 -16.834  38.491  0.00  0.00     0.181 C 
ENDBRANCH  11  16
ENDBRANCH   2  10
BRANCH   1  18
ATOM     18  C   UNL d   1      44.182 -13.992  37.886  0.00  0.00     0.068 A 
ATOM     19  C   UNL d   1      44.067 -13.878  38.689  0.00  0.00     0.018 A 
ATOM     20  C   UNL d   1      44.432 -13.248  39.077  0.00  0.00     0.013 A 
ATOM     21  C   UNL d   1      44.917 -12.730  38.648  0.00  0.00     0.058 A 
ATOM     22  C   UNL d   1      45.034 -12.842  37.840  0.00  0.00     0.013 A 
ATOM     23 CL   UNL d   1      45.282 -12.099  39.036  0.00  0.00    -0.082 Cl
ATOM     24  C   UNL d   1      44.667 -13.473  37.457  0.00  0.00     0.018 A 
ENDBRANCH   1  18
TORSDOF 3
ENDMDL
