MODEL 1
REMARK VINA RESULT:      -4.7      0.000      0.000
REMARK  2 active torsions:
REMARK  status: ('A' for Active; 'I' for Inactive)
REMARK    1  A    between atoms: C_5  and  C_1 
REMARK    2  A    between atoms: C_7  and  C_3 
REMARK       I    between atoms: N_8  and  C_7 
ROOT
ATOM      1  C   UNL d   1      57.858  -0.027  30.197  0.00  0.00     0.086 A 
ATOM      2  S   UNL d   1      57.477   0.374  30.815  0.00  0.00    -0.080 SA
ATOM      3  C   UNL d   1      57.219  -0.192  31.360  0.00  0.00     0.053 A 
ATOM      4  C   UNL d   1      57.834  -0.835  30.362  0.00  0.00     0.012 A 
ATOM      5  C   UNL d   1      57.439  -0.936  31.083  0.00  0.00     0.009 A 
ENDROOT
BRANCH   3   6
ATOM      6  C   UNL d   1      56.813  -0.037  32.060  0.00  0.00     0.117 A 
ATOM      7  N   UNL d   1      56.024  -0.228  32.209  0.00  0.00    -0.238 NA
ATOM      8  C   UNL d   1      55.849   0.028  32.978  0.00  0.00     0.088 A 
ATOM      9  C   UNL d   1      55.158  -0.011  33.424  0.00  0.00     0.020 A 
ATOM     10  C   UNL d   1      56.528   0.373  33.296  0.00  0.00     0.049 A 
ATOM     11  C   UNL d   1      55.149   0.295  34.185  0.00  0.00     0.002 A 
ATOM     12  C   UNL d   1      55.828   0.640  34.502  0.00  0.00     0.001 A 
ATOM     13  C   UNL d   1      56.516   0.679  34.059  0.00  0.00     0.008 A 
ATOM     14  S   UNL d   1      57.125   0.331  32.724  0.00  0.00    -0.066 SA
ENDBRANCH   3   6
BRANCH   1  15
ATOM     15  C   UNL d   1      58.200   0.326  29.533  0.00  0.00     0.271 C 
ATOM     16  N   UNL d   1      59.019   0.326  29.451  0.00  0.00    -0.267 N 
ATOM     17  C   UNL d   1      59.357   0.678  28.789  0.00  0.00     0.110 A 
ATOM     18  C   UNL d   1      59.488  -0.020  30.022  0.00  0.00     0.110 A 
ATOM     19  C   UNL d   1      60.172   0.682  28.701  0.00  0.00     0.142 A 
ATOM     20  O   UNL d   1      60.649   0.333  29.276  0.00  0.00    -0.300 OA
ATOM     21  C   UNL d   1      60.310  -0.019  29.938  0.00  0.00     0.142 A 
ATOM     22  O   UNL d   1      57.723   0.674  28.958  0.00  0.00    -0.266 OA
ENDBRANCH   1  15
TORSDOF 2
ENDMDL
MODEL 2
REMARK VINA RESULT:      -4.3      1.970      4.987
REMARK  2 active torsions:
REMARK  status: ('A' for Active; 'I' for Inactive)
REMARK    1  A    between atoms: C_5  and  C_1 
REMARK    2  A    between atoms: C_7  and  C_3 
REMARK       I    between atoms: N_8  and  C_7 
ROOT
ATOM      1  C   UNL d   1      56.726  -0.013  32.967  0.00  0.00     0.086 A 
ATOM      2  S   UNL d   1      57.254   0.357  32.444  0.00  0.00    -0.080 SA
ATOM      3  C   UNL d   1      57.244  -0.071  31.736  0.00  0.00     0.053 A 
ATOM      4  C   UNL d   1      56.395  -0.663  32.582  0.00  0.00     0.012 A 
ATOM      5  C   UNL d   1      56.717  -0.698  31.820  0.00  0.00     0.009 A 
ENDROOT
BRANCH   3   6
ATOM      6  C   UNL d   1      57.687   0.101  31.062  0.00  0.00     0.117 A 
ATOM      7  N   UNL d   1      57.381   0.231  30.308  0.00  0.00    -0.238 NA
ATOM      8  C   UNL d   1      58.021   0.385  29.804  0.00  0.00     0.088 A 
ATOM      9  C   UNL d   1      58.057   0.551  28.999  0.00  0.00     0.020 A 
ATOM     10  C   UNL d   1      58.714   0.349  30.250  0.00  0.00     0.049 A 
ATOM     11  C   UNL d   1      58.784   0.682  28.644  0.00  0.00     0.002 A 
ATOM     12  C   UNL d   1      59.477   0.646  29.090  0.00  0.00     0.001 A 
ATOM     13  C   UNL d   1      59.443   0.480  29.892  0.00  0.00     0.008 A 
ATOM     14  S   UNL d   1      58.504   0.173  31.032  0.00  0.00    -0.066 SA
ENDBRANCH   3   6
BRANCH   1  15
ATOM     15  C   UNL d   1      56.564   0.232  33.739  0.00  0.00     0.271 C 
ATOM     16  N   UNL d   1      55.783   0.334  33.977  0.00  0.00    -0.267 N 
ATOM     17  C   UNL d   1      55.625   0.578  34.746  0.00  0.00     0.110 A 
ATOM     18  C   UNL d   1      55.174   0.194  33.452  0.00  0.00     0.110 A 
ATOM     19  C   UNL d   1      54.849   0.682  34.989  0.00  0.00     0.142 A 
ATOM     20  O   UNL d   1      54.231   0.541  34.462  0.00  0.00    -0.300 OA
ATOM     21  C   UNL d   1      54.390   0.297  33.692  0.00  0.00     0.142 A 
ATOM     22  O   UNL d   1      57.182   0.373  34.267  0.00  0.00    -0.266 OA
ENDBRANCH   1  15
TORSDOF 2
ENDMDL
MODEL 3
REMARK VINA RESULT:      -3.4      1.756      4.884
REMARK  2 active torsions:
REMARK  status: ('A' for Active; 'I' for Inactive)
REMARK    1  A    between atoms: C_5  and  C_1 
REMARK    2  A    between atoms: C_7  and  C_3 
REMARK       I    between atoms: N_8  and  C_7 
ROOT
ATOM      1  C   UNL d   1      56.795  -0.251  31.744  0.00  0.00     0.086 A 
ATOM      2  S   UNL d   1      57.499  -0.518  31.395  0.00  0.00    -0.080 SA
ATOM      3  C   UNL d   1      57.748   0.063  30.862  0.00  0.00     0.053 A 
ATOM      4  C   UNL d   1      56.614   0.489  31.427  0.00  0.00     0.012 A 
ATOM      5  C   UNL d   1      57.205   0.682  30.880  0.00  0.00     0.009 A 
ENDROOT
BRANCH   3   6
ATOM      6  C   UNL d   1      58.425   0.026  30.392  0.00  0.00     0.117 A 
ATOM      7  N   UNL d   1      59.081   0.521  30.457  0.00  0.00    -0.238 NA
ATOM      8  C   UNL d   1      59.626   0.287  29.878  0.00  0.00     0.088 A 
ATOM      9  C   UNL d   1      60.372   0.574  29.680  0.00  0.00     0.020 A 
ATOM     10  C   UNL d   1      59.303  -0.347  29.461  0.00  0.00     0.049 A 
ATOM     11  C   UNL d   1      60.791   0.225  29.069  0.00  0.00     0.002 A 
ATOM     12  C   UNL d   1      60.468  -0.410  28.652  0.00  0.00     0.001 A 
ATOM     13  C   UNL d   1      59.726  -0.696  28.848  0.00  0.00     0.008 A 
ATOM     14  S   UNL d   1      58.557  -0.508  29.782  0.00  0.00    -0.066 SA
ENDBRANCH   3   6
BRANCH   1  15
ATOM     15  C   UNL d   1      56.355  -0.659  32.312  0.00  0.00     0.271 C 
ATOM     16  N   UNL d   1      56.276  -0.344  33.068  0.00  0.00    -0.267 N 
ATOM     17  C   UNL d   1      55.837  -0.752  33.631  0.00  0.00     0.110 A 
ATOM     18  C   UNL d   1      56.632   0.367  33.254  0.00  0.00     0.110 A 
ATOM     19  C   UNL d   1      55.755  -0.444  34.386  0.00  0.00     0.142 A 
ATOM     20  O   UNL d   1      56.113   0.274  34.578  0.00  0.00    -0.300 OA
ATOM     21  C   UNL d   1      56.552   0.682  34.014  0.00  0.00     0.142 A 
ATOM     22  O   UNL d   1      55.997  -1.377  32.120  0.00  0.00    -0.266 OA
ENDBRANCH   1  15
TORSDOF 2
ENDMDL
