MODEL 1
REMARK VINA RESULT:      67.2      0.000      0.000
REMARK  6 active torsions:
REMARK  status: ('A' for Active; 'I' for Inactive)
REMARK    1  A    between atoms: C_13  and  C_4 
REMARK    2  A    between atoms: C_20  and  C_7 
REMARK    3  A    between atoms: C_8  and  C_12 
REMARK       I    between atoms: N_9  and  C_8 
REMARK    4  A    between atoms: C_11  and  N_9 
REMARK       I    between atoms: C_12  and  N_19 
REMARK    5  A    between atoms: N_19  and  C_23 
REMARK    6  A    between atoms: C_23  and  C_20 
ROOT
ATOM      1  C   UNL d   1     -47.834  28.706  34.987  0.00  0.00     0.041 C 
ENDROOT
BRANCH   1   2
ATOM      2  C   UNL d   1     -47.543  29.351  35.411  0.00  0.00     0.093 A 
ATOM      3  N   UNL d   1     -47.600  30.142  35.195  0.00  0.00    -0.205 N 
ATOM      4  C   UNL d   1     -47.236  30.603  35.776  0.00  0.00     0.197 A 
ATOM      5  N   UNL d   1     -47.888  30.658  34.607  0.00  0.00    -0.144 NA
ATOM      6  N   UNL d   1     -47.298  31.397  35.552  0.00  0.00    -0.200 NA
ATOM      7  S   UNL d   1     -46.952  30.093  36.358  0.00  0.00    -0.046 SA
ATOM      8  C   UNL d   1     -47.698  31.432  34.833  0.00  0.00     0.184 A 
ATOM      9  C   UNL d   1     -47.142  29.319  36.132  0.00  0.00     0.058 A 
BRANCH   8  10
ATOM     10  C   UNL d   1     -47.877  32.119  34.413  0.00  0.00     0.038 A 
ATOM     11  C   UNL d   1     -47.444  32.804  34.543  0.00  0.00     0.003 A 
ATOM     12  C   UNL d   1     -46.832  32.804  35.090  0.00  0.00     0.000 C 
ATOM     13  C   UNL d   1     -47.624  33.494  34.121  0.00  0.00     0.000 A 
ATOM     14  C   UNL d   1     -48.244  33.484  33.570  0.00  0.00     0.000 A 
ATOM     15  C   UNL d   1     -48.678  32.799  33.440  0.00  0.00     0.000 A 
ATOM     16  C   UNL d   1     -48.496  32.109  33.863  0.00  0.00     0.003 A 
ENDBRANCH   8  10
ENDBRANCH   1   2
BRANCH   1  17
ATOM     17  C   UNL d   1     -48.636  28.660  34.804  0.00  0.00     0.104 C 
BRANCH  17  18
ATOM     18  N   UNL d   1     -49.000  27.932  34.744  0.00  0.00    -0.202 NA
ATOM     19  C   UNL d   1     -49.582  27.807  34.175  0.00  0.00     0.337 C 
ATOM     20  O   UNL d   1     -49.795  28.419  33.667  0.00  0.00    -0.260 OA
BRANCH  19  21
ATOM     21  C   UNL d   1     -49.946  27.078  34.115  0.00  0.00     0.337 C 
ATOM     22  N   UNL d   1     -50.574  26.959  33.585  0.00  0.00    -0.204 NA
ATOM     23  O   UNL d   1     -49.689  26.438  34.591  0.00  0.00    -0.260 OA
BRANCH  22  24
ATOM     24  C   UNL d   1     -50.942  26.224  33.524  0.00  0.00     0.085 A 
ATOM     25  C   UNL d   1     -51.763  26.184  33.384  0.00  0.00     0.018 A 
ATOM     26  C   UNL d   1     -52.148  25.470  33.321  0.00  0.00     0.002 A 
ATOM     27  C   UNL d   1     -52.199  26.876  33.308  0.00  0.00     0.002 C 
ATOM     28  C   UNL d   1     -51.713  24.756  33.397  0.00  0.00     0.000 A 
ATOM     29  C   UNL d   1     -50.883  24.796  33.538  0.00  0.00     0.002 A 
ATOM     30  C   UNL d   1     -50.507  25.538  33.600  0.00  0.00     0.019 A 
ATOM     31  C   UNL d   1     -50.449  24.106  33.613  0.00  0.00     0.000 C 
ENDBRANCH  22  24
ENDBRANCH  19  21
ENDBRANCH  17  18
ENDBRANCH   1  17
TORSDOF 6
ENDMDL
