MODEL 1
REMARK VINA RESULT:       1.1      0.000      0.000
REMARK  9 active torsions:
REMARK  status: ('A' for Active; 'I' for Inactive)
REMARK    1  A    between atoms: C_14  and  N_1 
REMARK    2  A    between atoms: C_8  and  C_2 
REMARK    3  A    between atoms: C_3  and  N_11 
REMARK    4  A    between atoms: S_16  and  C_4 
REMARK    5  A    between atoms: C_10  and  C_8 
REMARK       I    between atoms: N_11  and  C_17 
REMARK    6  A    between atoms: C_23  and  C_14 
REMARK    7  A    between atoms: C_22  and  S_16 
REMARK    8  A    between atoms: C_17  and  C_22 
REMARK    9  A    between atoms: C_25  and  C_23 
ROOT
ATOM      1  N   UNL d   1      57.274  -0.190  31.563  0.00  0.00    -0.268 N 
ATOM      2  C   UNL d   1      56.677  -0.525  32.027  0.00  0.00     0.172 A 
ATOM      3  C   UNL d   1      57.417  -0.692  30.926  0.00  0.00     0.201 A 
ATOM      4  N   UNL d   1      56.452  -1.233  31.678  0.00  0.00    -0.128 NA
ATOM      5  N   UNL d   1      56.905  -1.343  30.997  0.00  0.00    -0.121 NA
ENDROOT
BRANCH   3   6
ATOM      6  S   UNL d   1      57.965  -0.575  30.327  0.00  0.00    -0.043 SA
BRANCH   6   7
ATOM      7  C   UNL d   1      57.847  -0.912  29.584  0.00  0.00     0.101 C 
BRANCH   7   8
ATOM      8  C   UNL d   1      58.379  -1.474  29.295  0.00  0.00     0.288 C 
ATOM      9  N   UNL d   1      58.554  -2.137  29.744  0.00  0.00    -0.182 NA
ATOM     10  O   UNL d   1      58.732  -1.367  28.557  0.00  0.00    -0.265 OA
BRANCH   9  11
ATOM     11  C   UNL d   1      59.081  -2.697  29.463  0.00  0.00     0.197 A 
ATOM     12  N   UNL d   1      59.905  -2.618  29.427  0.00  0.00    -0.221 NA
ATOM     13  C   UNL d   1      60.213  -3.309  29.108  0.00  0.00     0.090 A 
ATOM     14  C   UNL d   1      60.980  -3.543  28.945  0.00  0.00     0.020 A 
ATOM     15  C   UNL d   1      59.587  -3.823  28.943  0.00  0.00     0.050 A 
ATOM     16  C   UNL d   1      61.132  -4.285  28.618  0.00  0.00     0.002 A 
ATOM     17  C   UNL d   1      60.499  -4.795  28.455  0.00  0.00     0.001 A 
ATOM     18  C   UNL d   1      59.739  -4.565  28.616  0.00  0.00     0.008 A 
ATOM     19  S   UNL d   1      58.878  -3.453  29.160  0.00  0.00    -0.047 SA
ENDBRANCH   9  11
ENDBRANCH   7   8
ENDBRANCH   6   7
ENDBRANCH   3   6
BRANCH   1  20
ATOM     20  C   UNL d   1      57.658   0.525  31.713  0.00  0.00     0.084 C 
BRANCH  20  21
ATOM     21  C   UNL d   1      58.397   0.681  31.359  0.00  0.00     0.019 C 
BRANCH  21  22
ATOM     22  C   UNL d   1      59.087   0.680  31.818  0.00  0.00     0.002 A 
ATOM     23  C   UNL d   1      59.027   0.678  32.635  0.00  0.00     0.000 A 
ATOM     24  C   UNL d   1      59.717   0.678  33.088  0.00  0.00     0.000 A 
ATOM     25  C   UNL d   1      60.458   0.679  32.715  0.00  0.00     0.000 A 
ATOM     26  C   UNL d   1      60.509   0.681  31.889  0.00  0.00     0.000 A 
ATOM     27  C   UNL d   1      59.813   0.682  31.446  0.00  0.00     0.000 A 
ENDBRANCH  21  22
ENDBRANCH  20  21
ENDBRANCH   1  20
BRANCH   2  28
ATOM     28  C   UNL d   1      56.362  -0.204  32.721  0.00  0.00     0.057 C 
BRANCH  28  29
ATOM     29  C   UNL d   1      55.863  -0.654  33.195  0.00  0.00     0.067 A 
ATOM     30  N   UNL d   1      55.136  -0.415  33.507  0.00  0.00    -0.303 N 
ATOM     31  C   UNL d   1      54.827  -1.042  33.947  0.00  0.00     0.080 A 
ATOM     32  C   UNL d   1      54.785   0.321  33.394  0.00  0.00     0.100 C 
ATOM     33  C   UNL d   1      55.358  -1.669  33.911  0.00  0.00     0.021 A 
ATOM     34  C   UNL d   1      55.998  -1.434  33.448  0.00  0.00     0.019 A 
ENDBRANCH  28  29
ENDBRANCH   2  28
TORSDOF 9
ENDMDL
