MODEL 1
REMARK VINA RESULT:      -1.6      0.000      0.000
REMARK  10 active torsions:
REMARK  status: ('A' for Active; 'I' for Inactive)
REMARK    1  A    between atoms: C_14  and  N_1 
REMARK    2  A    between atoms: N_9  and  C_2 
REMARK    3  A    between atoms: C_6  and  C_5 
REMARK    4  A    between atoms: C_7  and  C_6 
REMARK       I    between atoms: N_8  and  C_7 
REMARK    5  A    between atoms: C_10  and  N_8 
REMARK    6  A    between atoms: C_16  and  N_9 
REMARK    7  A    between atoms: O_15  and  C_13 
REMARK    8  A    between atoms: C_19  and  O_15 
REMARK    9  A    between atoms: C_21  and  C_19 
REMARK   10  A    between atoms: C_22  and  C_21 
ROOT
ATOM      1  C   UNL d   1      57.191  -0.103  31.339  0.00  0.00     0.280 C 
ATOM      2  N   UNL d   1      57.564  -0.622  30.820  0.00  0.00    -0.206 NA
ATOM      3  O   UNL d   1      57.439   0.679  31.389  0.00  0.00    -0.265 OA
ENDROOT
BRANCH   1   4
ATOM      4  C   UNL d   1      56.570  -0.377  31.807  0.00  0.00     0.074 C 
BRANCH   4   5
ATOM      5  C   UNL d   1      56.446  -0.072  32.560  0.00  0.00     0.093 A 
ATOM      6  C   UNL d   1      55.717   0.111  32.896  0.00  0.00     0.272 A 
ATOM      7  N   UNL d   1      55.851   0.400  33.654  0.00  0.00    -0.252 N 
ATOM      8  O   UNL d   1      54.983   0.022  32.538  0.00  0.00    -0.266 OA
ATOM      9  C   UNL d   1      56.662   0.395  33.788  0.00  0.00     0.182 A 
ATOM     10  S   UNL d   1      57.038   0.103  33.111  0.00  0.00    -0.045 SA
BRANCH   7  11
ATOM     11  C   UNL d   1      55.279   0.650  34.189  0.00  0.00     0.085 C 
ATOM     12  C   UNL d   1      54.933   0.100  34.705  0.00  0.00     0.021 C 
ENDBRANCH   7  11
BRANCH   9  13
ATOM     13  N   UNL d   1      57.044   0.641  34.479  0.00  0.00    -0.221 NA
BRANCH  13  14
ATOM     14  C   UNL d   1      57.859   0.580  34.539  0.00  0.00     0.101 C 
ATOM     15  C   UNL d   1      58.230   0.681  35.264  0.00  0.00     0.022 C 
ENDBRANCH  13  14
ENDBRANCH   9  13
ENDBRANCH   4   5
ENDBRANCH   1   4
BRANCH   2  16
ATOM     16  C   UNL d   1      58.185  -0.359  30.350  0.00  0.00     0.107 A 
ATOM     17  C   UNL d   1      58.540  -0.874  29.802  0.00  0.00     0.118 A 
ATOM     18  C   UNL d   1      59.164  -0.607  29.330  0.00  0.00     0.026 A 
ATOM     19  C   UNL d   1      59.429   0.171  29.408  0.00  0.00     0.002 A 
ATOM     20  C   UNL d   1      59.077   0.681  29.951  0.00  0.00     0.002 A 
ATOM     21  C   UNL d   1      58.456   0.418  30.421  0.00  0.00     0.021 A 
BRANCH  17  22
ATOM     22  O   UNL d   1      58.272  -1.647  29.729  0.00  0.00    -0.304 OA
BRANCH  22  23
ATOM     23  C   UNL d   1      58.600  -2.142  29.159  0.00  0.00     0.123 C 
BRANCH  23  24
ATOM     24  C   UNL d   1      58.540  -2.953  29.234  0.00  0.00     0.027 C 
BRANCH  24  25
ATOM     25  C   UNL d   1      58.373  -3.429  28.572  0.00  0.00     0.002 C 
ATOM     26  C   UNL d   1      58.161  -4.218  28.684  0.00  0.00     0.000 C 
ENDBRANCH  24  25
ENDBRANCH  23  24
ENDBRANCH  22  23
ENDBRANCH  17  22
ENDBRANCH   2  16
TORSDOF 10
ENDMDL
MODEL 2
REMARK VINA RESULT:      -0.1      1.289      5.220
REMARK  10 active torsions:
REMARK  status: ('A' for Active; 'I' for Inactive)
REMARK    1  A    between atoms: C_14  and  N_1 
REMARK    2  A    between atoms: N_9  and  C_2 
REMARK    3  A    between atoms: C_6  and  C_5 
REMARK    4  A    between atoms: C_7  and  C_6 
REMARK       I    between atoms: N_8  and  C_7 
REMARK    5  A    between atoms: C_10  and  N_8 
REMARK    6  A    between atoms: C_16  and  N_9 
REMARK    7  A    between atoms: O_15  and  C_13 
REMARK    8  A    between atoms: C_19  and  O_15 
REMARK    9  A    between atoms: C_21  and  C_19 
REMARK   10  A    between atoms: C_22  and  C_21 
ROOT
ATOM      1  C   UNL d   1      57.237  -0.032  31.612  0.00  0.00     0.280 C 
ATOM      2  N   UNL d   1      56.826  -0.264  32.287  0.00  0.00    -0.206 NA
ATOM      3  O   UNL d   1      57.848   0.514  31.669  0.00  0.00    -0.265 OA
ENDROOT
BRANCH   1   4
ATOM      4  C   UNL d   1      57.029  -0.354  30.882  0.00  0.00     0.074 C 
BRANCH   4   5
ATOM      5  C   UNL d   1      57.608  -0.587  30.346  0.00  0.00     0.093 A 
ATOM      6  C   UNL d   1      57.860  -0.160  29.689  0.00  0.00     0.272 A 
ATOM      7  N   UNL d   1      58.444  -0.598  29.310  0.00  0.00    -0.252 N 
ATOM      8  O   UNL d   1      57.578   0.574  29.451  0.00  0.00    -0.266 OA
ATOM      9  C   UNL d   1      58.554  -1.294  29.733  0.00  0.00     0.182 A 
ATOM     10  S   UNL d   1      58.036  -1.293  30.379  0.00  0.00    -0.045 SA
BRANCH   7  11
ATOM     11  C   UNL d   1      58.852  -0.382  28.629  0.00  0.00     0.085 C 
ATOM     12  C   UNL d   1      59.338   0.290  28.639  0.00  0.00     0.021 C 
ENDBRANCH   7  11
BRANCH   9  13
ATOM     13  N   UNL d   1      59.089  -1.897  29.549  0.00  0.00    -0.221 NA
BRANCH  13  14
ATOM     14  C   UNL d   1      58.820  -2.664  29.444  0.00  0.00     0.101 C 
ATOM     15  C   UNL d   1      59.326  -3.247  29.163  0.00  0.00     0.022 C 
ENDBRANCH  13  14
ENDBRANCH   9  13
ENDBRANCH   4   5
ENDBRANCH   1   4
BRANCH   2  16
ATOM     16  C   UNL d   1      57.026   0.051  33.019  0.00  0.00     0.107 A 
ATOM     17  C   UNL d   1      56.431   0.240  33.568  0.00  0.00     0.118 A 
ATOM     18  C   UNL d   1      56.634   0.557  34.304  0.00  0.00     0.026 A 
ATOM     19  C   UNL d   1      57.429   0.682  34.487  0.00  0.00     0.002 A 
ATOM     20  C   UNL d   1      58.019   0.494  33.943  0.00  0.00     0.002 A 
ATOM     21  C   UNL d   1      57.819   0.179  33.211  0.00  0.00     0.021 A 
BRANCH  17  22
ATOM     22  O   UNL d   1      55.641   0.113  33.380  0.00  0.00    -0.304 OA
BRANCH  22  23
ATOM     23  C   UNL d   1      55.059   0.245  33.946  0.00  0.00     0.123 C 
BRANCH  23  24
ATOM     24  C   UNL d   1      54.271   0.261  33.732  0.00  0.00     0.027 C 
BRANCH  24  25
ATOM     25  C   UNL d   1      53.711   0.655  34.205  0.00  0.00     0.002 C 
ATOM     26  C   UNL d   1      52.923   0.681  33.962  0.00  0.00     0.000 C 
ENDBRANCH  24  25
ENDBRANCH  23  24
ENDBRANCH  22  23
ENDBRANCH  17  22
ENDBRANCH   2  16
TORSDOF 10
ENDMDL
