MODEL 1
REMARK VINA RESULT:      93.8      0.000      0.000
REMARK  4 active torsions:
REMARK  status: ('A' for Active; 'I' for Inactive)
REMARK    1  A    between atoms: S_3  and  N_1 
REMARK    2  A    between atoms: C_9  and  S_3 
REMARK    3  A    between atoms: C_10  and  N_5 
REMARK    4  A    between atoms: C_15  and  C_10 
ROOT
ATOM      1  N   UNL d   1     -49.851  27.244  34.306  0.00  0.00    -0.195 N 
ATOM      2  C   UNL d   1     -49.964  27.245  35.114  0.00  0.00     0.193 A 
ATOM      3  C   UNL d   1     -49.393  27.575  35.609  0.00  0.00     0.185 A 
ATOM      4  N   UNL d   1     -48.802  27.843  35.112  0.00  0.00    -0.269 N 
ATOM      5  C   UNL d   1     -49.061  27.655  34.363  0.00  0.00     0.179 A 
ATOM      6  N   UNL d   1     -50.648  26.916  35.430  0.00  0.00    -0.223 NA
ATOM      7  N   UNL d   1     -49.509  27.575  36.424  0.00  0.00    -0.224 NA
ATOM      8  C   UNL d   1     -50.760  26.918  36.245  0.00  0.00     0.101 A 
ATOM      9  C   UNL d   1     -50.193  27.246  36.740  0.00  0.00     0.101 A 
ATOM     10  C   UNL d   1     -50.313  27.244  37.556  0.00  0.00     0.021 A 
ATOM     11  C   UNL d   1     -51.444  26.589  36.557  0.00  0.00     0.021 A 
ATOM     12  C   UNL d   1     -51.557  26.590  37.372  0.00  0.00     0.002 A 
ATOM     13  C   UNL d   1     -50.989  26.918  37.863  0.00  0.00     0.002 A 
ENDROOT
BRANCH   1  14
ATOM     14  S   UNL d   1     -50.491  26.878  33.798  0.00  0.00     0.274 S 
ATOM     15  O   UNL d   1     -50.982  27.435  33.307  0.00  0.00    -0.200 OA
ATOM     16  O   UNL d   1     -50.536  27.705  33.659  0.00  0.00    -0.200 OA
BRANCH  14  17
ATOM     17  C   UNL d   1     -50.740  26.105  33.676  0.00  0.00     0.104 A 
ATOM     18  C   UNL d   1     -51.542  25.907  33.779  0.00  0.00     0.013 A 
ATOM     19  C   UNL d   1     -51.787  25.122  33.654  0.00  0.00     0.001 A 
ATOM     20  C   UNL d   1     -51.241  24.545  33.429  0.00  0.00     0.000 A 
ATOM     21  C   UNL d   1     -50.439  24.752  33.328  0.00  0.00     0.001 A 
ATOM     22  C   UNL d   1     -51.487  23.769  33.306  0.00  0.00     0.000 C 
ATOM     23  C   UNL d   1     -50.194  25.527  33.451  0.00  0.00     0.013 A 
ENDBRANCH  14  17
ENDBRANCH   1  14
BRANCH   4  24
ATOM     24  C   UNL d   1     -48.099  28.220  35.327  0.00  0.00     0.108 C 
BRANCH  24  25
ATOM     25  C   UNL d   1     -48.011  29.038  35.215  0.00  0.00     0.118 A 
ATOM     26  O   UNL d   1     -48.573  29.544  34.875  0.00  0.00    -0.304 OA
ATOM     27  C   UNL d   1     -48.257  30.322  34.870  0.00  0.00     0.123 A 
ATOM     28  C   UNL d   1     -47.500  30.287  35.209  0.00  0.00     0.029 A 
ATOM     29  C   UNL d   1     -47.352  29.492  35.420  0.00  0.00     0.028 A 
ENDBRANCH  24  25
ENDBRANCH   4  24
TORSDOF 4
ENDMDL
