MODEL 1
REMARK VINA RESULT:      41.1      0.000      0.000
REMARK  2 active torsions:
REMARK  status: ('A' for Active; 'I' for Inactive)
REMARK    1  A    between atoms: C_9  and  C_3 
REMARK    2  A    between atoms: C_12  and  N_4 
ROOT
ATOM      1  C   UNL d   1     -58.423 -98.854 -44.089  0.00  0.00     0.035 A 
ATOM      2  C   UNL d   1     -57.614 -98.830 -43.932  0.00  0.00     0.065 A 
ATOM      3  C   UNL d   1     -58.523 -98.891 -44.901  0.00  0.00     0.166 A 
ATOM      4  N   UNL d   1     -57.219 -98.853 -44.653  0.00  0.00    -0.233 N 
ATOM      5  N   UNL d   1     -57.781 -98.891 -45.250  0.00  0.00    -0.159 NA
ATOM      6  C   UNL d   1     -57.772 -98.802 -43.215  0.00  0.00     0.057 A 
ATOM      7  C   UNL d   1     -58.636 -98.824 -43.313  0.00  0.00    -0.020 A 
ATOM      8  C   UNL d   1     -59.299 -98.821 -42.932  0.00  0.00     0.027 A 
ATOM      9  C   UNL d   1     -57.300 -98.764 -42.574  0.00  0.00    -0.021 A 
ATOM     10  C   UNL d   1     -58.048 -98.785 -42.700  0.00  0.00    -0.008 A 
ATOM     11  C   UNL d   1     -57.027 -98.787 -43.225  0.00  0.00     0.011 C 
ATOM     12  C   UNL d   1     -59.953 -98.851 -43.293  0.00  0.00     0.005 C 
ATOM     13  C   UNL d   1     -59.669 -98.801 -42.280  0.00  0.00     0.005 C 
ENDROOT
BRANCH   4  14
ATOM     14  C   UNL d   1     -56.382 -98.840 -44.759  0.00  0.00     0.083 A 
ATOM     15  C   UNL d   1     -56.060 -98.768 -45.543  0.00  0.00     0.019 A 
ATOM     16  C   UNL d   1     -55.227 -98.756 -45.644  0.00  0.00     0.002 A 
ATOM     17  C   UNL d   1     -54.716 -98.814 -44.980  0.00  0.00     0.000 A 
ATOM     18  C   UNL d   1     -55.043 -98.887 -44.197  0.00  0.00     0.002 A 
ATOM     19  C   UNL d   1     -55.876 -98.899 -44.100  0.00  0.00     0.019 A 
ENDBRANCH   4  14
BRANCH   3  20
ATOM     20  C   UNL d   1     -59.261 -98.924 -45.304  0.00  0.00     0.231 C 
ATOM     21  O   UNL d   1     -59.308 -98.755 -46.132  0.00  0.00    -0.643 OA
ATOM     22  O   UNL d   1     -59.961 -99.128 -44.874  0.00  0.00    -0.643 OA
ENDBRANCH   3  20
TORSDOF 2
ENDMDL
