MODEL 1
REMARK VINA RESULT:      -7.2      0.000      0.000
REMARK  8 active torsions:
REMARK  status: ('A' for Active; 'I' for Inactive)
REMARK    1  A    between atoms: N_6  and  C_1 
REMARK       I    between atoms: C_2  and  N_3 
REMARK    2  A    between atoms: C_7  and  C_2 
REMARK    3  A    between atoms: N_3  and  C_4 
REMARK    4  A    between atoms: C_4  and  N_6 
REMARK    5  A    between atoms: C_10  and  C_8 
REMARK    6  A    between atoms: C_12  and  C_10 
REMARK    7  A    between atoms: O_18  and  C_12 
REMARK    8  A    between atoms: C_21  and  O_18 
ROOT
ATOM      1  C   UNL d   1      51.775  34.126  53.264  0.00  0.00     0.277 C 
ATOM      2  S   UNL d   1      52.325  34.706  53.472  0.00  0.00    -0.023 SA
ENDROOT
BRANCH   1   3
ATOM      3  N   UNL d   1      51.988  33.330  53.319  0.00  0.00    -0.168 NA
ATOM      4  C   UNL d   1      52.780  33.108  53.283  0.00  0.00     0.282 C 
ATOM      5  O   UNL d   1      53.367  33.675  53.192  0.00  0.00    -0.265 OA
BRANCH   4   6
ATOM      6  C   UNL d   1      52.987  32.306  53.338  0.00  0.00     0.064 A 
ATOM      7  C   UNL d   1      53.578  32.073  53.858  0.00  0.00     0.039 A 
ATOM      8 BR   UNL d   1      53.966  32.624  54.323  0.00  0.00    -0.049 Br
ATOM      9  C   UNL d   1      53.779  31.273  53.908  0.00  0.00     0.007 A 
ATOM     10  C   UNL d   1      53.390  30.709  53.439  0.00  0.00     0.001 A 
ATOM     11  C   UNL d   1      52.795  30.961  52.918  0.00  0.00     0.000 A 
ATOM     12  C   UNL d   1      52.594  31.757  52.867  0.00  0.00     0.005 A 
ENDBRANCH   4   6
ENDBRANCH   1   3
BRANCH   1  13
ATOM     13  N   UNL d   1      51.026  34.341  53.007  0.00  0.00    -0.347 NA
BRANCH  13  14
ATOM     14  C   UNL d   1      50.270  34.557  52.749  0.00  0.00     0.248 A 
ATOM     15  N   UNL d   1      49.802  35.166  53.063  0.00  0.00    -0.210 NA
ATOM     16  C   UNL d   1      49.095  35.182  52.637  0.00  0.00     0.096 A 
ATOM     17  C   UNL d   1      49.124  34.585  52.062  0.00  0.00     0.059 A 
ATOM     18  S   UNL d   1      49.849  34.205  52.137  0.00  0.00    -0.033 SA
BRANCH  16  19
ATOM     19  C   UNL d   1      48.469  35.699  52.760  0.00  0.00     0.088 C 
BRANCH  19  20
ATOM     20  C   UNL d   1      48.293  35.980  53.516  0.00  0.00     0.302 C 
ATOM     21  O   UNL d   1      48.790  36.537  53.865  0.00  0.00    -0.259 OA
BRANCH  20  22
ATOM     22  O   UNL d   1      47.632  35.708  53.918  0.00  0.00    -0.271 OA
BRANCH  22  23
ATOM     23  C   UNL d   1      47.155  36.243  54.333  0.00  0.00     0.126 C 
ATOM     24  C   UNL d   1      46.453  35.981  54.671  0.00  0.00     0.029 C 
ENDBRANCH  22  23
ENDBRANCH  20  22
ENDBRANCH  19  20
ENDBRANCH  16  19
ENDBRANCH  13  14
ENDBRANCH   1  13
TORSDOF 8
ENDMDL
MODEL 2
REMARK VINA RESULT:      -6.9      1.633      2.652
REMARK  8 active torsions:
REMARK  status: ('A' for Active; 'I' for Inactive)
REMARK    1  A    between atoms: N_6  and  C_1 
REMARK       I    between atoms: C_2  and  N_3 
REMARK    2  A    between atoms: C_7  and  C_2 
REMARK    3  A    between atoms: N_3  and  C_4 
REMARK    4  A    between atoms: C_4  and  N_6 
REMARK    5  A    between atoms: C_10  and  C_8 
REMARK    6  A    between atoms: C_12  and  C_10 
REMARK    7  A    between atoms: O_18  and  C_12 
REMARK    8  A    between atoms: C_21  and  O_18 
ROOT
ATOM      1  C   UNL d   1      53.813  32.628  54.001  0.00  0.00     0.277 C 
ATOM      2  S   UNL d   1      54.624  32.783  54.023  0.00  0.00    -0.023 SA
ENDROOT
BRANCH   1   3
ATOM      3  N   UNL d   1      53.542  31.870  54.183  0.00  0.00    -0.168 NA
ATOM      4  C   UNL d   1      53.760  31.226  53.718  0.00  0.00     0.282 C 
ATOM      5  O   UNL d   1      54.249  31.331  53.066  0.00  0.00    -0.265 OA
BRANCH   4   6
ATOM      6  C   UNL d   1      53.483  30.467  53.907  0.00  0.00     0.064 A 
ATOM      7  C   UNL d   1      53.085  30.025  53.341  0.00  0.00     0.039 A 
ATOM      8 BR   UNL d   1      52.958  30.327  52.591  0.00  0.00    -0.049 Br
ATOM      9  C   UNL d   1      52.813  29.270  53.537  0.00  0.00     0.007 A 
ATOM     10  C   UNL d   1      52.939  28.958  54.296  0.00  0.00     0.001 A 
ATOM     11  C   UNL d   1      53.344  29.418  54.857  0.00  0.00     0.000 A 
ATOM     12  C   UNL d   1      53.615  30.170  54.664  0.00  0.00     0.005 A 
ENDBRANCH   4   6
ENDBRANCH   1   3
BRANCH   1  13
ATOM     13  N   UNL d   1      53.285  33.223  53.799  0.00  0.00    -0.347 NA
BRANCH  13  14
ATOM     14  C   UNL d   1      52.752  33.822  53.598  0.00  0.00     0.248 A 
ATOM     15  N   UNL d   1      52.102  33.748  53.087  0.00  0.00    -0.210 NA
ATOM     16  C   UNL d   1      51.728  34.482  53.049  0.00  0.00     0.096 A 
ATOM     17  C   UNL d   1      52.144  35.011  53.535  0.00  0.00     0.059 A 
ATOM     18  S   UNL d   1      52.771  34.598  53.869  0.00  0.00    -0.033 SA
BRANCH  16  19
ATOM     19  C   UNL d   1      51.059  34.662  52.608  0.00  0.00     0.088 C 
BRANCH  19  20
ATOM     20  C   UNL d   1      50.303  34.525  52.910  0.00  0.00     0.302 C 
ATOM     21  O   UNL d   1      50.046  33.749  53.015  0.00  0.00    -0.259 OA
BRANCH  20  22
ATOM     22  O   UNL d   1      49.811  35.152  53.104  0.00  0.00    -0.271 OA
BRANCH  22  23
ATOM     23  C   UNL d   1      49.007  35.116  52.913  0.00  0.00     0.126 C 
ATOM     24  C   UNL d   1      48.513  35.739  53.126  0.00  0.00     0.029 C 
ENDBRANCH  22  23
ENDBRANCH  20  22
ENDBRANCH  19  20
ENDBRANCH  16  19
ENDBRANCH  13  14
ENDBRANCH   1  13
TORSDOF 8
ENDMDL
MODEL 3
REMARK VINA RESULT:      -6.9      1.520      2.048
REMARK  8 active torsions:
REMARK  status: ('A' for Active; 'I' for Inactive)
REMARK    1  A    between atoms: N_6  and  C_1 
REMARK       I    between atoms: C_2  and  N_3 
REMARK    2  A    between atoms: C_7  and  C_2 
REMARK    3  A    between atoms: N_3  and  C_4 
REMARK    4  A    between atoms: C_4  and  N_6 
REMARK    5  A    between atoms: C_10  and  C_8 
REMARK    6  A    between atoms: C_12  and  C_10 
REMARK    7  A    between atoms: O_18  and  C_12 
REMARK    8  A    between atoms: C_21  and  O_18 
ROOT
ATOM      1  C   UNL d   1      52.369  32.781  53.259  0.00  0.00     0.277 C 
ATOM      2  S   UNL d   1      52.455  31.998  53.011  0.00  0.00    -0.023 SA
ENDROOT
BRANCH   1   3
ATOM      3  N   UNL d   1      52.910  33.095  53.798  0.00  0.00    -0.168 NA
ATOM      4  C   UNL d   1      53.646  32.741  53.904  0.00  0.00     0.282 C 
ATOM      5  O   UNL d   1      53.851  32.072  53.474  0.00  0.00    -0.265 OA
BRANCH   4   6
ATOM      6  C   UNL d   1      54.185  33.063  54.448  0.00  0.00     0.064 A 
ATOM      7  C   UNL d   1      54.911  33.342  54.185  0.00  0.00     0.039 A 
ATOM      8 BR   UNL d   1      55.108  33.308  53.391  0.00  0.00    -0.049 Br
ATOM      9  C   UNL d   1      55.442  33.661  54.732  0.00  0.00     0.007 A 
ATOM     10  C   UNL d   1      55.247  33.699  55.538  0.00  0.00     0.001 A 
ATOM     11  C   UNL d   1      54.509  33.411  55.787  0.00  0.00     0.000 A 
ATOM     12  C   UNL d   1      53.979  33.094  55.244  0.00  0.00     0.005 A 
ENDBRANCH   4   6
ENDBRANCH   1   3
BRANCH   1  13
ATOM     13  N   UNL d   1      51.751  33.239  52.972  0.00  0.00    -0.347 NA
BRANCH  13  14
ATOM     14  C   UNL d   1      51.129  33.700  52.682  0.00  0.00     0.248 A 
ATOM     15  N   UNL d   1      50.387  33.801  53.040  0.00  0.00    -0.210 NA
ATOM     16  C   UNL d   1      49.943  34.303  52.559  0.00  0.00     0.096 A 
ATOM     17  C   UNL d   1      50.408  34.514  51.904  0.00  0.00     0.059 A 
ATOM     18  S   UNL d   1      51.135  34.139  51.987  0.00  0.00    -0.033 SA
BRANCH  16  19
ATOM     19  C   UNL d   1      49.174  34.554  52.701  0.00  0.00     0.088 C 
BRANCH  19  20
ATOM     20  C   UNL d   1      49.023  35.312  52.991  0.00  0.00     0.302 C 
ATOM     21  O   UNL d   1      49.467  35.598  53.624  0.00  0.00    -0.259 OA
BRANCH  20  22
ATOM     22  O   UNL d   1      48.438  35.779  52.655  0.00  0.00    -0.271 OA
BRANCH  22  23
ATOM     23  C   UNL d   1      47.948  36.236  53.141  0.00  0.00     0.126 C 
ATOM     24  C   UNL d   1      47.341  36.676  52.803  0.00  0.00     0.029 C 
ENDBRANCH  22  23
ENDBRANCH  20  22
ENDBRANCH  19  20
ENDBRANCH  16  19
ENDBRANCH  13  14
ENDBRANCH   1  13
TORSDOF 8
ENDMDL
MODEL 4
REMARK VINA RESULT:      -6.8      2.076      5.597
REMARK  8 active torsions:
REMARK  status: ('A' for Active; 'I' for Inactive)
REMARK    1  A    between atoms: N_6  and  C_1 
REMARK       I    between atoms: C_2  and  N_3 
REMARK    2  A    between atoms: C_7  and  C_2 
REMARK    3  A    between atoms: N_3  and  C_4 
REMARK    4  A    between atoms: C_4  and  N_6 
REMARK    5  A    between atoms: C_10  and  C_8 
REMARK    6  A    between atoms: C_12  and  C_10 
REMARK    7  A    between atoms: O_18  and  C_12 
REMARK    8  A    between atoms: C_21  and  O_18 
ROOT
ATOM      1  C   UNL d   1      52.138  34.042  52.877  0.00  0.00     0.277 C 
ATOM      2  S   UNL d   1      52.382  34.723  53.276  0.00  0.00    -0.023 SA
ENDROOT
BRANCH   1   3
ATOM      3  N   UNL d   1      51.488  34.082  52.370  0.00  0.00    -0.168 NA
ATOM      4  C   UNL d   1      50.790  34.444  52.615  0.00  0.00     0.282 C 
ATOM      5  O   UNL d   1      50.732  34.769  53.367  0.00  0.00    -0.265 OA
BRANCH   4   6
ATOM      6  C   UNL d   1      50.140  34.481  52.099  0.00  0.00     0.064 A 
ATOM      7  C   UNL d   1      49.421  34.771  52.370  0.00  0.00     0.039 A 
ATOM      8 BR   UNL d   1      49.338  35.023  53.145  0.00  0.00    -0.049 Br
ATOM      9  C   UNL d   1      48.779  34.805  51.852  0.00  0.00     0.007 A 
ATOM     10  C   UNL d   1      48.857  34.550  51.065  0.00  0.00     0.001 A 
ATOM     11  C   UNL d   1      49.590  34.261  50.807  0.00  0.00     0.000 A 
ATOM     12  C   UNL d   1      50.231  34.226  51.322  0.00  0.00     0.005 A 
ENDBRANCH   4   6
ENDBRANCH   1   3
BRANCH   1  13
ATOM     13  N   UNL d   1      52.539  33.334  52.986  0.00  0.00    -0.347 NA
BRANCH  13  14
ATOM     14  C   UNL d   1      52.943  32.621  53.098  0.00  0.00     0.248 A 
ATOM     15  N   UNL d   1      52.696  31.873  52.838  0.00  0.00    -0.210 NA
ATOM     16  C   UNL d   1      53.268  31.326  53.070  0.00  0.00     0.096 A 
ATOM     17  C   UNL d   1      53.869  31.733  53.473  0.00  0.00     0.059 A 
ATOM     18  S   UNL d   1      53.662  32.528  53.486  0.00  0.00    -0.033 SA
BRANCH  16  19
ATOM     19  C   UNL d   1      53.250  30.517  52.929  0.00  0.00     0.088 C 
BRANCH  19  20
ATOM     20  C   UNL d   1      52.873  30.004  53.455  0.00  0.00     0.302 C 
ATOM     21  O   UNL d   1      52.070  29.844  53.356  0.00  0.00    -0.259 OA
BRANCH  20  22
ATOM     22  O   UNL d   1      53.290  29.657  54.070  0.00  0.00    -0.271 OA
BRANCH  22  23
ATOM     23  C   UNL d   1      53.120  28.877  54.292  0.00  0.00     0.126 C 
ATOM     24  C   UNL d   1      53.491  28.555  54.951  0.00  0.00     0.029 C 
ENDBRANCH  22  23
ENDBRANCH  20  22
ENDBRANCH  19  20
ENDBRANCH  16  19
ENDBRANCH  13  14
ENDBRANCH   1  13
TORSDOF 8
ENDMDL
MODEL 5
REMARK VINA RESULT:      -6.7      1.857      5.816
REMARK  8 active torsions:
REMARK  status: ('A' for Active; 'I' for Inactive)
REMARK    1  A    between atoms: N_6  and  C_1 
REMARK       I    between atoms: C_2  and  N_3 
REMARK    2  A    between atoms: C_7  and  C_2 
REMARK    3  A    between atoms: N_3  and  C_4 
REMARK    4  A    between atoms: C_4  and  N_6 
REMARK    5  A    between atoms: C_10  and  C_8 
REMARK    6  A    between atoms: C_12  and  C_10 
REMARK    7  A    between atoms: O_18  and  C_12 
REMARK    8  A    between atoms: C_21  and  O_18 
ROOT
ATOM      1  C   UNL d   1      49.958  34.515  52.473  0.00  0.00     0.277 C 
ATOM      2  S   UNL d   1      49.750  34.213  51.733  0.00  0.00    -0.023 SA
ENDROOT
BRANCH   1   3
ATOM      3  N   UNL d   1      49.419  34.989  52.881  0.00  0.00    -0.168 NA
ATOM      4  C   UNL d   1      48.754  35.288  52.498  0.00  0.00     0.282 C 
ATOM      5  O   UNL d   1      48.620  35.120  51.705  0.00  0.00    -0.265 OA
BRANCH   4   6
ATOM      6  C   UNL d   1      48.216  35.764  52.914  0.00  0.00     0.064 A 
ATOM      7  C   UNL d   1      47.541  36.041  52.538  0.00  0.00     0.039 A 
ATOM      8 BR   UNL d   1      47.394  35.853  51.755  0.00  0.00    -0.049 Br
ATOM      9  C   UNL d   1      47.010  36.513  52.959  0.00  0.00     0.007 A 
ATOM     10  C   UNL d   1      47.154  36.707  53.753  0.00  0.00     0.001 A 
ATOM     11  C   UNL d   1      47.841  36.419  54.119  0.00  0.00     0.000 A 
ATOM     12  C   UNL d   1      48.371  35.949  53.702  0.00  0.00     0.005 A 
ENDBRANCH   4   6
ENDBRANCH   1   3
BRANCH   1  13
ATOM     13  N   UNL d   1      50.693  34.346  52.796  0.00  0.00    -0.347 NA
BRANCH  13  14
ATOM     14  C   UNL d   1      51.434  34.174  53.121  0.00  0.00     0.248 A 
ATOM     15  N   UNL d   1      51.686  33.435  53.402  0.00  0.00    -0.210 NA
ATOM     16  C   UNL d   1      52.460  33.521  53.674  0.00  0.00     0.096 A 
ATOM     17  C   UNL d   1      52.688  34.311  53.563  0.00  0.00     0.059 A 
ATOM     18  S   UNL d   1      52.053  34.706  53.222  0.00  0.00    -0.033 SA
BRANCH  16  19
ATOM     19  C   UNL d   1      52.927  32.929  54.000  0.00  0.00     0.088 C 
BRANCH  19  20
ATOM     20  C   UNL d   1      53.303  32.374  53.519  0.00  0.00     0.302 C 
ATOM     21  O   UNL d   1      54.005  32.579  53.139  0.00  0.00    -0.259 OA
BRANCH  20  22
ATOM     22  O   UNL d   1      52.984  31.625  53.418  0.00  0.00    -0.271 OA
BRANCH  22  23
ATOM     23  C   UNL d   1      53.479  30.962  53.438  0.00  0.00     0.126 C 
ATOM     24  C   UNL d   1      53.159  30.214  53.314  0.00  0.00     0.029 C 
ENDBRANCH  22  23
ENDBRANCH  20  22
ENDBRANCH  19  20
ENDBRANCH  16  19
ENDBRANCH  13  14
ENDBRANCH   1  13
TORSDOF 8
ENDMDL
MODEL 6
REMARK VINA RESULT:      -6.6      2.338      5.777
REMARK  8 active torsions:
REMARK  status: ('A' for Active; 'I' for Inactive)
REMARK    1  A    between atoms: N_6  and  C_1 
REMARK       I    between atoms: C_2  and  N_3 
REMARK    2  A    between atoms: C_7  and  C_2 
REMARK    3  A    between atoms: N_3  and  C_4 
REMARK    4  A    between atoms: C_4  and  N_6 
REMARK    5  A    between atoms: C_10  and  C_8 
REMARK    6  A    between atoms: C_12  and  C_10 
REMARK    7  A    between atoms: O_18  and  C_12 
REMARK    8  A    between atoms: C_21  and  O_18 
ROOT
ATOM      1  C   UNL d   1      49.374  34.711  52.194  0.00  0.00     0.277 C 
ATOM      2  S   UNL d   1      49.186  34.622  51.394  0.00  0.00    -0.023 SA
ENDROOT
BRANCH   1   3
ATOM      3  N   UNL d   1      48.841  35.099  52.691  0.00  0.00    -0.168 NA
ATOM      4  C   UNL d   1      48.226  35.546  52.375  0.00  0.00     0.282 C 
ATOM      5  O   UNL d   1      48.134  35.610  51.562  0.00  0.00    -0.265 OA
BRANCH   4   6
ATOM      6  C   UNL d   1      47.694  35.934  52.882  0.00  0.00     0.064 A 
ATOM      7  C   UNL d   1      46.939  36.118  52.616  0.00  0.00     0.039 A 
ATOM      8 BR   UNL d   1      46.706  35.923  51.856  0.00  0.00    -0.049 Br
ATOM      9  C   UNL d   1      46.416  36.504  53.125  0.00  0.00     0.007 A 
ATOM     10  C   UNL d   1      46.647  36.704  53.897  0.00  0.00     0.001 A 
ATOM     11  C   UNL d   1      47.413  36.511  54.151  0.00  0.00     0.000 A 
ATOM     12  C   UNL d   1      47.936  36.127  53.645  0.00  0.00     0.005 A 
ENDBRANCH   4   6
ENDBRANCH   1   3
BRANCH   1  13
ATOM     13  N   UNL d   1      50.081  34.416  52.488  0.00  0.00    -0.347 NA
BRANCH  13  14
ATOM     14  C   UNL d   1      50.793  34.120  52.786  0.00  0.00     0.248 A 
ATOM     15  N   UNL d   1      51.504  34.541  52.862  0.00  0.00    -0.210 NA
ATOM     16  C   UNL d   1      52.065  34.028  53.183  0.00  0.00     0.096 A 
ATOM     17  C   UNL d   1      51.703  33.291  53.306  0.00  0.00     0.059 A 
ATOM     18  S   UNL d   1      50.923  33.356  53.059  0.00  0.00    -0.033 SA
BRANCH  16  19
ATOM     19  C   UNL d   1      52.848  34.212  53.353  0.00  0.00     0.088 C 
BRANCH  19  20
ATOM     20  C   UNL d   1      53.089  34.358  54.129  0.00  0.00     0.302 C 
ATOM     21  O   UNL d   1      52.864  35.061  54.495  0.00  0.00    -0.259 OA
BRANCH  20  22
ATOM     22  O   UNL d   1      53.547  33.810  54.533  0.00  0.00    -0.271 OA
BRANCH  22  23
ATOM     23  C   UNL d   1      54.233  34.058  54.924  0.00  0.00     0.126 C 
ATOM     24  C   UNL d   1      54.814  33.506  55.110  0.00  0.00     0.029 C 
ENDBRANCH  22  23
ENDBRANCH  20  22
ENDBRANCH  19  20
ENDBRANCH  16  19
ENDBRANCH  13  14
ENDBRANCH   1  13
TORSDOF 8
ENDMDL
MODEL 7
REMARK VINA RESULT:      -4.9      9.660     10.433
REMARK  8 active torsions:
REMARK  status: ('A' for Active; 'I' for Inactive)
REMARK    1  A    between atoms: N_6  and  C_1 
REMARK       I    between atoms: C_2  and  N_3 
REMARK    2  A    between atoms: C_7  and  C_2 
REMARK    3  A    between atoms: N_3  and  C_4 
REMARK    4  A    between atoms: C_4  and  N_6 
REMARK    5  A    between atoms: C_10  and  C_8 
REMARK    6  A    between atoms: C_12  and  C_10 
REMARK    7  A    between atoms: O_18  and  C_12 
REMARK    8  A    between atoms: C_21  and  O_18 
ROOT
ATOM      1  C   UNL d   1      44.784  28.560  57.579  0.00  0.00     0.277 C 
ATOM      2  S   UNL d   1      45.067  28.655  56.808  0.00  0.00    -0.023 SA
ENDROOT
BRANCH   1   3
ATOM      3  N   UNL d   1      44.579  27.804  57.842  0.00  0.00    -0.168 NA
ATOM      4  C   UNL d   1      45.050  27.155  57.653  0.00  0.00     0.282 C 
ATOM      5  O   UNL d   1      45.728  27.252  57.201  0.00  0.00    -0.265 OA
BRANCH   4   6
ATOM      6  C   UNL d   1      44.837  26.399  57.921  0.00  0.00     0.064 A 
ATOM      7  C   UNL d   1      44.643  25.814  57.379  0.00  0.00     0.039 A 
ATOM      8 BR   UNL d   1      44.656  25.970  56.575  0.00  0.00    -0.049 Br
ATOM      9  C   UNL d   1      44.433  25.064  57.653  0.00  0.00     0.007 A 
ATOM     10  C   UNL d   1      44.417  24.900  58.467  0.00  0.00     0.001 A 
ATOM     11  C   UNL d   1      44.617  25.502  59.002  0.00  0.00     0.000 A 
ATOM     12  C   UNL d   1      44.826  26.249  58.731  0.00  0.00     0.005 A 
ENDBRANCH   4   6
ENDBRANCH   1   3
BRANCH   1  13
ATOM     13  N   UNL d   1      44.708  29.209  58.074  0.00  0.00    -0.347 NA
BRANCH  13  14
ATOM     14  C   UNL d   1      44.632  29.863  58.575  0.00  0.00     0.248 A 
ATOM     15  N   UNL d   1      44.483  29.838  59.392  0.00  0.00    -0.210 NA
ATOM     16  C   UNL d   1      44.451  30.617  59.663  0.00  0.00     0.096 A 
ATOM     17  C   UNL d   1      44.579  31.123  59.018  0.00  0.00     0.059 A 
ATOM     18  S   UNL d   1      44.689  30.652  58.354  0.00  0.00    -0.033 SA
BRANCH  16  19
ATOM     19  C   UNL d   1      44.315  30.854  60.438  0.00  0.00     0.088 C 
BRANCH  19  20
ATOM     20  C   UNL d   1      44.729  30.509  61.064  0.00  0.00     0.302 C 
ATOM     21  O   UNL d   1      45.550  30.576  61.091  0.00  0.00    -0.259 OA
BRANCH  20  22
ATOM     22  O   UNL d   1      44.328  30.104  61.655  0.00  0.00    -0.271 OA
BRANCH  22  23
ATOM     23  C   UNL d   1      44.540  30.220  62.447  0.00  0.00     0.126 C 
ATOM     24  C   UNL d   1      44.388  29.627  62.996  0.00  0.00     0.029 C 
ENDBRANCH  22  23
ENDBRANCH  20  22
ENDBRANCH  19  20
ENDBRANCH  16  19
ENDBRANCH  13  14
ENDBRANCH   1  13
TORSDOF 8
ENDMDL
MODEL 8
REMARK VINA RESULT:      -4.8      9.925     11.285
REMARK  8 active torsions:
REMARK  status: ('A' for Active; 'I' for Inactive)
REMARK    1  A    between atoms: N_6  and  C_1 
REMARK       I    between atoms: C_2  and  N_3 
REMARK    2  A    between atoms: C_7  and  C_2 
REMARK    3  A    between atoms: N_3  and  C_4 
REMARK    4  A    between atoms: C_4  and  N_6 
REMARK    5  A    between atoms: C_10  and  C_8 
REMARK    6  A    between atoms: C_12  and  C_10 
REMARK    7  A    between atoms: O_18  and  C_12 
REMARK    8  A    between atoms: C_21  and  O_18 
ROOT
ATOM      1  C   UNL d   1      44.783  27.167  57.677  0.00  0.00     0.277 C 
ATOM      2  S   UNL d   1      45.066  27.022  58.439  0.00  0.00    -0.023 SA
ENDROOT
BRANCH   1   3
ATOM      3  N   UNL d   1      44.613  27.943  57.451  0.00  0.00    -0.168 NA
ATOM      4  C   UNL d   1      45.110  28.560  57.675  0.00  0.00     0.282 C 
ATOM      5  O   UNL d   1      45.781  28.412  58.125  0.00  0.00    -0.265 OA
BRANCH   4   6
ATOM      6  C   UNL d   1      44.933  29.338  57.444  0.00  0.00     0.064 A 
ATOM      7  C   UNL d   1      44.937  29.940  58.002  0.00  0.00     0.039 A 
ATOM      8 BR   UNL d   1      45.113  29.780  58.786  0.00  0.00    -0.049 Br
ATOM      9  C   UNL d   1      44.760  30.711  57.765  0.00  0.00     0.007 A 
ATOM     10  C   UNL d   1      44.580  30.879  56.972  0.00  0.00     0.001 A 
ATOM     11  C   UNL d   1      44.581  30.260  56.420  0.00  0.00     0.000 A 
ATOM     12  C   UNL d   1      44.757  29.491  56.654  0.00  0.00     0.005 A 
ENDBRANCH   4   6
ENDBRANCH   1   3
BRANCH   1  13
ATOM     13  N   UNL d   1      44.673  26.546  57.152  0.00  0.00    -0.347 NA
BRANCH  13  14
ATOM     14  C   UNL d   1      44.560  25.920  56.623  0.00  0.00     0.248 A 
ATOM     15  N   UNL d   1      44.609  25.112  56.804  0.00  0.00    -0.210 NA
ATOM     16  C   UNL d   1      44.458  24.691  56.111  0.00  0.00     0.096 A 
ATOM     17  C   UNL d   1      44.315  25.236  55.501  0.00  0.00     0.059 A 
ATOM     18  S   UNL d   1      44.379  25.989  55.824  0.00  0.00    -0.033 SA
BRANCH  16  19
ATOM     19  C   UNL d   1      44.449  23.873  56.033  0.00  0.00     0.088 C 
BRANCH  19  20
ATOM     20  C   UNL d   1      44.991  23.489  55.543  0.00  0.00     0.302 C 
ATOM     21  O   UNL d   1      44.886  23.516  54.726  0.00  0.00    -0.259 OA
BRANCH  20  22
ATOM     22  O   UNL d   1      45.628  23.084  55.864  0.00  0.00    -0.271 OA
BRANCH  22  23
ATOM     23  C   UNL d   1      45.763  22.296  55.649  0.00  0.00     0.126 C 
ATOM     24  C   UNL d   1      45.990  21.753  56.224  0.00  0.00     0.029 C 
ENDBRANCH  22  23
ENDBRANCH  20  22
ENDBRANCH  19  20
ENDBRANCH  16  19
ENDBRANCH  13  14
ENDBRANCH   1  13
TORSDOF 8
ENDMDL
