MODEL 1
REMARK VINA RESULT:      21.4      0.000      0.000
REMARK  6 active torsions:
REMARK  status: ('A' for Active; 'I' for Inactive)
REMARK    1  A    between atoms: C_7  and  N_1 
REMARK    2  A    between atoms: S_10  and  C_2 
REMARK    3  A    between atoms: C_22  and  S_10 
REMARK    4  A    between atoms: C_13  and  C_22 
REMARK       I    between atoms: N_17  and  C_13 
REMARK    5  A    between atoms: C_14  and  C_23 
REMARK    6  A    between atoms: C_23  and  N_17 
ROOT
ATOM      1  N   UNL d   1      46.237 -18.809  42.741  0.00  0.00    -0.254 N 
ATOM      2  C   UNL d   1      46.168 -17.987  42.778  0.00  0.00     0.183 A 
ATOM      3  N   UNL d   1      46.246 -17.530  42.098  0.00  0.00    -0.201 NA
ATOM      4  C   UNL d   1      46.388 -19.166  42.008  0.00  0.00     0.271 A 
ATOM      5  C   UNL d   1      46.465 -18.707  41.336  0.00  0.00     0.115 A 
ATOM      6  C   UNL d   1      46.395 -17.891  41.379  0.00  0.00     0.192 A 
ATOM      7  N   UNL d   1      46.633 -18.218  40.113  0.00  0.00    -0.145 NA
ATOM      8  N   UNL d   1      46.499 -17.588  40.620  0.00  0.00    -0.128 NA
ATOM      9  C   UNL d   1      46.613 -18.918  40.552  0.00  0.00     0.130 A 
ATOM     10  O   UNL d   1      46.459 -19.990  41.967  0.00  0.00    -0.266 OA
ENDROOT
BRANCH   2  11
ATOM     11  S   UNL d   1      46.017 -17.618  43.507  0.00  0.00    -0.044 SA
BRANCH  11  12
ATOM     12  C   UNL d   1      46.336 -16.875  43.663  0.00  0.00     0.101 C 
BRANCH  12  13
ATOM     13  C   UNL d   1      45.932 -16.343  44.147  0.00  0.00     0.286 C 
ATOM     14  N   UNL d   1      45.654 -15.630  43.829  0.00  0.00    -0.204 NA
ATOM     15  O   UNL d   1      45.804 -16.515  44.945  0.00  0.00    -0.265 OA
BRANCH  14  16
ATOM     16  C   UNL d   1      45.250 -15.096  44.312  0.00  0.00     0.127 C 
BRANCH  16  17
ATOM     17  C   UNL d   1      45.417 -14.287  44.258  0.00  0.00     0.119 A 
ATOM     18  O   UNL d   1      45.919 -13.860  44.742  0.00  0.00    -0.304 OA
ATOM     19  C   UNL d   1      45.922 -13.074  44.493  0.00  0.00     0.123 A 
ATOM     20  C   UNL d   1      45.418 -13.013  43.851  0.00  0.00     0.029 A 
ATOM     21  C   UNL d   1      45.103 -13.755  43.700  0.00  0.00     0.028 A 
ENDBRANCH  16  17
ENDBRANCH  14  16
ENDBRANCH  12  13
ENDBRANCH  11  12
ENDBRANCH   2  11
BRANCH   1  22
ATOM     22  C   UNL d   1      46.159 -19.263  43.416  0.00  0.00     0.075 A 
ATOM     23  C   UNL d   1      45.594 -19.868  43.444  0.00  0.00     0.051 A 
ATOM     24 BR   UNL d   1      45.114 -20.010  42.793  0.00  0.00    -0.048 Br
ATOM     25  C   UNL d   1      45.515 -20.325  44.124  0.00  0.00     0.008 A 
ATOM     26  C   UNL d   1      45.999 -20.180  44.778  0.00  0.00     0.001 A 
ATOM     27  C   UNL d   1      46.562 -19.575  44.746  0.00  0.00     0.002 A 
ATOM     28  C   UNL d   1      46.642 -19.118  44.066  0.00  0.00     0.018 A 
ENDBRANCH   1  22
TORSDOF 6
ENDMDL
