MODEL 1
REMARK VINA RESULT:      52.7      0.000      0.000
REMARK  7 active torsions:
REMARK  status: ('A' for Active; 'I' for Inactive)
REMARK    1  A    between atoms: C_2  and  S_1 
REMARK    2  A    between atoms: N_3  and  S_1 
REMARK    3  A    between atoms: C_16  and  N_3 
REMARK    4  A    between atoms: C_4  and  C_8 
REMARK       I    between atoms: N_5  and  C_4 
REMARK    5  A    between atoms: C_17  and  N_5 
REMARK    6  A    between atoms: C_20  and  C_16 
REMARK    7  A    between atoms: C_18  and  C_17 
ROOT
ATOM      1  C   UNL d   1      13.351  13.716  -4.136  0.00  0.00     0.058 A 
ATOM      2  C   UNL d   1      13.612  14.367  -3.700  0.00  0.00     0.005 A 
ATOM      3  C   UNL d   1      13.067  13.827  -4.903  0.00  0.00     0.005 A 
ATOM      4  C   UNL d   1      13.306  15.235  -4.792  0.00  0.00     0.020 A 
ATOM      5  C   UNL d   1      13.590  15.124  -4.026  0.00  0.00     0.002 A 
ATOM      6  C   UNL d   1      13.045  14.594  -5.230  0.00  0.00     0.002 A 
ENDROOT
BRANCH   4   7
ATOM      7  C   UNL d   1      13.285  15.991  -5.113  0.00  0.00     0.112 C 
BRANCH   7   8
ATOM      8  N   UNL d   1      13.982  16.350  -5.357  0.00  0.00    -0.157 NA
BRANCH   8   9
ATOM      9  S   UNL d   1      14.000  17.162  -5.527  0.00  0.00     0.285 S 
ATOM     10  O   UNL d   1      13.524  17.037  -6.184  0.00  0.00    -0.198 OA
ATOM     11  O   UNL d   1      14.478  17.283  -4.869  0.00  0.00    -0.198 OA
BRANCH   9  12
ATOM     12  C   UNL d   1      14.025  17.972  -5.690  0.00  0.00     0.105 A 
ATOM     13  C   UNL d   1      13.421  18.324  -6.117  0.00  0.00     0.012 A 
ATOM     14  C   UNL d   1      13.447  19.129  -6.277  0.00  0.00     0.001 A 
ATOM     15  C   UNL d   1      12.784  17.855  -6.385  0.00  0.00     0.001 C 
ATOM     16  C   UNL d   1      14.083  19.590  -6.008  0.00  0.00     0.000 A 
ATOM     17  C   UNL d   1      14.689  19.228  -5.577  0.00  0.00     0.001 A 
ATOM     18  C   UNL d   1      14.662  18.419  -5.417  0.00  0.00     0.013 A 
ATOM     19  C   UNL d   1      15.324  19.689  -5.309  0.00  0.00     0.000 C 
ENDBRANCH   9  12
ENDBRANCH   8   9
ENDBRANCH   7   8
ENDBRANCH   4   7
BRANCH   1  20
ATOM     20  C   UNL d   1      13.372  12.962  -3.812  0.00  0.00     0.279 C 
ATOM     21  N   UNL d   1      13.809  12.820  -3.134  0.00  0.00    -0.205 NA
ATOM     22  O   UNL d   1      12.953  12.347  -4.174  0.00  0.00    -0.265 OA
BRANCH  21  23
ATOM     23  C   UNL d   1      13.833  12.062  -2.805  0.00  0.00     0.121 C 
BRANCH  23  24
ATOM     24  C   UNL d   1      14.022  11.973  -2.008  0.00  0.00     0.101 A 
ATOM     25  N   UNL d   1      13.418  11.873  -1.460  0.00  0.00    -0.242 NA
ATOM     26  C   UNL d   1      13.613  11.785  -0.669  0.00  0.00     0.099 A 
ATOM     27  C   UNL d   1      14.395  11.796  -0.423  0.00  0.00     0.021 A 
ATOM     28  C   UNL d   1      14.994  11.898  -0.986  0.00  0.00     0.003 A 
ATOM     29  C   UNL d   1      14.802  11.987  -1.781  0.00  0.00     0.021 A 
ENDBRANCH  23  24
ENDBRANCH  21  23
ENDBRANCH   1  20
TORSDOF 7
ENDMDL
