MODEL 1
REMARK VINA RESULT:      27.5      0.000      0.000
REMARK  3 active torsions:
REMARK  status: ('A' for Active; 'I' for Inactive)
REMARK    1  A    between atoms: N_9  and  C_5 
REMARK    2  A    between atoms: C_12  and  N_9 
REMARK    3  A    between atoms: C_13  and  C_12 
ROOT
ATOM      1  C   UNL d   1      13.250  13.170  -3.736  0.00  0.00     0.153 A 
ATOM      2  O   UNL d   1      13.474  13.898  -3.427  0.00  0.00    -0.302 OA
ATOM      3  C   UNL d   1      13.116  13.265  -4.545  0.00  0.00     0.111 A 
ATOM      4  C   UNL d   1      13.261  14.059  -4.733  0.00  0.00     0.043 A 
ATOM      5  C   UNL d   1      13.148  12.427  -3.382  0.00  0.00     0.189 A 
ATOM      6  C   UNL d   1      13.480  14.446  -4.045  0.00  0.00     0.102 A 
ATOM      7  N   UNL d   1      12.914  11.782  -3.841  0.00  0.00    -0.203 NA
ATOM      8  N   UNL d   1      12.883  12.616  -4.995  0.00  0.00    -0.222 NA
ATOM      9  C   UNL d   1      12.781  11.877  -4.650  0.00  0.00     0.201 A 
ATOM     10  C   UNL d   1      13.216  14.462  -5.444  0.00  0.00     0.004 A 
ATOM     11  C   UNL d   1      13.659  15.250  -4.069  0.00  0.00     0.025 A 
ATOM     12  C   UNL d   1      13.395  15.266  -5.469  0.00  0.00     0.000 A 
ATOM     13  C   UNL d   1      13.616  15.661  -4.781  0.00  0.00     0.002 A 
ENDROOT
BRANCH   5  14
ATOM     14  N   UNL d   1      13.282  12.332  -2.569  0.00  0.00    -0.222 NA
BRANCH  14  15
ATOM     15  C   UNL d   1      13.836  11.779  -2.310  0.00  0.00     0.120 C 
BRANCH  15  16
ATOM     16  C   UNL d   1      14.142  11.839  -1.547  0.00  0.00     0.101 A 
ATOM     17  N   UNL d   1      14.954  11.937  -1.433  0.00  0.00    -0.242 NA
ATOM     18  C   UNL d   1      15.270  11.998  -0.670  0.00  0.00     0.099 A 
ATOM     19  C   UNL d   1      14.763  11.961  -0.014  0.00  0.00     0.021 A 
ATOM     20  C   UNL d   1      13.951  11.863  -0.128  0.00  0.00     0.003 A 
ATOM     21  C   UNL d   1      13.642  11.803  -0.895  0.00  0.00     0.021 A 
ENDBRANCH  15  16
ENDBRANCH  14  15
ENDBRANCH   5  14
TORSDOF 3
ENDMDL
