MODEL 1
REMARK VINA RESULT:      -2.9      0.000      0.000
REMARK  2 active torsions:
REMARK  status: ('A' for Active; 'I' for Inactive)
REMARK    1  A    between atoms: C_6  and  N_1 
REMARK    2  A    between atoms: C_7  and  C_6 
ROOT
ATOM      1  N   UNL d   1      31.164  16.529 -23.749  0.00  0.00    -0.287 N 
ATOM      2  N   UNL d   1      30.515  15.453 -23.251  0.00  0.00    -0.224 NA
ATOM      3  C   UNL d   1      31.272  15.828 -23.326  0.00  0.00     0.183 A 
ATOM      4  C   UNL d   1      30.381  16.601 -23.935  0.00  0.00     0.083 A 
ATOM      5  C   UNL d   1      29.971  15.921 -23.621  0.00  0.00     0.099 A 
ATOM      6  C   UNL d   1      29.963  17.181 -24.346  0.00  0.00     0.019 A 
ATOM      7  C   UNL d   1      29.145  15.879 -23.749  0.00  0.00     0.021 A 
ATOM      8  C   UNL d   1      29.148  17.105 -24.453  0.00  0.00     0.002 A 
ATOM      9  C   UNL d   1      28.752  16.448 -24.149  0.00  0.00     0.002 A 
ENDROOT
BRANCH   1  10
ATOM     10  C   UNL d   1      31.133  17.212 -24.147  0.00  0.00     0.082 C 
BRANCH  10  11
ATOM     11  C   UNL d   1      31.828  17.645 -24.244  0.00  0.00     0.018 A 
ATOM     12  C   UNL d   1      32.213  17.650 -24.974  0.00  0.00     0.002 A 
ATOM     13  C   UNL d   1      32.912  18.084 -25.074  0.00  0.00     0.000 A 
ATOM     14  C   UNL d   1      33.223  18.513 -24.441  0.00  0.00     0.000 A 
ATOM     15  C   UNL d   1      32.835  18.507 -23.708  0.00  0.00     0.000 A 
ATOM     16  C   UNL d   1      32.139  18.074 -23.611  0.00  0.00     0.002 A 
ENDBRANCH  10  11
ENDBRANCH   1  10
TORSDOF 2
ENDMDL
MODEL 2
REMARK VINA RESULT:      -2.8      1.043      3.363
REMARK  2 active torsions:
REMARK  status: ('A' for Active; 'I' for Inactive)
REMARK    1  A    between atoms: C_6  and  N_1 
REMARK    2  A    between atoms: C_7  and  C_6 
ROOT
ATOM      1  N   UNL d   1      31.327  15.955 -24.357  0.00  0.00    -0.287 N 
ATOM      2  N   UNL d   1      32.488  15.718 -25.008  0.00  0.00    -0.224 NA
ATOM      3  C   UNL d   1      31.689  15.453 -24.903  0.00  0.00     0.183 A 
ATOM      4  C   UNL d   1      31.864  16.513 -24.123  0.00  0.00     0.083 A 
ATOM      5  C   UNL d   1      32.597  16.362 -24.535  0.00  0.00     0.099 A 
ATOM      6  C   UNL d   1      31.809  17.144 -23.596  0.00  0.00     0.019 A 
ATOM      7  C   UNL d   1      33.237  16.877 -24.377  0.00  0.00     0.021 A 
ATOM      8  C   UNL d   1      32.462  17.631 -23.465  0.00  0.00     0.002 A 
ATOM      9  C   UNL d   1      33.170  17.486 -23.863  0.00  0.00     0.002 A 
ENDROOT
BRANCH   1  10
ATOM     10  C   UNL d   1      30.920  16.397 -23.841  0.00  0.00     0.082 C 
BRANCH  10  11
ATOM     11  C   UNL d   1      30.133  16.202 -23.690  0.00  0.00     0.018 A 
ATOM     12  C   UNL d   1      29.949  15.650 -23.105  0.00  0.00     0.002 A 
ATOM     13  C   UNL d   1      29.159  15.453 -22.950  0.00  0.00     0.000 A 
ATOM     14  C   UNL d   1      28.555  15.810 -23.384  0.00  0.00     0.000 A 
ATOM     15  C   UNL d   1      28.741  16.365 -23.971  0.00  0.00     0.000 A 
ATOM     16  C   UNL d   1      29.529  16.560 -24.123  0.00  0.00     0.002 A 
ENDBRANCH  10  11
ENDBRANCH   1  10
TORSDOF 2
ENDMDL
MODEL 3
REMARK VINA RESULT:      -2.3      1.595      3.574
REMARK  2 active torsions:
REMARK  status: ('A' for Active; 'I' for Inactive)
REMARK    1  A    between atoms: C_6  and  N_1 
REMARK    2  A    between atoms: C_7  and  C_6 
ROOT
ATOM      1  N   UNL d   1      32.603  18.207 -23.170  0.00  0.00    -0.287 N 
ATOM      2  N   UNL d   1      33.044  19.373 -22.645  0.00  0.00    -0.224 NA
ATOM      3  C   UNL d   1      32.769  18.592 -22.458  0.00  0.00     0.183 A 
ATOM      4  C   UNL d   1      32.762  18.712 -23.780  0.00  0.00     0.083 A 
ATOM      5  C   UNL d   1      33.041  19.448 -23.449  0.00  0.00     0.099 A 
ATOM      6  C   UNL d   1      32.700  18.626 -24.598  0.00  0.00     0.019 A 
ATOM      7  C   UNL d   1      33.241  20.058 -23.985  0.00  0.00     0.021 A 
ATOM      8  C   UNL d   1      32.906  19.250 -25.096  0.00  0.00     0.002 A 
ATOM      9  C   UNL d   1      33.176  19.961 -24.776  0.00  0.00     0.002 A 
ENDROOT
BRANCH   1  10
ATOM     10  C   UNL d   1      32.424  17.780 -23.812  0.00  0.00     0.082 C 
BRANCH  10  11
ATOM     11  C   UNL d   1      32.157  17.007 -23.710  0.00  0.00     0.018 A 
ATOM     12  C   UNL d   1      32.698  16.385 -23.662  0.00  0.00     0.002 A 
ATOM     13  C   UNL d   1      32.431  15.607 -23.560  0.00  0.00     0.000 A 
ATOM     14  C   UNL d   1      31.622  15.455 -23.505  0.00  0.00     0.000 A 
ATOM     15  C   UNL d   1      31.080  16.080 -23.553  0.00  0.00     0.000 A 
ATOM     16  C   UNL d   1      31.348  16.854 -23.655  0.00  0.00     0.002 A 
ENDBRANCH  10  11
ENDBRANCH   1  10
TORSDOF 2
ENDMDL
MODEL 4
REMARK VINA RESULT:      -2.2      0.948      1.625
REMARK  2 active torsions:
REMARK  status: ('A' for Active; 'I' for Inactive)
REMARK    1  A    between atoms: C_6  and  N_1 
REMARK    2  A    between atoms: C_7  and  C_6 
ROOT
ATOM      1  N   UNL d   1      30.083  17.205 -24.393  0.00  0.00    -0.287 N 
ATOM      2  N   UNL d   1      28.741  17.328 -24.510  0.00  0.00    -0.224 NA
ATOM      3  C   UNL d   1      29.488  17.664 -24.735  0.00  0.00     0.183 A 
ATOM      4  C   UNL d   1      29.739  16.607 -23.972  0.00  0.00     0.083 A 
ATOM      5  C   UNL d   1      28.892  16.685 -24.047  0.00  0.00     0.099 A 
ATOM      6  C   UNL d   1      30.059  15.993 -23.525  0.00  0.00     0.019 A 
ATOM      7  C   UNL d   1      28.419  16.118 -23.652  0.00  0.00     0.021 A 
ATOM      8  C   UNL d   1      29.561  15.452 -23.149  0.00  0.00     0.002 A 
ATOM      9  C   UNL d   1      28.742  15.528 -23.221  0.00  0.00     0.002 A 
ENDROOT
BRANCH   1  10
ATOM     10  C   UNL d   1      30.702  16.811 -24.096  0.00  0.00     0.082 C 
BRANCH  10  11
ATOM     11  C   UNL d   1      31.461  17.088 -24.258  0.00  0.00     0.018 A 
ATOM     12  C   UNL d   1      31.822  17.627 -23.748  0.00  0.00     0.002 A 
ATOM     13  C   UNL d   1      32.585  17.907 -23.909  0.00  0.00     0.000 A 
ATOM     14  C   UNL d   1      32.985  17.645 -24.581  0.00  0.00     0.000 A 
ATOM     15  C   UNL d   1      32.621  17.104 -25.093  0.00  0.00     0.000 A 
ATOM     16  C   UNL d   1      31.861  16.826 -24.931  0.00  0.00     0.002 A 
ENDBRANCH  10  11
ENDBRANCH   1  10
TORSDOF 2
ENDMDL
MODEL 5
REMARK VINA RESULT:      -2.2      3.886      5.620
REMARK  2 active torsions:
REMARK  status: ('A' for Active; 'I' for Inactive)
REMARK    1  A    between atoms: C_6  and  N_1 
REMARK    2  A    between atoms: C_7  and  C_6 
ROOT
ATOM      1  N   UNL d   1      32.565  21.110 -21.405  0.00  0.00    -0.287 N 
ATOM      2  N   UNL d   1      32.022  22.004 -20.547  0.00  0.00    -0.224 NA
ATOM      3  C   UNL d   1      32.125  21.177 -20.709  0.00  0.00     0.183 A 
ATOM      4  C   UNL d   1      32.735  21.852 -21.675  0.00  0.00     0.083 A 
ATOM      5  C   UNL d   1      32.392  22.416 -21.134  0.00  0.00     0.099 A 
ATOM      6  C   UNL d   1      33.152  22.116 -22.336  0.00  0.00     0.019 A 
ATOM      7  C   UNL d   1      32.500  23.228 -21.307  0.00  0.00     0.021 A 
ATOM      8  C   UNL d   1      33.238  22.925 -22.474  0.00  0.00     0.002 A 
ATOM      9  C   UNL d   1      32.907  23.470 -21.951  0.00  0.00     0.002 A 
ENDROOT
BRANCH   1  10
ATOM     10  C   UNL d   1      32.981  20.973 -22.064  0.00  0.00     0.082 C 
BRANCH  10  11
ATOM     11  C   UNL d   1      33.068  20.195 -22.322  0.00  0.00     0.018 A 
ATOM     12  C   UNL d   1      33.068  20.025 -23.129  0.00  0.00     0.002 A 
ATOM     13  C   UNL d   1      33.154  19.244 -23.391  0.00  0.00     0.000 A 
ATOM     14  C   UNL d   1      33.241  18.634 -22.842  0.00  0.00     0.000 A 
ATOM     15  C   UNL d   1      33.241  18.806 -22.031  0.00  0.00     0.000 A 
ATOM     16  C   UNL d   1      33.154  19.586 -21.773  0.00  0.00     0.002 A 
ENDBRANCH  10  11
ENDBRANCH   1  10
TORSDOF 2
ENDMDL
MODEL 6
REMARK VINA RESULT:      -2.1      4.448      6.022
REMARK  2 active torsions:
REMARK  status: ('A' for Active; 'I' for Inactive)
REMARK    1  A    between atoms: C_6  and  N_1 
REMARK    2  A    between atoms: C_7  and  C_6 
ROOT
ATOM      1  N   UNL d   1      32.939  21.688 -22.005  0.00  0.00    -0.287 N 
ATOM      2  N   UNL d   1      33.137  21.104 -23.209  0.00  0.00    -0.224 NA
ATOM      3  C   UNL d   1      33.008  21.844 -22.813  0.00  0.00     0.183 A 
ATOM      4  C   UNL d   1      33.019  20.893 -21.888  0.00  0.00     0.083 A 
ATOM      5  C   UNL d   1      33.143  20.524 -22.648  0.00  0.00     0.099 A 
ATOM      6  C   UNL d   1      32.998  20.431 -21.205  0.00  0.00     0.019 A 
ATOM      7  C   UNL d   1      33.241  19.693 -22.660  0.00  0.00     0.021 A 
ATOM      8  C   UNL d   1      33.098  19.614 -21.255  0.00  0.00     0.002 A 
ATOM      9  C   UNL d   1      33.219  19.258 -21.989  0.00  0.00     0.002 A 
ENDROOT
BRANCH   1  10
ATOM     10  C   UNL d   1      32.864  21.611 -21.221  0.00  0.00     0.082 C 
BRANCH  10  11
ATOM     11  C   UNL d   1      32.735  22.287 -20.768  0.00  0.00     0.018 A 
ATOM     12  C   UNL d   1      33.240  22.467 -20.141  0.00  0.00     0.002 A 
ATOM     13  C   UNL d   1      33.112  23.147 -19.684  0.00  0.00     0.000 A 
ATOM     14  C   UNL d   1      32.477  23.644 -19.858  0.00  0.00     0.000 A 
ATOM     15  C   UNL d   1      31.970  23.463 -20.488  0.00  0.00     0.000 A 
ATOM     16  C   UNL d   1      32.100  22.785 -20.942  0.00  0.00     0.002 A 
ENDBRANCH  10  11
ENDBRANCH   1  10
TORSDOF 2
ENDMDL
MODEL 7
REMARK VINA RESULT:      -1.6      3.478      5.022
REMARK  2 active torsions:
REMARK  status: ('A' for Active; 'I' for Inactive)
REMARK    1  A    between atoms: C_6  and  N_1 
REMARK    2  A    between atoms: C_7  and  C_6 
ROOT
ATOM      1  N   UNL d   1      33.078  20.276 -21.689  0.00  0.00    -0.287 N 
ATOM      2  N   UNL d   1      33.241  18.934 -21.666  0.00  0.00    -0.224 NA
ATOM      3  C   UNL d   1      33.166  19.629 -21.184  0.00  0.00     0.183 A 
ATOM      4  C   UNL d   1      33.096  20.013 -22.452  0.00  0.00     0.083 A 
ATOM      5  C   UNL d   1      33.199  19.166 -22.438  0.00  0.00     0.099 A 
ATOM      6  C   UNL d   1      33.035  20.409 -23.173  0.00  0.00     0.019 A 
ATOM      7  C   UNL d   1      33.233  18.771 -23.175  0.00  0.00     0.021 A 
ATOM      8  C   UNL d   1      33.073  19.986 -23.881  0.00  0.00     0.002 A 
ATOM      9  C   UNL d   1      33.172  19.167 -23.867  0.00  0.00     0.002 A 
ENDROOT
BRANCH   1  10
ATOM     10  C   UNL d   1      32.991  20.939 -22.112  0.00  0.00     0.082 C 
BRANCH  10  11
ATOM     11  C   UNL d   1      32.853  21.648 -21.714  0.00  0.00     0.018 A 
ATOM     12  C   UNL d   1      32.328  21.668 -21.077  0.00  0.00     0.002 A 
ATOM     13  C   UNL d   1      32.188  22.379 -20.675  0.00  0.00     0.000 A 
ATOM     14  C   UNL d   1      32.574  23.068 -20.913  0.00  0.00     0.000 A 
ATOM     15  C   UNL d   1      33.101  23.046 -21.553  0.00  0.00     0.000 A 
ATOM     16  C   UNL d   1      33.239  22.337 -21.952  0.00  0.00     0.002 A 
ENDBRANCH  10  11
ENDBRANCH   1  10
TORSDOF 2
ENDMDL
MODEL 8
REMARK VINA RESULT:      -1.5      2.795      4.725
REMARK  2 active torsions:
REMARK  status: ('A' for Active; 'I' for Inactive)
REMARK    1  A    between atoms: C_6  and  N_1 
REMARK    2  A    between atoms: C_7  and  C_6 
ROOT
ATOM      1  N   UNL d   1      33.167  20.099 -22.988  0.00  0.00    -0.287 N 
ATOM      2  N   UNL d   1      33.240  21.448 -23.045  0.00  0.00    -0.224 NA
ATOM      3  C   UNL d   1      33.237  20.737 -23.508  0.00  0.00     0.183 A 
ATOM      4  C   UNL d   1      33.127  20.384 -22.233  0.00  0.00     0.083 A 
ATOM      5  C   UNL d   1      33.173  21.236 -22.270  0.00  0.00     0.099 A 
ATOM      6  C   UNL d   1      33.055  20.006 -21.504  0.00  0.00     0.019 A 
ATOM      7  C   UNL d   1      33.142  21.652 -21.544  0.00  0.00     0.021 A 
ATOM      8  C   UNL d   1      33.027  20.450 -20.809  0.00  0.00     0.002 A 
ATOM      9  C   UNL d   1      33.072  21.273 -20.844  0.00  0.00     0.002 A 
ENDROOT
BRANCH   1  10
ATOM     10  C   UNL d   1      33.102  19.444 -22.549  0.00  0.00     0.082 C 
BRANCH  10  11
ATOM     11  C   UNL d   1      32.987  18.722 -22.930  0.00  0.00     0.018 A 
ATOM     12  C   UNL d   1      33.241  18.022 -22.575  0.00  0.00     0.002 A 
ATOM     13  C   UNL d   1      33.127  17.295 -22.956  0.00  0.00     0.000 A 
ATOM     14  C   UNL d   1      32.758  17.272 -23.694  0.00  0.00     0.000 A 
ATOM     15  C   UNL d   1      32.504  17.977 -24.051  0.00  0.00     0.000 A 
ATOM     16  C   UNL d   1      32.619  18.699 -23.668  0.00  0.00     0.002 A 
ENDBRANCH  10  11
ENDBRANCH   1  10
TORSDOF 2
ENDMDL
MODEL 9
REMARK VINA RESULT:      -1.4      5.759      6.901
REMARK  2 active torsions:
REMARK  status: ('A' for Active; 'I' for Inactive)
REMARK    1  A    between atoms: C_6  and  N_1 
REMARK    2  A    between atoms: C_7  and  C_6 
ROOT
ATOM      1  N   UNL d   1      32.435  22.265 -21.247  0.00  0.00    -0.287 N 
ATOM      2  N   UNL d   1      31.880  21.691 -20.155  0.00  0.00    -0.224 NA
ATOM      3  C   UNL d   1      31.959  21.637 -20.998  0.00  0.00     0.183 A 
ATOM      4  C   UNL d   1      32.650  22.698 -20.600  0.00  0.00     0.083 A 
ATOM      5  C   UNL d   1      32.299  22.336 -19.910  0.00  0.00     0.099 A 
ATOM      6  C   UNL d   1      33.114  23.375 -20.519  0.00  0.00     0.019 A 
ATOM      7  C   UNL d   1      32.449  22.696 -19.170  0.00  0.00     0.021 A 
ATOM      8  C   UNL d   1      33.240  23.702 -19.772  0.00  0.00     0.002 A 
ATOM      9  C   UNL d   1      32.902  23.352 -19.106  0.00  0.00     0.002 A 
ENDROOT
BRANCH   1  10
ATOM     10  C   UNL d   1      32.883  22.841 -21.553  0.00  0.00     0.082 C 
BRANCH  10  11
ATOM     11  C   UNL d   1      32.929  22.911 -22.373  0.00  0.00     0.018 A 
ATOM     12  C   UNL d   1      32.711  23.617 -22.741  0.00  0.00     0.002 A 
ATOM     13  C   UNL d   1      32.757  23.690 -23.565  0.00  0.00     0.000 A 
ATOM     14  C   UNL d   1      33.022  23.055 -24.019  0.00  0.00     0.000 A 
ATOM     15  C   UNL d   1      33.241  22.346 -23.649  0.00  0.00     0.000 A 
ATOM     16  C   UNL d   1      33.194  22.276 -22.828  0.00  0.00     0.002 A 
ENDBRANCH  10  11
ENDBRANCH   1  10
TORSDOF 2
ENDMDL
