MODEL 1
REMARK VINA RESULT:       0.6      0.000      0.000
REMARK  4 active torsions:
REMARK  status: ('A' for Active; 'I' for Inactive)
REMARK    1  A    between atoms: N_4  and  C_2 
REMARK       I    between atoms: C_3  and  N_4 
REMARK    2  A    between atoms: C_10  and  C_3 
REMARK    3  A    between atoms: C_12  and  N_4 
REMARK    4  A    between atoms: O_18  and  C_15 
ROOT
ATOM      1  C   UNL d   1      30.482  17.950 -23.952  0.00  0.00     0.265 C 
ATOM      2  N   UNL d   1      30.407  16.712 -24.108  0.00  0.00    -0.274 N 
ATOM      3  O   UNL d   1      29.789  18.265 -23.706  0.00  0.00    -0.267 OA
ENDROOT
BRANCH   2   4
ATOM      4  C   UNL d   1      31.066  16.359 -24.349  0.00  0.00     0.079 A 
ATOM      5  C   UNL d   1      31.619  16.044 -23.888  0.00  0.00     0.116 A 
ATOM      6  S   UNL d   1      32.179  15.750 -24.348  0.00  0.00     0.213 S 
ATOM      7  C   UNL d   1      31.970  15.886 -25.092  0.00  0.00     0.100 A 
ATOM      8  O   UNL d   1      32.740  15.457 -24.809  0.00  0.00    -0.217 OA
ATOM      9  O   UNL d   1      32.416  15.601 -23.623  0.00  0.00    -0.217 OA
ATOM     10  C   UNL d   1      31.288  16.259 -25.092  0.00  0.00     0.030 A 
ENDBRANCH   2   4
BRANCH   2  11
ATOM     11  C   UNL d   1      29.711  16.296 -23.966  0.00  0.00     0.067 A 
ATOM     12  C   UNL d   1      29.201  16.147 -24.586  0.00  0.00     0.018 A 
ATOM     13  C   UNL d   1      28.491  15.723 -24.445  0.00  0.00     0.002 A 
ATOM     14  C   UNL d   1      28.312  15.459 -23.686  0.00  0.00     0.000 A 
ATOM     15  C   UNL d   1      28.829  15.610 -23.061  0.00  0.00     0.002 A 
ATOM     16  C   UNL d   1      29.529  16.026 -23.192  0.00  0.00     0.018 A 
ENDBRANCH   2  11
BRANCH   1  17
ATOM     17  C   UNL d   1      31.168  18.388 -24.087  0.00  0.00     0.057 A 
ATOM     18  C   UNL d   1      31.702  18.550 -23.463  0.00  0.00     0.007 A 
ATOM     19  C   UNL d   1      32.384  18.988 -23.610  0.00  0.00     0.024 A 
ATOM     20  C   UNL d   1      32.547  19.271 -24.371  0.00  0.00     0.094 A 
ATOM     21  C   UNL d   1      32.027  19.117 -24.992  0.00  0.00     0.024 A 
ATOM     22  C   UNL d   1      31.328  18.672 -24.859  0.00  0.00     0.007 A 
BRANCH  20  23
ATOM     23  O   UNL d   1      33.241  19.714 -24.510  0.00  0.00    -0.328 OA
ATOM     24  C   UNL d   1      33.230  20.365 -25.036  0.00  0.00     0.181 C 
ENDBRANCH  20  23
ENDBRANCH   1  17
TORSDOF 4
ENDMDL
MODEL 2
REMARK VINA RESULT:       3.2      1.739      4.346
REMARK  4 active torsions:
REMARK  status: ('A' for Active; 'I' for Inactive)
REMARK    1  A    between atoms: N_4  and  C_2 
REMARK       I    between atoms: C_3  and  N_4 
REMARK    2  A    between atoms: C_10  and  C_3 
REMARK    3  A    between atoms: C_12  and  N_4 
REMARK    4  A    between atoms: O_18  and  C_15 
ROOT
ATOM      1  C   UNL d   1      30.241  15.974 -23.299  0.00  0.00     0.265 C 
ATOM      2  N   UNL d   1      30.770  16.927 -23.912  0.00  0.00    -0.274 N 
ATOM      3  O   UNL d   1      30.785  15.507 -22.943  0.00  0.00    -0.267 OA
ENDROOT
BRANCH   2   4
ATOM      4  C   UNL d   1      30.273  17.414 -24.278  0.00  0.00     0.079 A 
ATOM      5  C   UNL d   1      30.121  18.158 -24.077  0.00  0.00     0.116 A 
ATOM      6  S   UNL d   1      29.598  18.443 -24.583  0.00  0.00     0.213 S 
ATOM      7  C   UNL d   1      29.428  17.873 -25.096  0.00  0.00     0.100 A 
ATOM      8  O   UNL d   1      29.074  18.728 -25.090  0.00  0.00    -0.217 OA
ATOM      9  O   UNL d   1      29.743  19.029 -24.093  0.00  0.00    -0.217 OA
ATOM     10  C   UNL d   1      29.843  17.242 -24.908  0.00  0.00     0.030 A 
ENDBRANCH   2   4
BRANCH   2  11
ATOM     11  C   UNL d   1      31.585  17.035 -23.930  0.00  0.00     0.067 A 
ATOM     12  C   UNL d   1      32.012  16.756 -24.568  0.00  0.00     0.018 A 
ATOM     13  C   UNL d   1      32.844  16.865 -24.589  0.00  0.00     0.002 A 
ATOM     14  C   UNL d   1      33.226  17.252 -23.970  0.00  0.00     0.000 A 
ATOM     15  C   UNL d   1      32.792  17.533 -23.326  0.00  0.00     0.002 A 
ATOM     16  C   UNL d   1      31.974  17.429 -23.298  0.00  0.00     0.018 A 
ENDBRANCH   2  11
BRANCH   1  17
ATOM     17  C   UNL d   1      29.426  15.845 -23.267  0.00  0.00     0.057 A 
ATOM     18  C   UNL d   1      29.010  15.579 -23.943  0.00  0.00     0.007 A 
ATOM     19  C   UNL d   1      28.197  15.454 -23.900  0.00  0.00     0.024 A 
ATOM     20  C   UNL d   1      27.786  15.589 -23.193  0.00  0.00     0.094 A 
ATOM     21  C   UNL d   1      28.189  15.852 -22.522  0.00  0.00     0.024 A 
ATOM     22  C   UNL d   1      29.016  15.984 -22.550  0.00  0.00     0.007 A 
BRANCH  20  23
ATOM     23  O   UNL d   1      26.962  15.460 -23.160  0.00  0.00    -0.328 OA
ATOM     24  C   UNL d   1      26.486  15.575 -23.838  0.00  0.00     0.181 C 
ENDBRANCH  20  23
ENDBRANCH   1  17
TORSDOF 4
ENDMDL
