MODEL 1
REMARK VINA RESULT:     167.9      0.000      0.000
REMARK  4 active torsions:
REMARK  status: ('A' for Active; 'I' for Inactive)
REMARK    1  A    between atoms: N_10  and  C_5 
REMARK    2  A    between atoms: C_12  and  N_6 
REMARK    3  A    between atoms: C_19  and  N_11 
REMARK    4  A    between atoms: C_20  and  C_12 
ROOT
ATOM      1  C   UNL d   1      62.352  43.730  50.926  0.00  0.00     0.191 A 
ATOM      2  C   UNL d   1      62.063  43.717  50.145  0.00  0.00     0.173 A 
ATOM      3  N   UNL d   1      62.227  44.495  51.213  0.00  0.00    -0.042 NA
ATOM      4  N   UNL d   1      62.692  43.026  51.265  0.00  0.00    -0.240 N 
ATOM      5  C   UNL d   1      61.856  44.966  50.603  0.00  0.00     0.722 A 
ATOM      6  N   UNL d   1      61.775  44.453  49.972  0.00  0.00    -0.133 N 
ATOM      7  N   UNL d   1      62.450  42.346  50.069  0.00  0.00    -0.223 N 
ATOM      8  C   UNL d   1      62.747  42.341  50.857  0.00  0.00     0.343 A 
ATOM      9  C   UNL d   1      62.120  43.014  49.729  0.00  0.00     0.288 A 
ATOM     10  O   UNL d   1      63.081  41.651  51.190  0.00  0.00    -0.245 OA
ATOM     11  O   UNL d   1      61.838  42.984  48.950  0.00  0.00    -0.265 OA
ATOM     12  C   UNL d   1      62.972  43.048  52.029  0.00  0.00     0.105 C 
ATOM     13  C   UNL d   1      62.485  41.647  49.595  0.00  0.00     0.107 C 
ENDROOT
BRANCH   5  14
ATOM     14  N   UNL d   1      61.614  45.775  50.612  0.00  0.00    -0.136 N 
ATOM     15  C   UNL d   1      61.103  46.040  51.220  0.00  0.00     0.117 A 
ATOM     16  C   UNL d   1      60.861  46.844  51.231  0.00  0.00     0.100 A 
ATOM     17  N   UNL d   1      61.131  47.377  50.635  0.00  0.00    -0.301 N 
ATOM     18  C   UNL d   1      61.642  47.095  50.033  0.00  0.00     0.100 A 
ATOM     19  C   UNL d   1      61.887  46.296  50.016  0.00  0.00     0.117 A 
BRANCH  17  20
ATOM     20  C   UNL d   1      60.850  48.155  50.711  0.00  0.00     0.064 A 
ATOM     21  C   UNL d   1      60.301  48.344  51.304  0.00  0.00     0.018 A 
ATOM     22  C   UNL d   1      60.028  49.119  51.372  0.00  0.00     0.002 A 
ATOM     23  C   UNL d   1      60.300  49.707  50.852  0.00  0.00     0.000 A 
ATOM     24  C   UNL d   1      60.851  49.517  50.256  0.00  0.00     0.002 A 
ATOM     25  C   UNL d   1      61.125  48.741  50.187  0.00  0.00     0.018 A 
ENDBRANCH  17  20
ENDBRANCH   5  14
BRANCH   6  26
ATOM     26  C   UNL d   1      61.492  44.453  49.215  0.00  0.00     0.098 C 
BRANCH  26  27
ATOM     27  C   UNL d   1      60.701  44.406  49.086  0.00  0.00     0.018 A 
ATOM     28  C   UNL d   1      60.351  43.701  49.074  0.00  0.00     0.002 A 
ATOM     29  C   UNL d   1      59.561  43.647  48.945  0.00  0.00     0.000 A 
ATOM     30  C   UNL d   1      59.030  43.037  48.897  0.00  0.00     0.000 C 
ATOM     31  C   UNL d   1      59.122  44.310  48.828  0.00  0.00     0.000 A 
ATOM     32  C   UNL d   1      59.494  45.033  48.843  0.00  0.00     0.000 A 
ATOM     33  C   UNL d   1      60.273  45.080  48.970  0.00  0.00     0.002 A 
ENDBRANCH  26  27
ENDBRANCH   6  26
TORSDOF 4
ENDMDL
