MODEL 1
REMARK VINA RESULT:      64.6      0.000      0.000
REMARK  3 active torsions:
REMARK  status: ('A' for Active; 'I' for Inactive)
REMARK    1  A    between atoms: C_9  and  S_1 
REMARK       I    between atoms: C_4  and  N_8 
REMARK    2  A    between atoms: C_5  and  C_4 
REMARK    3  A    between atoms: N_8  and  C_18 
ROOT
ATOM      1  C   UNL d   1      60.661  49.537  49.670  0.00  0.00     0.302 C 
ATOM      2  N   UNL d   1      60.015  49.696  49.188  0.00  0.00    -0.206 NA
ATOM      3  O   UNL d   1      61.424  49.609  49.374  0.00  0.00    -0.263 OA
ENDROOT
BRANCH   1   4
ATOM      4  C   UNL d   1      60.550  49.305  50.449  0.00  0.00     0.161 A 
ATOM      5  O   UNL d   1      59.960  48.743  50.630  0.00  0.00    -0.268 OA
ATOM      6  C   UNL d   1      59.846  48.506  51.420  0.00  0.00     0.300 A 
ATOM      7  O   UNL d   1      59.265  47.952  51.598  0.00  0.00    -0.259 OA
ATOM      8  C   UNL d   1      60.313  48.823  52.025  0.00  0.00     0.064 A 
ATOM      9  C   UNL d   1      60.900  49.384  51.837  0.00  0.00     0.007 A 
ATOM     10  C   UNL d   1      60.198  48.588  52.802  0.00  0.00     0.005 A 
ATOM     11  C   UNL d   1      61.020  49.625  51.055  0.00  0.00     0.030 A 
ATOM     12  C   UNL d   1      61.367  49.701  52.443  0.00  0.00     0.000 A 
ATOM     13  C   UNL d   1      61.244  49.458  53.222  0.00  0.00     0.000 A 
ATOM     14  C   UNL d   1      60.663  48.905  53.400  0.00  0.00     0.000 A 
ENDBRANCH   1   4
BRANCH   2  15
ATOM     15  C   UNL d   1      59.249  49.622  49.489  0.00  0.00     0.085 A 
ATOM     16  C   UNL d   1      59.139  49.517  50.293  0.00  0.00     0.020 A 
ATOM     17  C   UNL d   1      58.379  49.443  50.596  0.00  0.00     0.015 A 
ATOM     18  C   UNL d   1      57.728  49.476  50.086  0.00  0.00     0.107 A 
ATOM     19  C   UNL d   1      57.848  49.583  49.277  0.00  0.00     0.015 A 
ATOM     20  C   UNL d   1      58.601  49.656  48.977  0.00  0.00     0.020 A 
BRANCH  18  21
ATOM     21  S   UNL d   1      56.966  49.402  50.389  0.00  0.00     0.302 S 
ATOM     22  O   UNL d   1      57.201  49.106  51.110  0.00  0.00    -0.197 OA
ATOM     23  O   UNL d   1      56.738  49.704  49.653  0.00  0.00    -0.197 OA
ATOM     24  N   UNL d   1      56.180  49.360  50.614  0.00  0.00    -0.043 N 
ENDBRANCH  18  21
ENDBRANCH   2  15
TORSDOF 3
ENDMDL
