MODEL 1
REMARK VINA RESULT:      -2.9      0.000      0.000
REMARK  5 active torsions:
REMARK  status: ('A' for Active; 'I' for Inactive)
REMARK    1  A    between atoms: C_15  and  C_4 
REMARK    2  A    between atoms: S_10  and  C_5 
REMARK    3  A    between atoms: C_17  and  S_10 
REMARK    4  A    between atoms: C_11  and  C_14 
REMARK    5  A    between atoms: C_14  and  C_17 
ROOT
ATOM      1  N   UNL d   1      31.328  17.716 -24.113  0.00  0.00    -0.206 N 
ATOM      2  C   UNL d   1      30.766  17.110 -24.103  0.00  0.00     0.166 A 
ATOM      3  N   UNL d   1      30.371  18.587 -24.663  0.00  0.00    -0.163 NA
ATOM      4  C   UNL d   1      30.014  17.241 -24.371  0.00  0.00     0.055 A 
ATOM      5  C   UNL d   1      32.072  17.564 -23.842  0.00  0.00     0.116 A 
ATOM      6  C   UNL d   1      29.819  17.991 -24.654  0.00  0.00     0.104 A 
ATOM      7  N   UNL d   1      30.964  16.369 -23.822  0.00  0.00    -0.227 NA
ATOM      8  C   UNL d   1      32.286  16.830 -23.558  0.00  0.00     0.045 A 
ATOM      9  C   UNL d   1      31.728  16.228 -23.548  0.00  0.00     0.085 A 
ATOM     10  C   UNL d   1      29.069  18.119 -24.920  0.00  0.00     0.023 C 
ATOM     11  C   UNL d   1      31.935  15.455 -23.255  0.00  0.00     0.021 C 
ENDROOT
BRANCH   5  12
ATOM     12  S   UNL d   1      32.650  18.188 -23.852  0.00  0.00    -0.064 SA
BRANCH  12  13
ATOM     13  C   UNL d   1      33.240  18.736 -23.602  0.00  0.00     0.079 C 
BRANCH  13  14
ATOM     14  C   UNL d   1      33.121  19.568 -23.730  0.00  0.00     0.202 C 
ATOM     15  O   UNL d   1      32.983  19.854 -24.513  0.00  0.00    -0.286 OA
BRANCH  14  16
ATOM     16  C   UNL d   1      33.141  20.102 -23.082  0.00  0.00     0.043 A 
ATOM     17  C   UNL d   1      33.179  20.937 -23.216  0.00  0.00     0.049 A 
ATOM     18  C   UNL d   1      33.199  21.474 -22.555  0.00  0.00     0.234 A 
ATOM     19  O   UNL d   1      33.237  22.315 -22.691  0.00  0.00    -0.283 OA
ATOM     20  C   UNL d   1      33.180  21.175 -21.767  0.00  0.00     0.234 A 
ATOM     21  C   UNL d   1      33.142  20.345 -21.626  0.00  0.00     0.045 A 
ATOM     22  O   UNL d   1      33.199  21.702 -21.109  0.00  0.00    -0.283 OA
ATOM     23  C   UNL d   1      33.122  19.808 -22.285  0.00  0.00     0.007 A 
ENDBRANCH  14  16
ENDBRANCH  13  14
ENDBRANCH  12  13
ENDBRANCH   5  12
BRANCH   4  24
ATOM     24  C   UNL d   1      29.461  16.645 -24.361  0.00  0.00     0.004 A 
ATOM     25  C   UNL d   1      28.987  16.544 -23.718  0.00  0.00     0.000 A 
ATOM     26  C   UNL d   1      28.435  15.948 -23.709  0.00  0.00     0.000 A 
ATOM     27  C   UNL d   1      28.357  15.453 -24.341  0.00  0.00     0.000 A 
ATOM     28  C   UNL d   1      28.846  15.563 -24.997  0.00  0.00     0.000 A 
ATOM     29  C   UNL d   1      29.386  16.153 -24.995  0.00  0.00     0.000 A 
ENDBRANCH   4  24
TORSDOF 5
ENDMDL
