MODEL 1
REMARK VINA RESULT:      -2.5      0.000      0.000
REMARK  3 active torsions:
REMARK  status: ('A' for Active; 'I' for Inactive)
REMARK    1  A    between atoms: C_6  and  C_1 
REMARK    2  A    between atoms: N_7  and  C_2 
REMARK       I    between atoms: C_8  and  N_9 
REMARK    3  A    between atoms: C_11  and  C_8 
ROOT
ATOM      1  C   UNL d   1      32.852  21.035 -21.892  0.00  0.00     0.186 A 
ATOM      2  C   UNL d   1      32.743  19.791 -22.335  0.00  0.00     0.197 A 
ATOM      3  C   UNL d   1      32.952  20.270 -22.964  0.00  0.00     0.191 A 
ATOM      4  O   UNL d   1      32.682  20.284 -21.658  0.00  0.00    -0.270 OA
ATOM      5  N   UNL d   1      33.021  21.066 -22.683  0.00  0.00    -0.208 NA
ATOM      6  C   UNL d   1      33.078  20.013 -23.770  0.00  0.00     0.124 C 
ATOM      7  N   UNL d   1      33.206  19.771 -24.570  0.00  0.00    -0.190 NA
ENDROOT
BRANCH   2   8
ATOM      8  N   UNL d   1      32.675  18.998 -22.620  0.00  0.00    -0.280 N 
ATOM      9  C   UNL d   1      33.232  18.421 -22.398  0.00  0.00     0.101 A 
ATOM     10  C   UNL d   1      33.177  17.658 -22.665  0.00  0.00     0.102 A 
ATOM     11  N   UNL d   1      32.542  17.423 -23.185  0.00  0.00    -0.267 N 
ATOM     12  C   UNL d   1      32.515  16.606 -23.449  0.00  0.00     0.288 C 
ATOM     13  C   UNL d   1      31.957  18.025 -23.420  0.00  0.00     0.102 A 
ATOM     14  O   UNL d   1      33.095  16.048 -23.205  0.00  0.00    -0.264 OA
ATOM     15  C   UNL d   1      32.051  18.808 -23.118  0.00  0.00     0.101 A 
BRANCH  12  16
ATOM     16  C   UNL d   1      31.880  16.370 -23.969  0.00  0.00     0.156 A 
ATOM     17  O   UNL d   1      31.611  16.634 -24.693  0.00  0.00    -0.300 OA
ATOM     18  C   UNL d   1      30.955  16.165 -24.918  0.00  0.00     0.123 A 
ATOM     19  C   UNL d   1      30.829  15.617 -24.327  0.00  0.00     0.029 A 
ATOM     20  C   UNL d   1      31.392  15.734 -23.739  0.00  0.00     0.032 A 
ENDBRANCH  12  16
ENDBRANCH   2   8
BRANCH   1  21
ATOM     21  C   UNL d   1      32.922  21.833 -21.615  0.00  0.00     0.052 A 
ATOM     22  C   UNL d   1      32.852  21.986 -20.796  0.00  0.00     0.061 A 
ATOM     23 CL   UNL d   1      32.716  21.328 -20.319  0.00  0.00    -0.082 Cl
ATOM     24  C   UNL d   1      32.918  22.753 -20.510  0.00  0.00     0.011 A 
ATOM     25  C   UNL d   1      33.053  23.370 -21.028  0.00  0.00     0.001 A 
ATOM     26  C   UNL d   1      33.124  23.230 -21.837  0.00  0.00     0.000 A 
ATOM     27  C   UNL d   1      33.059  22.472 -22.118  0.00  0.00     0.004 A 
ENDBRANCH   1  21
TORSDOF 3
ENDMDL
MODEL 2
REMARK VINA RESULT:       0.1      1.974      3.259
REMARK  3 active torsions:
REMARK  status: ('A' for Active; 'I' for Inactive)
REMARK    1  A    between atoms: C_6  and  C_1 
REMARK    2  A    between atoms: N_7  and  C_2 
REMARK       I    between atoms: C_8  and  N_9 
REMARK    3  A    between atoms: C_11  and  C_8 
ROOT
ATOM      1  C   UNL d   1      32.936  22.090 -19.149  0.00  0.00     0.186 A 
ATOM      2  C   UNL d   1      32.968  21.444 -20.306  0.00  0.00     0.197 A 
ATOM      3  C   UNL d   1      32.501  22.110 -20.396  0.00  0.00     0.191 A 
ATOM      4  O   UNL d   1      33.240  21.439 -19.512  0.00  0.00    -0.270 OA
ATOM      5  N   UNL d   1      32.479  22.524 -19.658  0.00  0.00    -0.208 NA
ATOM      6  C   UNL d   1      32.102  22.349 -21.114  0.00  0.00     0.124 C 
ATOM      7  N   UNL d   1      31.702  22.595 -21.818  0.00  0.00    -0.190 NA
ENDROOT
BRANCH   2   8
ATOM      8  N   UNL d   1      32.986  21.034 -21.045  0.00  0.00    -0.280 N 
ATOM      9  C   UNL d   1      33.151  21.444 -21.750  0.00  0.00     0.101 A 
ATOM     10  C   UNL d   1      33.172  21.063 -22.464  0.00  0.00     0.102 A 
ATOM     11  N   UNL d   1      33.024  20.223 -22.515  0.00  0.00    -0.267 N 
ATOM     12  C   UNL d   1      33.053  19.851 -23.288  0.00  0.00     0.288 C 
ATOM     13  C   UNL d   1      32.850  19.790 -21.777  0.00  0.00     0.102 A 
ATOM     14  O   UNL d   1      33.223  20.296 -23.981  0.00  0.00    -0.264 OA
ATOM     15  C   UNL d   1      32.839  20.227 -21.055  0.00  0.00     0.101 A 
BRANCH  12  16
ATOM     16  C   UNL d   1      32.905  19.012 -23.339  0.00  0.00     0.156 A 
ATOM     17  O   UNL d   1      33.157  18.364 -22.911  0.00  0.00    -0.300 OA
ATOM     18  C   UNL d   1      32.810  17.678 -23.241  0.00  0.00     0.123 A 
ATOM     19  C   UNL d   1      32.347  17.914 -23.871  0.00  0.00     0.029 A 
ATOM     20  C   UNL d   1      32.399  18.732 -23.940  0.00  0.00     0.032 A 
ENDBRANCH  12  16
ENDBRANCH   2   8
BRANCH   1  21
ATOM     21  C   UNL d   1      32.911  22.508 -18.412  0.00  0.00     0.052 A 
ATOM     22  C   UNL d   1      33.065  22.091 -17.704  0.00  0.00     0.061 A 
ATOM     23 CL   UNL d   1      33.230  21.288 -17.790  0.00  0.00    -0.082 Cl
ATOM     24  C   UNL d   1      33.045  22.480 -16.981  0.00  0.00     0.011 A 
ATOM     25  C   UNL d   1      32.876  23.278 -16.953  0.00  0.00     0.001 A 
ATOM     26  C   UNL d   1      32.723  23.699 -17.646  0.00  0.00     0.000 A 
ATOM     27  C   UNL d   1      32.742  23.313 -18.359  0.00  0.00     0.004 A 
ENDBRANCH   1  21
TORSDOF 3
ENDMDL
