MODEL 1
REMARK VINA RESULT:      48.1      0.000      0.000
REMARK  3 active torsions:
REMARK  status: ('A' for Active; 'I' for Inactive)
REMARK    1  A    between atoms: C_8  and  N_2 
REMARK    2  A    between atoms: C_14  and  C_8 
REMARK    3  A    between atoms: N_13  and  C_14 
ROOT
ATOM      1  C   UNL d   1      46.137 -17.430  43.066  0.00  0.00     0.166 A 
ATOM      2  N   UNL d   1      46.339 -18.088  42.567  0.00  0.00    -0.288 N 
ATOM      3  C   UNL d   1      46.079 -17.663  43.883  0.00  0.00     0.117 A 
ATOM      4  C   UNL d   1      46.248 -18.471  43.879  0.00  0.00     0.037 A 
ATOM      5  C   UNL d   1      46.409 -18.726  43.059  0.00  0.00     0.067 A 
ATOM      6  N   UNL d   1      46.000 -16.662  42.885  0.00  0.00    -0.225 NA
ATOM      7  N   UNL d   1      45.885 -17.127  44.506  0.00  0.00    -0.241 NA
ATOM      8  C   UNL d   1      45.803 -16.121  43.522  0.00  0.00     0.101 A 
ATOM      9  C   UNL d   1      45.745 -16.351  44.333  0.00  0.00     0.099 A 
ATOM     10  C   UNL d   1      46.597 -19.520  42.893  0.00  0.00     0.018 A 
ATOM     11  C   UNL d   1      46.275 -18.995  44.514  0.00  0.00     0.003 A 
ATOM     12  C   UNL d   1      46.463 -19.784  44.337  0.00  0.00     0.000 A 
ATOM     13  C   UNL d   1      46.624 -20.045  43.528  0.00  0.00     0.002 A 
ATOM     14  C   UNL d   1      45.663 -15.341  43.347  0.00  0.00     0.021 A 
ATOM     15  C   UNL d   1      45.551 -15.811  44.955  0.00  0.00     0.021 A 
ATOM     16  C   UNL d   1      46.497 -20.330  44.953  0.00  0.00     0.000 C 
ATOM     17  C   UNL d   1      45.469 -14.804  43.972  0.00  0.00     0.002 A 
ATOM     18  C   UNL d   1      45.413 -15.043  44.784  0.00  0.00     0.002 A 
ENDROOT
BRANCH   2  19
ATOM     19  C   UNL d   1      46.451 -18.123  41.770  0.00  0.00     0.101 C 
BRANCH  19  20
ATOM     20  C   UNL d   1      45.990 -18.616  41.325  0.00  0.00     0.100 C 
BRANCH  20  21
ATOM     21  N   UNL d   1      45.934 -18.256  40.616  0.00  0.00    -0.298 N 
ATOM     22  C   UNL d   1      46.585 -18.102  40.194  0.00  0.00     0.107 A 
ATOM     23  C   UNL d   1      46.532 -17.742  39.484  0.00  0.00     0.142 A 
ATOM     24  O   UNL d   1      45.806 -17.535  39.197  0.00  0.00    -0.300 OA
ATOM     25  C   UNL d   1      45.150 -17.690  39.621  0.00  0.00     0.142 A 
ATOM     26  C   UNL d   1      45.211 -18.049  40.327  0.00  0.00     0.107 A 
ENDBRANCH  20  21
ENDBRANCH  19  20
ENDBRANCH   2  19
TORSDOF 3
ENDMDL
MODEL 2
REMARK VINA RESULT:      49.6      1.494      3.691
REMARK  3 active torsions:
REMARK  status: ('A' for Active; 'I' for Inactive)
REMARK    1  A    between atoms: C_8  and  N_2 
REMARK    2  A    between atoms: C_14  and  C_8 
REMARK    3  A    between atoms: N_13  and  C_14 
ROOT
ATOM      1  C   UNL d   1      45.852 -17.674  42.571  0.00  0.00     0.166 A 
ATOM      2  N   UNL d   1      45.924 -17.391  43.370  0.00  0.00    -0.288 N 
ATOM      3  C   UNL d   1      45.920 -18.521  42.532  0.00  0.00     0.117 A 
ATOM      4  C   UNL d   1      46.034 -18.755  43.315  0.00  0.00     0.037 A 
ATOM      5  C   UNL d   1      46.035 -18.047  43.828  0.00  0.00     0.067 A 
ATOM      6  N   UNL d   1      45.736 -17.275  41.887  0.00  0.00    -0.225 NA
ATOM      7  N   UNL d   1      45.871 -18.958  41.810  0.00  0.00    -0.241 NA
ATOM      8  C   UNL d   1      45.687 -17.724  41.156  0.00  0.00     0.101 A 
ATOM      9  C   UNL d   1      45.754 -18.565  41.116  0.00  0.00     0.099 A 
ATOM     10  C   UNL d   1      46.140 -18.123  44.650  0.00  0.00     0.018 A 
ATOM     11  C   UNL d   1      46.135 -19.515  43.617  0.00  0.00     0.003 A 
ATOM     12  C   UNL d   1      46.239 -19.578  44.438  0.00  0.00     0.000 A 
ATOM     13  C   UNL d   1      46.241 -18.883  44.953  0.00  0.00     0.002 A 
ATOM     14  C   UNL d   1      45.569 -17.327  40.457  0.00  0.00     0.021 A 
ATOM     15  C   UNL d   1      45.704 -18.999  40.391  0.00  0.00     0.021 A 
ATOM     16  C   UNL d   1      46.342 -20.327  44.767  0.00  0.00     0.000 C 
ATOM     17  C   UNL d   1      45.520 -17.765  39.736  0.00  0.00     0.002 A 
ATOM     18  C   UNL d   1      45.589 -18.611  39.703  0.00  0.00     0.002 A 
ENDROOT
BRANCH   2  19
ATOM     19  C   UNL d   1      45.895 -16.640  43.662  0.00  0.00     0.101 C 
BRANCH  19  20
ATOM     20  C   UNL d   1      45.203 -16.224  43.622  0.00  0.00     0.100 C 
BRANCH  20  21
ATOM     21  N   UNL d   1      45.371 -15.518  43.951  0.00  0.00    -0.298 N 
ATOM     22  C   UNL d   1      46.112 -15.347  44.168  0.00  0.00     0.107 A 
ATOM     23  C   UNL d   1      46.285 -14.641  44.498  0.00  0.00     0.142 A 
ATOM     24  O   UNL d   1      45.695 -14.100  44.610  0.00  0.00    -0.300 OA
ATOM     25  C   UNL d   1      44.949 -14.272  44.392  0.00  0.00     0.142 A 
ATOM     26  C   UNL d   1      44.785 -14.978  44.063  0.00  0.00     0.107 A 
ENDBRANCH  20  21
ENDBRANCH  19  20
ENDBRANCH   2  19
TORSDOF 3
ENDMDL
