MODEL 1
REMARK VINA RESULT:       8.6      0.000      0.000
REMARK  4 active torsions:
REMARK  status: ('A' for Active; 'I' for Inactive)
REMARK    1  A    between atoms: C_14  and  N_3 
REMARK    2  A    between atoms: C_9  and  C_5 
REMARK    3  A    between atoms: C_19  and  C_14 
REMARK    4  A    between atoms: C_23  and  C_19 
ROOT
ATOM      1  C   UNL d   1     -41.821-122.233 -51.600  0.00  0.00     0.083 A 
ATOM      2  C   UNL d   1     -41.944-123.019 -51.815  0.00  0.00     0.161 A 
ATOM      3  N   UNL d   1     -41.425-122.389 -52.876  0.00  0.00    -0.272 N 
ATOM      4  C   UNL d   1     -41.701-123.121 -52.602  0.00  0.00     0.288 A 
ATOM      5  C   UNL d   1     -41.500-121.840 -52.255  0.00  0.00     0.072 A 
ATOM      6  C   UNL d   1     -42.014-121.971 -50.843  0.00  0.00     0.201 A 
ATOM      7  O   UNL d   1     -42.266-123.552 -51.261  0.00  0.00    -0.302 OA
ATOM      8  C   UNL d   1     -42.333-122.502 -50.298  0.00  0.00     0.062 A 
ATOM      9  C   UNL d   1     -42.458-123.288 -50.508  0.00  0.00     0.103 A 
ATOM     10  O   UNL d   1     -41.728-123.818 -53.033  0.00  0.00    -0.264 OA
ATOM     11  O   UNL d   1     -41.891-121.186 -50.629  0.00  0.00    -0.286 OA
ATOM     12  C   UNL d   1     -42.528-122.240 -49.536  0.00  0.00     0.005 A 
ATOM     13  C   UNL d   1     -42.781-123.817 -49.949  0.00  0.00     0.025 A 
ATOM     14  C   UNL d   1     -42.845-122.764 -48.989  0.00  0.00     0.000 A 
ATOM     15  C   UNL d   1     -42.972-123.554 -49.196  0.00  0.00     0.002 A 
ENDROOT
BRANCH   5  16
ATOM     16  C   UNL d   1     -41.375-121.054 -52.045  0.00  0.00     0.019 A 
ATOM     17  C   UNL d   1     -41.375-120.459 -52.621  0.00  0.00     0.031 A 
ATOM     18  C   UNL d   1     -41.250-119.675 -52.406  0.00  0.00     0.140 A 
ATOM     19  F   UNL d   1     -41.251-119.089 -52.984  0.00  0.00    -0.204 F 
ATOM     20  C   UNL d   1     -41.123-119.474 -51.609  0.00  0.00     0.030 A 
ATOM     21  C   UNL d   1     -41.123-120.068 -51.033  0.00  0.00     0.002 A 
ATOM     22  C   UNL d   1     -41.249-120.859 -51.253  0.00  0.00     0.002 A 
ENDBRANCH   5  16
BRANCH   3  23
ATOM     23  C   UNL d   1     -41.129-122.231 -53.627  0.00  0.00     0.086 C 
BRANCH  23  24
ATOM     24  C   UNL d   1     -41.402-122.662 -54.272  0.00  0.00     0.065 C 
BRANCH  24  25
ATOM     25  C   UNL d   1     -41.430-122.313 -55.018  0.00  0.00     0.236 C 
ATOM     26  O   UNL d   1     -42.046-122.481 -55.524  0.00  0.00    -0.283 OA
ENDBRANCH  24  25
ENDBRANCH  23  24
ENDBRANCH   3  23
TORSDOF 4
ENDMDL
MODEL 2
REMARK VINA RESULT:       9.0      1.536      2.956
REMARK  4 active torsions:
REMARK  status: ('A' for Active; 'I' for Inactive)
REMARK    1  A    between atoms: C_14  and  N_3 
REMARK    2  A    between atoms: C_9  and  C_5 
REMARK    3  A    between atoms: C_19  and  C_14 
REMARK    4  A    between atoms: C_23  and  C_19 
ROOT
ATOM      1  C   UNL d   1     -41.592-121.626 -52.173  0.00  0.00     0.083 A 
ATOM      2  C   UNL d   1     -41.459-121.104 -51.551  0.00  0.00     0.161 A 
ATOM      3  N   UNL d   1     -41.471-120.388 -52.681  0.00  0.00    -0.272 N 
ATOM      4  C   UNL d   1     -41.383-120.336 -51.859  0.00  0.00     0.288 A 
ATOM      5  C   UNL d   1     -41.601-121.187 -52.874  0.00  0.00     0.072 A 
ATOM      6  C   UNL d   1     -41.690-122.432 -52.028  0.00  0.00     0.201 A 
ATOM      7  O   UNL d   1     -41.422-121.393 -50.770  0.00  0.00    -0.302 OA
ATOM      8  C   UNL d   1     -41.652-122.714 -51.254  0.00  0.00     0.062 A 
ATOM      9  C   UNL d   1     -41.519-122.195 -50.629  0.00  0.00     0.103 A 
ATOM     10  O   UNL d   1     -41.246-119.651 -51.431  0.00  0.00    -0.264 OA
ATOM     11  O   UNL d   1     -41.823-122.954 -52.651  0.00  0.00    -0.286 OA
ATOM     12  C   UNL d   1     -41.750-123.525 -51.107  0.00  0.00     0.005 A 
ATOM     13  C   UNL d   1     -41.483-122.491 -49.850  0.00  0.00     0.025 A 
ATOM     14  C   UNL d   1     -41.714-123.811 -50.339  0.00  0.00     0.000 A 
ATOM     15  C   UNL d   1     -41.580-123.293 -49.709  0.00  0.00     0.002 A 
ENDROOT
BRANCH   5  16
ATOM     16  C   UNL d   1     -41.734-121.705 -53.499  0.00  0.00     0.019 A 
ATOM     17  C   UNL d   1     -42.470-121.728 -53.878  0.00  0.00     0.031 A 
ATOM     18  C   UNL d   1     -42.599-122.249 -54.503  0.00  0.00     0.140 A 
ATOM     19  F   UNL d   1     -43.334-122.266 -54.874  0.00  0.00    -0.204 F 
ATOM     20  C   UNL d   1     -41.991-122.755 -54.758  0.00  0.00     0.030 A 
ATOM     21  C   UNL d   1     -41.255-122.733 -54.380  0.00  0.00     0.002 A 
ATOM     22  C   UNL d   1     -41.129-122.206 -53.749  0.00  0.00     0.002 A 
ENDBRANCH   5  16
BRANCH   3  23
ATOM     23  C   UNL d   1     -41.437-119.761 -53.214  0.00  0.00     0.086 C 
BRANCH  23  24
ATOM     24  C   UNL d   1     -41.133-119.036 -52.972  0.00  0.00     0.065 C 
BRANCH  24  25
ATOM     25  C   UNL d   1     -41.416-118.338 -53.306  0.00  0.00     0.236 C 
ATOM     26  O   UNL d   1     -41.131-117.619 -53.052  0.00  0.00    -0.283 OA
ENDBRANCH  24  25
ENDBRANCH  23  24
ENDBRANCH   3  23
TORSDOF 4
ENDMDL
MODEL 3
REMARK VINA RESULT:      10.2      1.241      3.452
REMARK  4 active torsions:
REMARK  status: ('A' for Active; 'I' for Inactive)
REMARK    1  A    between atoms: C_14  and  N_3 
REMARK    2  A    between atoms: C_9  and  C_5 
REMARK    3  A    between atoms: C_19  and  C_14 
REMARK    4  A    between atoms: C_23  and  C_19 
ROOT
ATOM      1  C   UNL d   1     -41.261-122.171 -52.354  0.00  0.00     0.083 A 
ATOM      2  C   UNL d   1     -41.292-122.979 -52.199  0.00  0.00     0.161 A 
ATOM      3  N   UNL d   1     -41.234-122.346 -51.022  0.00  0.00    -0.272 N 
ATOM      4  C   UNL d   1     -41.276-123.093 -51.377  0.00  0.00     0.288 A 
ATOM      5  C   UNL d   1     -41.224-121.776 -51.627  0.00  0.00     0.072 A 
ATOM      6  C   UNL d   1     -41.269-121.893 -53.131  0.00  0.00     0.201 A 
ATOM      7  O   UNL d   1     -41.333-123.519 -52.833  0.00  0.00    -0.302 OA
ATOM      8  C   UNL d   1     -41.309-122.431 -53.754  0.00  0.00     0.062 A 
ATOM      9  C   UNL d   1     -41.341-123.240 -53.604  0.00  0.00     0.103 A 
ATOM     10  O   UNL d   1     -41.297-123.813 -50.985  0.00  0.00    -0.264 OA
ATOM     11  O   UNL d   1     -41.237-121.085 -53.285  0.00  0.00    -0.286 OA
ATOM     12  C   UNL d   1     -41.317-122.153 -54.536  0.00  0.00     0.005 A 
ATOM     13  C   UNL d   1     -41.381-123.776 -54.243  0.00  0.00     0.025 A 
ATOM     14  C   UNL d   1     -41.357-122.684 -55.161  0.00  0.00     0.000 A 
ATOM     15  C   UNL d   1     -41.389-123.497 -55.014  0.00  0.00     0.002 A 
ENDROOT
BRANCH   5  16
ATOM     16  C   UNL d   1     -41.193-120.967 -51.778  0.00  0.00     0.019 A 
ATOM     17  C   UNL d   1     -41.174-120.423 -51.153  0.00  0.00     0.031 A 
ATOM     18  C   UNL d   1     -41.142-119.615 -51.308  0.00  0.00     0.140 A 
ATOM     19  F   UNL d   1     -41.123-119.081 -50.683  0.00  0.00    -0.204 F 
ATOM     20  C   UNL d   1     -41.129-119.339 -52.093  0.00  0.00     0.030 A 
ATOM     21  C   UNL d   1     -41.148-119.883 -52.717  0.00  0.00     0.002 A 
ATOM     22  C   UNL d   1     -41.180-120.698 -52.557  0.00  0.00     0.002 A 
ENDBRANCH   5  16
BRANCH   3  23
ATOM     23  C   UNL d   1     -41.206-122.193 -50.213  0.00  0.00     0.086 C 
BRANCH  23  24
ATOM     24  C   UNL d   1     -41.595-122.693 -49.690  0.00  0.00     0.065 C 
BRANCH  24  25
ATOM     25  C   UNL d   1     -41.611-122.517 -48.885  0.00  0.00     0.236 C 
ATOM     26  O   UNL d   1     -42.282-122.665 -48.448  0.00  0.00    -0.283 OA
ENDBRANCH  24  25
ENDBRANCH  23  24
ENDBRANCH   3  23
TORSDOF 4
ENDMDL
