MODEL 1
REMARK VINA RESULT:      -8.6      0.000      0.000
REMARK  4 active torsions:
REMARK  status: ('A' for Active; 'I' for Inactive)
REMARK    1  A    between atoms: C_3  and  N_1 
REMARK    2  A    between atoms: C_6  and  C_3 
REMARK    3  A    between atoms: C_9  and  C_3 
REMARK    4  A    between atoms: N_5  and  C_6 
ROOT
ATOM      1  C   UNL d   1      53.240  32.618  53.377  0.00  0.00     0.106 C 
ENDROOT
BRANCH   1   2
ATOM      2  N   UNL d   1      53.753  32.866  53.989  0.00  0.00    -0.228 N 
ATOM      3  N   UNL d   1      53.636  32.985  54.802  0.00  0.00    -0.165 NA
ATOM      4  C   UNL d   1      54.348  33.229  55.108  0.00  0.00     0.103 A 
ATOM      5  C   UNL d   1      54.494  33.417  55.917  0.00  0.00     0.022 C 
ATOM      6  C   UNL d   1      54.898  33.266  54.521  0.00  0.00     0.040 A 
ATOM      7  C   UNL d   1      54.540  33.042  53.817  0.00  0.00     0.085 A 
ATOM      8  C   UNL d   1      54.896  32.998  53.064  0.00  0.00     0.021 C 
ENDBRANCH   1   2
BRANCH   1   9
ATOM      9  C   UNL d   1      53.419  31.940  52.943  0.00  0.00     0.167 C 
BRANCH   9  10
ATOM     10  N   UNL d   1      53.026  31.230  53.096  0.00  0.00    -0.111 N 
ATOM     11  O   UNL d   1      53.078  30.876  53.840  0.00  0.00    -0.532 OA
ATOM     12  O   UNL d   1      52.574  30.867  52.494  0.00  0.00    -0.532 OA
ENDBRANCH   9  10
ENDBRANCH   1   9
BRANCH   1  13
ATOM     13  C   UNL d   1      52.531  33.067  53.202  0.00  0.00     0.019 A 
ATOM     14  C   UNL d   1      51.852  32.955  53.646  0.00  0.00     0.002 A 
ATOM     15  C   UNL d   1      51.173  33.389  53.472  0.00  0.00     0.000 A 
ATOM     16  C   UNL d   1      51.171  33.936  52.855  0.00  0.00     0.000 A 
ATOM     17  C   UNL d   1      51.850  34.049  52.410  0.00  0.00     0.000 A 
ATOM     18  C   UNL d   1      50.470  34.380  52.681  0.00  0.00     0.000 C 
ATOM     19  C   UNL d   1      52.530  33.614  52.584  0.00  0.00     0.002 A 
ENDBRANCH   1  13
TORSDOF 4
ENDMDL
MODEL 2
REMARK VINA RESULT:      -8.5      1.690      3.129
REMARK  4 active torsions:
REMARK  status: ('A' for Active; 'I' for Inactive)
REMARK    1  A    between atoms: C_3  and  N_1 
REMARK    2  A    between atoms: C_6  and  C_3 
REMARK    3  A    between atoms: C_9  and  C_3 
REMARK    4  A    between atoms: N_5  and  C_6 
ROOT
ATOM      1  C   UNL d   1      53.273  31.746  53.501  0.00  0.00     0.106 C 
ENDROOT
BRANCH   1   2
ATOM      2  N   UNL d   1      53.259  30.936  53.706  0.00  0.00    -0.228 N 
ATOM      3  N   UNL d   1      53.177  30.546  54.434  0.00  0.00    -0.165 NA
ATOM      4  C   UNL d   1      53.205  29.749  54.277  0.00  0.00     0.103 A 
ATOM      5  C   UNL d   1      53.144  29.135  54.852  0.00  0.00     0.022 C 
ATOM      6  C   UNL d   1      53.300  29.631  53.487  0.00  0.00     0.040 A 
ATOM      7  C   UNL d   1      53.335  30.363  53.118  0.00  0.00     0.085 A 
ATOM      8  C   UNL d   1      53.430  30.512  52.303  0.00  0.00     0.021 C 
ENDBRANCH   1   2
BRANCH   1   9
ATOM      9  C   UNL d   1      52.783  32.026  52.899  0.00  0.00     0.167 C 
BRANCH   9  10
ATOM     10  N   UNL d   1      52.132  32.502  53.077  0.00  0.00    -0.111 N 
ATOM     11  O   UNL d   1      51.520  32.215  53.550  0.00  0.00    -0.532 OA
ATOM     12  O   UNL d   1      52.094  33.281  52.776  0.00  0.00    -0.532 OA
ENDBRANCH   9  10
ENDBRANCH   1   9
BRANCH   1  13
ATOM     13  C   UNL d   1      53.797  32.286  53.915  0.00  0.00     0.019 A 
ATOM     14  C   UNL d   1      54.453  32.595  53.535  0.00  0.00     0.002 A 
ATOM     15  C   UNL d   1      54.952  33.113  53.937  0.00  0.00     0.000 A 
ATOM     16  C   UNL d   1      54.796  33.324  54.720  0.00  0.00     0.000 A 
ATOM     17  C   UNL d   1      54.140  33.015  55.100  0.00  0.00     0.000 A 
ATOM     18  C   UNL d   1      55.313  33.857  55.128  0.00  0.00     0.000 C 
ATOM     19  C   UNL d   1      53.640  32.496  54.697  0.00  0.00     0.002 A 
ENDBRANCH   1  13
TORSDOF 4
ENDMDL
MODEL 3
REMARK VINA RESULT:      -8.2      1.494      2.100
REMARK  4 active torsions:
REMARK  status: ('A' for Active; 'I' for Inactive)
REMARK    1  A    between atoms: C_3  and  N_1 
REMARK    2  A    between atoms: C_6  and  C_3 
REMARK    3  A    between atoms: C_9  and  C_3 
REMARK    4  A    between atoms: N_5  and  C_6 
ROOT
ATOM      1  C   UNL d   1      53.128  33.402  53.738  0.00  0.00     0.106 C 
ENDROOT
BRANCH   1   2
ATOM      2  N   UNL d   1      53.379  32.607  53.665  0.00  0.00    -0.228 N 
ATOM      3  N   UNL d   1      53.005  31.886  53.834  0.00  0.00    -0.165 NA
ATOM      4  C   UNL d   1      53.534  31.299  53.646  0.00  0.00     0.103 A 
ATOM      5  C   UNL d   1      53.394  30.471  53.727  0.00  0.00     0.022 C 
ATOM      6  C   UNL d   1      54.216  31.625  53.370  0.00  0.00     0.040 A 
ATOM      7  C   UNL d   1      54.133  32.441  53.376  0.00  0.00     0.085 A 
ATOM      8  C   UNL d   1      54.699  33.006  53.137  0.00  0.00     0.021 C 
ENDBRANCH   1   2
BRANCH   1   9
ATOM      9  C   UNL d   1      53.592  33.941  54.155  0.00  0.00     0.167 C 
BRANCH   9  10
ATOM     10  N   UNL d   1      53.375  34.180  54.916  0.00  0.00    -0.111 N 
ATOM     11  O   UNL d   1      53.284  33.623  55.518  0.00  0.00    -0.532 OA
ATOM     12  O   UNL d   1      53.247  34.990  55.076  0.00  0.00    -0.532 OA
ENDBRANCH   9  10
ENDBRANCH   1   9
BRANCH   1  13
ATOM     13  C   UNL d   1      52.391  33.655  53.380  0.00  0.00     0.019 A 
ATOM     14  C   UNL d   1      51.676  33.389  53.678  0.00  0.00     0.002 A 
ATOM     15  C   UNL d   1      50.971  33.636  53.330  0.00  0.00     0.000 A 
ATOM     16  C   UNL d   1      50.978  34.149  52.684  0.00  0.00     0.000 A 
ATOM     17  C   UNL d   1      51.693  34.416  52.386  0.00  0.00     0.000 A 
ATOM     18  C   UNL d   1      50.250  34.400  52.330  0.00  0.00     0.000 C 
ATOM     19  C   UNL d   1      52.399  34.168  52.735  0.00  0.00     0.002 A 
ENDBRANCH   1  13
TORSDOF 4
ENDMDL
MODEL 4
REMARK VINA RESULT:      -8.0      0.920      3.160
REMARK  4 active torsions:
REMARK  status: ('A' for Active; 'I' for Inactive)
REMARK    1  A    between atoms: C_3  and  N_1 
REMARK    2  A    between atoms: C_6  and  C_3 
REMARK    3  A    between atoms: C_9  and  C_3 
REMARK    4  A    between atoms: N_5  and  C_6 
ROOT
ATOM      1  C   UNL d   1      52.679  32.543  53.405  0.00  0.00     0.106 C 
ENDROOT
BRANCH   1   2
ATOM      2  N   UNL d   1      52.210  33.079  52.967  0.00  0.00    -0.228 N 
ATOM      3  N   UNL d   1      52.373  33.552  52.305  0.00  0.00    -0.165 NA
ATOM      4  C   UNL d   1      51.690  33.955  52.131  0.00  0.00     0.103 A 
ATOM      5  C   UNL d   1      51.593  34.505  51.498  0.00  0.00     0.022 C 
ATOM      6  C   UNL d   1      51.113  33.752  52.655  0.00  0.00     0.040 A 
ATOM      7  C   UNL d   1      51.424  33.205  53.182  0.00  0.00     0.085 A 
ATOM      8  C   UNL d   1      51.029  32.841  53.820  0.00  0.00     0.021 C 
ENDBRANCH   1   2
BRANCH   1   9
ATOM      9  C   UNL d   1      52.478  31.743  53.426  0.00  0.00     0.167 C 
BRANCH   9  10
ATOM     10  N   UNL d   1      52.899  31.194  52.975  0.00  0.00    -0.111 N 
ATOM     11  O   UNL d   1      52.901  31.243  52.151  0.00  0.00    -0.532 OA
ATOM     12  O   UNL d   1      53.325  30.585  53.356  0.00  0.00    -0.532 OA
ENDBRANCH   9  10
ENDBRANCH   1   9
BRANCH   1  13
ATOM     13  C   UNL d   1      53.368  32.824  53.832  0.00  0.00     0.019 A 
ATOM     14  C   UNL d   1      54.066  32.977  53.432  0.00  0.00     0.002 A 
ATOM     15  C   UNL d   1      54.725  33.247  53.848  0.00  0.00     0.000 A 
ATOM     16  C   UNL d   1      54.687  33.364  54.664  0.00  0.00     0.000 A 
ATOM     17  C   UNL d   1      53.989  33.211  55.064  0.00  0.00     0.000 A 
ATOM     18  C   UNL d   1      55.368  33.642  55.086  0.00  0.00     0.000 C 
ATOM     19  C   UNL d   1      53.329  32.941  54.648  0.00  0.00     0.002 A 
ENDBRANCH   1  13
TORSDOF 4
ENDMDL
MODEL 5
REMARK VINA RESULT:      -7.7      1.580      2.664
REMARK  4 active torsions:
REMARK  status: ('A' for Active; 'I' for Inactive)
REMARK    1  A    between atoms: C_3  and  N_1 
REMARK    2  A    between atoms: C_6  and  C_3 
REMARK    3  A    between atoms: C_9  and  C_3 
REMARK    4  A    between atoms: N_5  and  C_6 
ROOT
ATOM      1  C   UNL d   1      53.467  32.161  53.675  0.00  0.00     0.106 C 
ENDROOT
BRANCH   1   2
ATOM      2  N   UNL d   1      53.976  32.621  54.153  0.00  0.00    -0.228 N 
ATOM      3  N   UNL d   1      53.945  32.838  54.953  0.00  0.00    -0.165 NA
ATOM      4  C   UNL d   1      54.602  33.293  55.098  0.00  0.00     0.103 A 
ATOM      5  C   UNL d   1      54.805  33.638  55.840  0.00  0.00     0.022 C 
ATOM      6  C   UNL d   1      55.036  33.366  54.423  0.00  0.00     0.040 A 
ATOM      7  C   UNL d   1      54.657  32.952  53.825  0.00  0.00     0.085 A 
ATOM      8  C   UNL d   1      54.904  32.874  53.032  0.00  0.00     0.021 C 
ENDBRANCH   1   2
BRANCH   1   9
ATOM      9  C   UNL d   1      53.015  32.525  53.088  0.00  0.00     0.167 C 
BRANCH   9  10
ATOM     10  N   UNL d   1      52.227  32.728  53.232  0.00  0.00    -0.111 N 
ATOM     11  O   UNL d   1      52.043  33.362  53.727  0.00  0.00    -0.532 OA
ATOM     12  O   UNL d   1      51.614  32.288  52.874  0.00  0.00    -0.532 OA
ENDBRANCH   9  10
ENDBRANCH   1   9
BRANCH   1  13
ATOM     13  C   UNL d   1      53.414  31.313  53.793  0.00  0.00     0.019 A 
ATOM     14  C   UNL d   1      53.189  31.013  54.521  0.00  0.00     0.002 A 
ATOM     15  C   UNL d   1      53.140  30.197  54.629  0.00  0.00     0.000 A 
ATOM     16  C   UNL d   1      53.316  29.680  54.010  0.00  0.00     0.000 A 
ATOM     17  C   UNL d   1      53.541  29.980  53.282  0.00  0.00     0.000 A 
ATOM     18  C   UNL d   1      53.264  28.842  54.128  0.00  0.00     0.000 C 
ATOM     19  C   UNL d   1      53.590  30.797  53.175  0.00  0.00     0.002 A 
ENDBRANCH   1  13
TORSDOF 4
ENDMDL
MODEL 6
REMARK VINA RESULT:      -7.2      1.814      3.356
REMARK  4 active torsions:
REMARK  status: ('A' for Active; 'I' for Inactive)
REMARK    1  A    between atoms: C_3  and  N_1 
REMARK    2  A    between atoms: C_6  and  C_3 
REMARK    3  A    between atoms: C_9  and  C_3 
REMARK    4  A    between atoms: N_5  and  C_6 
ROOT
ATOM      1  C   UNL d   1      53.069  33.582  53.694  0.00  0.00     0.106 C 
ENDROOT
BRANCH   1   2
ATOM      2  N   UNL d   1      52.341  33.840  53.373  0.00  0.00    -0.228 N 
ATOM      3  N   UNL d   1      51.554  33.655  53.558  0.00  0.00    -0.165 NA
ATOM      4  C   UNL d   1      51.088  34.084  53.050  0.00  0.00     0.103 A 
ATOM      5  C   UNL d   1      50.244  34.074  53.033  0.00  0.00     0.022 C 
ATOM      6  C   UNL d   1      51.552  34.524  52.561  0.00  0.00     0.040 A 
ATOM      7  C   UNL d   1      52.337  34.382  52.752  0.00  0.00     0.085 A 
ATOM      8  C   UNL d   1      53.011  34.716  52.392  0.00  0.00     0.021 C 
ENDBRANCH   1   2
BRANCH   1   9
ATOM      9  C   UNL d   1      53.576  34.127  54.050  0.00  0.00     0.167 C 
BRANCH   9  10
ATOM     10  N   UNL d   1      53.642  34.161  54.873  0.00  0.00    -0.111 N 
ATOM     11  O   UNL d   1      52.975  34.294  55.340  0.00  0.00    -0.532 OA
ATOM     12  O   UNL d   1      54.389  34.062  55.234  0.00  0.00    -0.532 OA
ENDBRANCH   9  10
ENDBRANCH   1   9
BRANCH   1  13
ATOM     13  C   UNL d   1      53.289  32.754  53.653  0.00  0.00     0.019 A 
ATOM     14  C   UNL d   1      53.940  32.522  53.213  0.00  0.00     0.002 A 
ATOM     15  C   UNL d   1      54.147  31.725  53.177  0.00  0.00     0.000 A 
ATOM     16  C   UNL d   1      53.704  31.158  53.580  0.00  0.00     0.000 A 
ATOM     17  C   UNL d   1      53.053  31.389  54.020  0.00  0.00     0.000 A 
ATOM     18  C   UNL d   1      53.921  30.339  53.539  0.00  0.00     0.000 C 
ATOM     19  C   UNL d   1      52.846  32.187  54.056  0.00  0.00     0.002 A 
ENDBRANCH   1  13
TORSDOF 4
ENDMDL
