MODEL 1
REMARK VINA RESULT:      15.7      0.000      0.000
REMARK  1 active torsions:
REMARK  status: ('A' for Active; 'I' for Inactive)
REMARK    1  A    between atoms: C_7  and  C_3 
ROOT
ATOM      1  C   UNL d   1      57.422  49.627  49.566  0.00  0.00     0.179 A 
ATOM      2  N   UNL d   1      58.229  49.630  49.606  0.00  0.00    -0.221 NA
ATOM      3  C   UNL d   1      58.460  49.632  50.399  0.00  0.00     0.101 A 
ATOM      4  N   UNL d   1      57.141  49.628  50.332  0.00  0.00    -0.282 N 
ATOM      5  C   UNL d   1      57.790  49.630  50.835  0.00  0.00     0.101 A 
ATOM      6  S   UNL d   1      56.757  49.625  49.069  0.00  0.00    -0.048 SA
ATOM      7  C   UNL d   1      56.308  49.625  50.304  0.00  0.00     0.089 A 
ATOM      8  C   UNL d   1      56.059  49.623  49.542  0.00  0.00     0.057 A 
ENDROOT
BRANCH   3   9
ATOM      9  C   UNL d   1      59.218  49.634  50.727  0.00  0.00     0.019 A 
ATOM     10  C   UNL d   1      59.330  49.693  51.539  0.00  0.00     0.002 A 
ATOM     11  C   UNL d   1      60.091  49.696  51.870  0.00  0.00     0.011 A 
ATOM     12  C   UNL d   1      60.731  49.641  51.394  0.00  0.00     0.058 A 
ATOM     13  C   UNL d   1      60.637  49.578  50.551  0.00  0.00     0.011 A 
ATOM     14 CL   UNL d   1      61.505  49.643  51.730  0.00  0.00    -0.082 Cl
ATOM     15  C   UNL d   1      59.875  49.576  50.231  0.00  0.00     0.002 A 
ENDBRANCH   3   9
TORSDOF 1
ENDMDL
MODEL 2
REMARK VINA RESULT:      17.3      2.197      3.644
REMARK  1 active torsions:
REMARK  status: ('A' for Active; 'I' for Inactive)
REMARK    1  A    between atoms: C_7  and  C_3 
ROOT
ATOM      1  C   UNL d   1      60.406  49.596  50.576  0.00  0.00     0.179 A 
ATOM      2  N   UNL d   1      59.820  49.574  50.021  0.00  0.00    -0.221 NA
ATOM      3  C   UNL d   1      59.088  49.643  50.397  0.00  0.00     0.101 A 
ATOM      4  N   UNL d   1      60.047  49.680  51.303  0.00  0.00    -0.282 N 
ATOM      5  C   UNL d   1      59.236  49.708  51.179  0.00  0.00     0.101 A 
ATOM      6  S   UNL d   1      61.224  49.570  50.716  0.00  0.00    -0.048 SA
ATOM      7  C   UNL d   1      60.642  49.705  51.887  0.00  0.00     0.089 A 
ATOM      8  C   UNL d   1      61.364  49.639  51.544  0.00  0.00     0.057 A 
ENDROOT
BRANCH   3   9
ATOM      9  C   UNL d   1      58.328  49.650  50.074  0.00  0.00     0.019 A 
ATOM     10  C   UNL d   1      58.211  49.698  49.262  0.00  0.00     0.002 A 
ATOM     11  C   UNL d   1      57.448  49.705  48.937  0.00  0.00     0.011 A 
ATOM     12  C   UNL d   1      56.810  49.665  49.418  0.00  0.00     0.058 A 
ATOM     13  C   UNL d   1      56.909  49.614  50.260  0.00  0.00     0.011 A 
ATOM     14 CL   UNL d   1      56.034  49.672  49.086  0.00  0.00    -0.082 Cl
ATOM     15  C   UNL d   1      57.674  49.608  50.575  0.00  0.00     0.002 A 
ENDBRANCH   3   9
TORSDOF 1
ENDMDL
