MODEL 1
REMARK VINA RESULT:      36.5      0.000      0.000
REMARK  2 active torsions:
REMARK  status: ('A' for Active; 'I' for Inactive)
REMARK       I    between atoms: C_3  and  N_1 
REMARK       I    between atoms: C_4  and  N_2 
REMARK    1  A    between atoms: C_5  and  C_3 
REMARK    2  A    between atoms: C_6  and  C_4 
ROOT
ATOM      1  N   UNL d   1      13.522  13.200  -3.648  0.00  0.00    -0.270 N 
ATOM      2  N   UNL d   1      14.236  13.054  -2.168  0.00  0.00    -0.269 N 
ATOM      3  C   UNL d   1      13.168  13.276  -4.378  0.00  0.00     0.271 C 
ATOM      4  C   UNL d   1      14.589  12.992  -1.435  0.00  0.00     0.271 C 
ATOM      5  C   UNL d   1      13.725  12.447  -3.358  0.00  0.00     0.085 A 
ATOM      6  C   UNL d   1      14.077  12.386  -2.626  0.00  0.00     0.101 A 
ATOM      7  C   UNL d   1      13.671  13.884  -3.207  0.00  0.00     0.102 A 
ATOM      8  C   UNL d   1      14.033  13.806  -2.458  0.00  0.00     0.102 A 
ATOM      9  O   UNL d   1      12.965  14.035  -4.667  0.00  0.00    -0.266 OA
ATOM     10  O   UNL d   1      14.788  12.255  -1.151  0.00  0.00    -0.266 OA
ATOM     11  C   UNL d   1      13.566  11.780  -3.817  0.00  0.00     0.021 C 
ENDROOT
BRANCH   3  12
ATOM     12  C   UNL d   1      13.006  12.617  -4.842  0.00  0.00     0.086 A 
ATOM     13  S   UNL d   1      12.837  11.830  -5.036  0.00  0.00    -0.082 SA
ATOM     14  C   UNL d   1      12.770  11.779  -5.853  0.00  0.00     0.036 A 
ATOM     15  C   UNL d   1      12.898  12.537  -6.168  0.00  0.00     0.008 A 
ATOM     16  C   UNL d   1      13.044  13.055  -5.536  0.00  0.00     0.012 A 
ENDBRANCH   3  12
BRANCH   4  17
ATOM     17  C   UNL d   1      14.818  13.528  -0.853  0.00  0.00     0.086 A 
ATOM     18  S   UNL d   1      14.797  13.783  -0.069  0.00  0.00    -0.082 SA
ATOM     19  C   UNL d   1      15.266  14.465  -0.015  0.00  0.00     0.036 A 
ATOM     20  C   UNL d   1      15.572  14.619  -0.778  0.00  0.00     0.008 A 
ATOM     21  C   UNL d   1      15.288  14.036  -1.278  0.00  0.00     0.012 A 
ENDBRANCH   4  17
TORSDOF 2
ENDMDL
