MODEL 1
REMARK VINA RESULT:      15.8      0.000      0.000
REMARK  4 active torsions:
REMARK  status: ('A' for Active; 'I' for Inactive)
REMARK    1  A    between atoms: C_2  and  C_1 
REMARK    2  A    between atoms: C_3  and  C_1 
REMARK    3  A    between atoms: C_4  and  C_2 
REMARK    4  A    between atoms: C_9  and  C_3 
ROOT
ATOM      1  C   UNL d   1      13.257  12.357  -3.659  0.00  0.00     0.196 C 
ATOM      2  O   UNL d   1      12.770  11.779  -3.991  0.00  0.00    -0.287 OA
ENDROOT
BRANCH   1   3
ATOM      3  C   UNL d   1      13.758  12.159  -3.027  0.00  0.00     0.042 C 
BRANCH   3   4
ATOM      4  C   UNL d   1      13.449  11.794  -2.355  0.00  0.00     0.005 C 
BRANCH   4   5
ATOM      5  C   UNL d   1      13.863  11.830  -1.645  0.00  0.00     0.019 A 
ATOM      6  C   UNL d   1      14.685  11.912  -1.649  0.00  0.00     0.099 A 
ATOM      7  N   UNL d   1      15.099  11.948  -0.939  0.00  0.00    -0.242 NA
ATOM      8  C   UNL d   1      14.692  11.902  -0.218  0.00  0.00     0.099 A 
ATOM      9  C   UNL d   1      13.874  11.820  -0.212  0.00  0.00     0.021 A 
ATOM     10  C   UNL d   1      13.456  11.783  -0.924  0.00  0.00     0.003 A 
ENDBRANCH   4   5
ENDBRANCH   3   4
ENDBRANCH   1   3
BRANCH   1  11
ATOM     11  C   UNL d   1      13.246  13.124  -3.954  0.00  0.00     0.039 A 
ATOM     12  C   UNL d   1      13.066  13.250  -4.745  0.00  0.00     0.006 A 
ATOM     13  C   UNL d   1      13.055  14.020  -5.044  0.00  0.00     0.042 A 
ATOM     14  C   UNL d   1      13.225  14.664  -4.544  0.00  0.00     0.196 A 
ATOM     15  C   UNL d   1      13.404  14.529  -3.751  0.00  0.00     0.042 A 
ATOM     16  O   UNL d   1      13.212  15.433  -4.847  0.00  0.00    -0.287 OA
ATOM     17  C   UNL d   1      13.415  13.761  -3.456  0.00  0.00     0.006 A 
ENDBRANCH   1  11
TORSDOF 4
ENDMDL
