MODEL 1
REMARK VINA RESULT:      -4.2      0.000      0.000
REMARK  4 active torsions:
REMARK  status: ('A' for Active; 'I' for Inactive)
REMARK    1  A    between atoms: C_6  and  N_2 
REMARK    2  A    between atoms: C_11  and  C_6 
REMARK    3  A    between atoms: C_10  and  C_11 
REMARK       I    between atoms: N_14  and  C_10 
REMARK    4  A    between atoms: C_16  and  N_14 
ROOT
ATOM      1  C   UNL d   1      56.998  -0.284  31.166  0.00  0.00     0.082 C 
ENDROOT
BRANCH   1   2
ATOM      2  C   UNL d   1      56.699  -0.060  31.803  0.00  0.00     0.281 C 
ATOM      3  N   UNL d   1      56.666   0.627  32.253  0.00  0.00    -0.208 NA
ATOM      4  O   UNL d   1      56.440  -0.778  31.834  0.00  0.00    -0.265 OA
BRANCH   3   5
ATOM      5  C   UNL d   1      56.246   0.625  32.968  0.00  0.00     0.087 A 
ATOM      6  C   UNL d   1      56.658   0.654  33.678  0.00  0.00     0.046 A 
ATOM      7  C   UNL d   1      56.237   0.652  34.393  0.00  0.00     0.124 A 
ATOM      8  O   UNL d   1      56.649   0.682  35.102  0.00  0.00    -0.301 OA
ATOM      9  C   UNL d   1      55.422   0.622  34.397  0.00  0.00     0.123 A 
ATOM     10  C   UNL d   1      56.246   0.681  35.817  0.00  0.00     0.149 A 
ATOM     11  C   UNL d   1      55.422   0.650  35.812  0.00  0.00     0.149 A 
ATOM     12  O   UNL d   1      55.010   0.621  35.103  0.00  0.00    -0.301 OA
ATOM     13  C   UNL d   1      55.019   0.593  33.679  0.00  0.00     0.028 A 
ATOM     14  C   UNL d   1      55.422   0.594  32.964  0.00  0.00     0.021 A 
ENDBRANCH   3   5
ENDBRANCH   1   2
BRANCH   1  15
ATOM     15  C   UNL d   1      57.664  -0.210  30.695  0.00  0.00     0.100 C 
BRANCH  15  16
ATOM     16  N   UNL d   1      58.067  -0.676  30.176  0.00  0.00    -0.197 N 
ATOM     17  S   UNL d   1      58.444  -1.209  29.642  0.00  0.00     0.274 S 
ATOM     18  C   UNL d   1      59.133  -0.823  29.333  0.00  0.00     0.109 A 
ATOM     19  O   UNL d   1      59.006  -1.558  29.065  0.00  0.00    -0.200 OA
ATOM     20  O   UNL d   1      58.135  -1.976  29.489  0.00  0.00    -0.200 OA
ATOM     21  C   UNL d   1      59.178  -0.058  29.676  0.00  0.00     0.069 A 
ATOM     22  C   UNL d   1      59.719  -1.072  28.788  0.00  0.00     0.013 A 
ATOM     23  C   UNL d   1      59.808   0.463  29.476  0.00  0.00     0.005 A 
ATOM     24  C   UNL d   1      58.523   0.034  30.194  0.00  0.00     0.275 A 
ATOM     25  C   UNL d   1      60.386   0.205  28.933  0.00  0.00     0.000 A 
ATOM     26  C   UNL d   1      60.342  -0.560  28.590  0.00  0.00     0.001 A 
ATOM     27  O   UNL d   1      58.302   0.560  30.612  0.00  0.00    -0.266 OA
ENDBRANCH  15  16
ENDBRANCH   1  15
TORSDOF 4
ENDMDL
MODEL 2
REMARK VINA RESULT:      -4.2      1.438      5.727
REMARK  4 active torsions:
REMARK  status: ('A' for Active; 'I' for Inactive)
REMARK    1  A    between atoms: C_6  and  N_2 
REMARK    2  A    between atoms: C_11  and  C_6 
REMARK    3  A    between atoms: C_10  and  C_11 
REMARK       I    between atoms: N_14  and  C_10 
REMARK    4  A    between atoms: C_16  and  N_14 
ROOT
ATOM      1  C   UNL d   1      57.031  -0.442  31.921  0.00  0.00     0.082 C 
ENDROOT
BRANCH   1   2
ATOM      2  C   UNL d   1      57.477  -0.234  31.369  0.00  0.00     0.281 C 
ATOM      3  N   UNL d   1      57.756   0.466  31.043  0.00  0.00    -0.208 NA
ATOM      4  O   UNL d   1      57.547  -0.987  31.258  0.00  0.00    -0.265 OA
BRANCH   3   5
ATOM      5  C   UNL d   1      58.273   0.434  30.394  0.00  0.00     0.087 A 
ATOM      6  C   UNL d   1      59.070   0.281  30.521  0.00  0.00     0.046 A 
ATOM      7  C   UNL d   1      59.586   0.250  29.872  0.00  0.00     0.124 A 
ATOM      8  O   UNL d   1      60.383   0.097  30.000  0.00  0.00    -0.301 OA
ATOM      9  C   UNL d   1      59.312   0.370  29.114  0.00  0.00     0.123 A 
ATOM     10  C   UNL d   1      60.905   0.063  29.368  0.00  0.00     0.149 A 
ATOM     11  C   UNL d   1      60.619   0.185  28.604  0.00  0.00     0.149 A 
ATOM     12  O   UNL d   1      59.823   0.338  28.477  0.00  0.00    -0.301 OA
ATOM     13  C   UNL d   1      58.510   0.523  28.999  0.00  0.00     0.028 A 
ATOM     14  C   UNL d   1      57.987   0.556  29.630  0.00  0.00     0.021 A 
ENDBRANCH   3   5
ENDBRANCH   1   2
BRANCH   1  15
ATOM     15  C   UNL d   1      56.478  -0.160  32.455  0.00  0.00     0.100 C 
BRANCH  15  16
ATOM     16  N   UNL d   1      56.486   0.115  33.212  0.00  0.00    -0.197 N 
ATOM     17  S   UNL d   1      56.558   0.409  33.999  0.00  0.00     0.274 S 
ATOM     18  C   UNL d   1      55.780   0.440  34.337  0.00  0.00     0.109 A 
ATOM     19  O   UNL d   1      56.366   0.682  34.812  0.00  0.00    -0.200 OA
ATOM     20  O   UNL d   1      57.302   0.617  34.329  0.00  0.00    -0.200 OA
ATOM     21  C   UNL d   1      55.235   0.166  33.759  0.00  0.00     0.069 A 
ATOM     22  C   UNL d   1      55.504   0.681  35.090  0.00  0.00     0.013 A 
ATOM     23  C   UNL d   1      54.412   0.131  33.932  0.00  0.00     0.005 A 
ATOM     24  C   UNL d   1      55.667  -0.034  33.067  0.00  0.00     0.275 A 
ATOM     25  C   UNL d   1      54.148   0.373  34.685  0.00  0.00     0.000 A 
ATOM     26  C   UNL d   1      54.693   0.647  35.263  0.00  0.00     0.001 A 
ATOM     27  O   UNL d   1      55.483  -0.286  32.433  0.00  0.00    -0.266 OA
ENDBRANCH  15  16
ENDBRANCH   1  15
TORSDOF 4
ENDMDL
MODEL 3
REMARK VINA RESULT:      -3.6      0.860      1.526
REMARK  4 active torsions:
REMARK  status: ('A' for Active; 'I' for Inactive)
REMARK    1  A    between atoms: C_6  and  N_2 
REMARK    2  A    between atoms: C_11  and  C_6 
REMARK    3  A    between atoms: C_10  and  C_11 
REMARK       I    between atoms: N_14  and  C_10 
REMARK    4  A    between atoms: C_16  and  N_14 
ROOT
ATOM      1  C   UNL d   1      57.273  -1.027  31.350  0.00  0.00     0.082 C 
ENDROOT
BRANCH   1   2
ATOM      2  C   UNL d   1      56.958  -0.676  31.919  0.00  0.00     0.281 C 
ATOM      3  N   UNL d   1      56.744   0.091  32.119  0.00  0.00    -0.208 NA
ATOM      4  O   UNL d   1      56.931  -1.376  32.224  0.00  0.00    -0.265 OA
BRANCH   3   5
ATOM      5  C   UNL d   1      56.386   0.236  32.854  0.00  0.00     0.087 A 
ATOM      6  C   UNL d   1      55.567   0.253  32.906  0.00  0.00     0.046 A 
ATOM      7  C   UNL d   1      55.209   0.398  33.642  0.00  0.00     0.124 A 
ATOM      8  O   UNL d   1      54.390   0.415  33.694  0.00  0.00    -0.301 OA
ATOM      9  C   UNL d   1      55.662   0.523  34.308  0.00  0.00     0.123 A 
ATOM     10  C   UNL d   1      54.024   0.556  34.414  0.00  0.00     0.149 A 
ATOM     11  C   UNL d   1      54.489   0.682  35.083  0.00  0.00     0.149 A 
ATOM     12  O   UNL d   1      55.308   0.665  35.031  0.00  0.00    -0.301 OA
ATOM     13  C   UNL d   1      56.484   0.503  34.243  0.00  0.00     0.028 A 
ATOM     14  C   UNL d   1      56.851   0.361  33.523  0.00  0.00     0.021 A 
ENDBRANCH   3   5
ENDBRANCH   1   2
BRANCH   1  15
ATOM     15  C   UNL d   1      57.556  -0.915  30.590  0.00  0.00     0.100 C 
BRANCH  15  16
ATOM     16  N   UNL d   1      58.199  -0.566  30.252  0.00  0.00    -0.197 N 
ATOM     17  S   UNL d   1      58.857  -0.148  29.931  0.00  0.00     0.274 S 
ATOM     18  C   UNL d   1      59.271  -0.675  29.411  0.00  0.00     0.109 A 
ATOM     19  O   UNL d   1      59.580   0.052  29.474  0.00  0.00    -0.200 OA
ATOM     20  O   UNL d   1      59.017   0.652  30.135  0.00  0.00    -0.200 OA
ATOM     21  C   UNL d   1      58.868  -1.412  29.413  0.00  0.00     0.069 A 
ATOM     22  C   UNL d   1      59.957  -0.576  28.940  0.00  0.00     0.013 A 
ATOM     23  C   UNL d   1      59.148  -2.053  28.946  0.00  0.00     0.005 A 
ATOM     24  C   UNL d   1      58.209  -1.347  29.930  0.00  0.00     0.275 A 
ATOM     25  C   UNL d   1      59.832  -1.943  28.481  0.00  0.00     0.000 A 
ATOM     26  C   UNL d   1      60.235  -1.206  28.478  0.00  0.00     0.001 A 
ATOM     27  O   UNL d   1      57.699  -1.794  30.129  0.00  0.00    -0.266 OA
ENDBRANCH  15  16
ENDBRANCH   1  15
TORSDOF 4
ENDMDL
