MODEL 1
REMARK VINA RESULT:      -9.7      0.000      0.000
REMARK  2 active torsions:
REMARK  status: ('A' for Active; 'I' for Inactive)
REMARK    1  A    between atoms: C_9  and  C_2 
REMARK    2  A    between atoms: C_12  and  C_7 
ROOT
ATOM      1  N   UNL d   1     -48.794  12.158  23.095  0.00  0.00    -0.186 N 
ATOM      2  C   UNL d   1     -49.616  12.158  22.972  0.00  0.00     0.187 A 
ATOM      3  N   UNL d   1     -48.215  12.698  22.889  0.00  0.00    -0.162 NA
ATOM      4  C   UNL d   1     -48.599  11.464  23.500  0.00  0.00     0.217 A 
ATOM      5  N   UNL d   1     -49.917  11.467  23.301  0.00  0.00    -0.127 NA
ATOM      6  N   UNL d   1     -49.289  11.039  23.627  0.00  0.00    -0.120 NA
ATOM      7  C   UNL d   1     -47.423  12.555  23.084  0.00  0.00     0.108 A 
ATOM      8  S   UNL d   1     -47.812  11.315  23.697  0.00  0.00    -0.045 SA
ATOM      9  C   UNL d   1     -47.222  11.862  23.490  0.00  0.00     0.059 A 
ENDROOT
BRANCH   2  10
ATOM     10  C   UNL d   1     -50.047  12.755  22.585  0.00  0.00     0.038 A 
ATOM     11  C   UNL d   1     -50.346  13.390  23.019  0.00  0.00     0.003 A 
ATOM     12  C   UNL d   1     -50.770  13.979  22.646  0.00  0.00     0.000 A 
ATOM     13  C   UNL d   1     -51.064  14.606  23.081  0.00  0.00     0.000 C 
ATOM     14  C   UNL d   1     -50.894  13.928  21.831  0.00  0.00     0.000 A 
ATOM     15  C   UNL d   1     -50.597  13.297  21.397  0.00  0.00     0.000 A 
ATOM     16  C   UNL d   1     -50.172  12.709  21.778  0.00  0.00     0.003 A 
ENDBRANCH   2  10
BRANCH   7  17
ATOM     17  C   UNL d   1     -46.837  13.096  22.879  0.00  0.00     0.020 A 
ATOM     18  C   UNL d   1     -46.874  13.873  23.161  0.00  0.00     0.002 A 
ATOM     19  C   UNL d   1     -46.283  14.409  22.951  0.00  0.00     0.000 A 
ATOM     20  C   UNL d   1     -45.662  14.178  22.467  0.00  0.00     0.000 A 
ATOM     21  C   UNL d   1     -45.625  13.400  22.185  0.00  0.00     0.000 A 
ATOM     22  C   UNL d   1     -46.218  12.855  22.393  0.00  0.00     0.002 A 
ENDBRANCH   7  17
TORSDOF 2
ENDMDL
MODEL 2
REMARK VINA RESULT:      -8.6      0.712      3.728
REMARK  2 active torsions:
REMARK  status: ('A' for Active; 'I' for Inactive)
REMARK    1  A    between atoms: C_9  and  C_2 
REMARK    2  A    between atoms: C_12  and  C_7 
ROOT
ATOM      1  N   UNL d   1     -48.258  12.263  23.123  0.00  0.00    -0.186 N 
ATOM      2  C   UNL d   1     -47.435  12.241  23.230  0.00  0.00     0.187 A 
ATOM      3  N   UNL d   1     -48.748  12.834  22.801  0.00  0.00    -0.162 NA
ATOM      4  C   UNL d   1     -48.571  11.555  23.414  0.00  0.00     0.217 A 
ATOM      5  N   UNL d   1     -47.248  11.523  23.585  0.00  0.00    -0.127 NA
ATOM      6  N   UNL d   1     -47.950  11.099  23.698  0.00  0.00    -0.120 NA
ATOM      7  C   UNL d   1     -49.566  12.709  22.762  0.00  0.00     0.108 A 
ATOM      8  S   UNL d   1     -49.384  11.423  23.378  0.00  0.00    -0.045 SA
ATOM      9  C   UNL d   1     -49.884  12.001  23.052  0.00  0.00     0.059 A 
ENDROOT
BRANCH   2  10
ATOM     10  C   UNL d   1     -46.902  12.843  23.015  0.00  0.00     0.038 A 
ATOM     11  C   UNL d   1     -46.291  12.677  22.485  0.00  0.00     0.003 A 
ATOM     12  C   UNL d   1     -45.765  13.263  22.269  0.00  0.00     0.000 A 
ATOM     13  C   UNL d   1     -45.161  13.093  21.744  0.00  0.00     0.000 C 
ATOM     14  C   UNL d   1     -45.855  14.019  22.588  0.00  0.00     0.000 A 
ATOM     15  C   UNL d   1     -46.463  14.186  23.115  0.00  0.00     0.000 A 
ATOM     16  C   UNL d   1     -46.987  13.594  23.327  0.00  0.00     0.003 A 
ENDBRANCH   2  10
BRANCH   7  17
ATOM     17  C   UNL d   1     -50.062  13.280  22.439  0.00  0.00     0.020 A 
ATOM     18  C   UNL d   1     -50.268  13.245  21.639  0.00  0.00     0.002 A 
ATOM     19  C   UNL d   1     -50.766  13.822  21.322  0.00  0.00     0.000 A 
ATOM     20  C   UNL d   1     -51.058  14.426  21.793  0.00  0.00     0.000 A 
ATOM     21  C   UNL d   1     -50.852  14.462  22.595  0.00  0.00     0.000 A 
ATOM     22  C   UNL d   1     -50.350  13.884  22.921  0.00  0.00     0.002 A 
ENDBRANCH   7  17
TORSDOF 2
ENDMDL
MODEL 3
REMARK VINA RESULT:      -8.5      1.539      2.282
REMARK  2 active torsions:
REMARK  status: ('A' for Active; 'I' for Inactive)
REMARK    1  A    between atoms: C_9  and  C_2 
REMARK    2  A    between atoms: C_12  and  C_7 
ROOT
ATOM      1  N   UNL d   1     -48.341  14.235  22.541  0.00  0.00    -0.186 N 
ATOM      2  C   UNL d   1     -49.149  14.322  22.366  0.00  0.00     0.187 A 
ATOM      3  N   UNL d   1     -47.887  13.570  22.687  0.00  0.00    -0.162 NA
ATOM      4  C   UNL d   1     -48.001  14.988  22.553  0.00  0.00     0.217 A 
ATOM      5  N   UNL d   1     -49.298  15.126  22.273  0.00  0.00    -0.127 NA
ATOM      6  N   UNL d   1     -48.589  15.537  22.389  0.00  0.00    -0.120 NA
ATOM      7  C   UNL d   1     -47.079  13.644  22.849  0.00  0.00     0.108 A 
ATOM      8  S   UNL d   1     -47.197  15.070  22.714  0.00  0.00    -0.045 SA
ATOM      9  C   UNL d   1     -46.733  14.396  22.863  0.00  0.00     0.059 A 
ENDROOT
BRANCH   2  10
ATOM     10  C   UNL d   1     -49.699  13.703  22.300  0.00  0.00     0.038 A 
ATOM     11  C   UNL d   1     -50.114  13.452  22.968  0.00  0.00     0.003 A 
ATOM     12  C   UNL d   1     -50.656  12.844  22.910  0.00  0.00     0.000 A 
ATOM     13  C   UNL d   1     -51.064  12.599  23.576  0.00  0.00     0.000 C 
ATOM     14  C   UNL d   1     -50.781  12.488  22.176  0.00  0.00     0.000 A 
ATOM     15  C   UNL d   1     -50.370  12.737  21.510  0.00  0.00     0.000 A 
ATOM     16  C   UNL d   1     -49.827  13.347  21.575  0.00  0.00     0.003 A 
ENDBRANCH   2  10
BRANCH   7  17
ATOM     17  C   UNL d   1     -46.618  12.978  22.997  0.00  0.00     0.020 A 
ATOM     18  C   UNL d   1     -46.864  12.420  23.556  0.00  0.00     0.002 A 
ATOM     19  C   UNL d   1     -46.397  11.755  23.698  0.00  0.00     0.000 A 
ATOM     20  C   UNL d   1     -45.694  11.644  23.291  0.00  0.00     0.000 A 
ATOM     21  C   UNL d   1     -45.447  12.202  22.731  0.00  0.00     0.000 A 
ATOM     22  C   UNL d   1     -45.913  12.875  22.583  0.00  0.00     0.002 A 
ENDBRANCH   7  17
TORSDOF 2
ENDMDL
MODEL 4
REMARK VINA RESULT:      -7.8      1.630      4.344
REMARK  2 active torsions:
REMARK  status: ('A' for Active; 'I' for Inactive)
REMARK    1  A    between atoms: C_9  and  C_2 
REMARK    2  A    between atoms: C_12  and  C_7 
ROOT
ATOM      1  N   UNL d   1     -47.975  14.380  22.697  0.00  0.00    -0.186 N 
ATOM      2  C   UNL d   1     -47.144  14.404  22.690  0.00  0.00     0.187 A 
ATOM      3  N   UNL d   1     -48.498  13.759  22.789  0.00  0.00    -0.162 NA
ATOM      4  C   UNL d   1     -48.252  15.152  22.588  0.00  0.00     0.217 A 
ATOM      5  N   UNL d   1     -46.918  15.187  22.577  0.00  0.00    -0.127 NA
ATOM      6  N   UNL d   1     -47.602  15.649  22.514  0.00  0.00    -0.120 NA
ATOM      7  C   UNL d   1     -49.315  13.895  22.774  0.00  0.00     0.108 A 
ATOM      8  S   UNL d   1     -49.063  15.296  22.572  0.00  0.00    -0.045 SA
ATOM      9  C   UNL d   1     -49.598  14.666  22.665  0.00  0.00     0.059 A 
ENDROOT
BRANCH   2  10
ATOM     10  C   UNL d   1     -46.641  13.749  22.781  0.00  0.00     0.038 A 
ATOM     11  C   UNL d   1     -46.095  13.568  22.189  0.00  0.00     0.003 A 
ATOM     12  C   UNL d   1     -45.597  12.926  22.272  0.00  0.00     0.000 A 
ATOM     13  C   UNL d   1     -45.058  12.751  21.682  0.00  0.00     0.000 C 
ATOM     14  C   UNL d   1     -45.650  12.464  22.954  0.00  0.00     0.000 A 
ATOM     15  C   UNL d   1     -46.193  12.643  23.545  0.00  0.00     0.000 A 
ATOM     16  C   UNL d   1     -46.689  13.288  23.455  0.00  0.00     0.003 A 
ENDBRANCH   2  10
BRANCH   7  17
ATOM     17  C   UNL d   1     -49.846  13.273  22.865  0.00  0.00     0.020 A 
ATOM     18  C   UNL d   1     -50.034  12.791  22.219  0.00  0.00     0.002 A 
ATOM     19  C   UNL d   1     -50.567  12.169  22.319  0.00  0.00     0.000 A 
ATOM     20  C   UNL d   1     -50.909  12.025  23.051  0.00  0.00     0.000 A 
ATOM     21  C   UNL d   1     -50.720  12.508  23.697  0.00  0.00     0.000 A 
ATOM     22  C   UNL d   1     -50.184  13.136  23.604  0.00  0.00     0.002 A 
ENDBRANCH   7  17
TORSDOF 2
ENDMDL
