MODEL 1
REMARK VINA RESULT:      -1.5      0.000      0.000
REMARK  5 active torsions:
REMARK  status: ('A' for Active; 'I' for Inactive)
REMARK    1  A    between atoms: C_10  and  N_3 
REMARK    2  A    between atoms: C_14  and  N_6 
REMARK    3  A    between atoms: C_9  and  C_7 
REMARK    4  A    between atoms: O_23  and  C_20 
REMARK    5  A    between atoms: C_26  and  O_23 
ROOT
ATOM      1  C   UNL d   1      32.790  21.147 -22.074  0.00  0.00     0.105 A 
ATOM      2  C   UNL d   1      32.875  20.581 -21.459  0.00  0.00     0.186 A 
ATOM      3  N   UNL d   1      32.915  19.930 -22.616  0.00  0.00    -0.240 N 
ATOM      4  C   UNL d   1      32.948  19.861 -21.806  0.00  0.00     0.292 A 
ATOM      5  C   UNL d   1      32.815  20.746 -22.785  0.00  0.00     0.271 A 
ATOM      6  N   UNL d   1      32.749  21.810 -20.900  0.00  0.00    -0.212 N 
ATOM      7  C   UNL d   1      32.716  21.875 -21.705  0.00  0.00     0.100 A 
ATOM      8  O   UNL d   1      32.851  20.979 -20.731  0.00  0.00    -0.223 OA
ATOM      9  O   UNL d   1      32.749  21.107 -23.528  0.00  0.00    -0.266 OA
ATOM     10  O   UNL d   1      33.044  19.148 -21.399  0.00  0.00    -0.264 OA
ENDROOT
BRANCH   3  11
ATOM     11  C   UNL d   1      32.971  19.307 -23.155  0.00  0.00     0.070 A 
ATOM     12  C   UNL d   1      32.841  18.540 -22.895  0.00  0.00     0.020 A 
ATOM     13  C   UNL d   1      32.894  17.902 -23.425  0.00  0.00     0.026 A 
ATOM     14  C   UNL d   1      33.081  18.055 -24.223  0.00  0.00     0.100 A 
ATOM     15  C   UNL d   1      33.209  18.816 -24.477  0.00  0.00     0.026 A 
ATOM     16  C   UNL d   1      33.152  19.430 -23.938  0.00  0.00     0.020 A 
BRANCH  14  17
ATOM     17  O   UNL d   1      33.138  17.438 -24.765  0.00  0.00    -0.305 OA
BRANCH  17  18
ATOM     18  C   UNL d   1      32.921  16.677 -24.531  0.00  0.00     0.123 C 
ATOM     19  C   UNL d   1      33.019  16.041 -25.036  0.00  0.00     0.029 C 
ENDBRANCH  17  18
ENDBRANCH  14  17
ENDBRANCH   3  11
BRANCH   7  20
ATOM     20  C   UNL d   1      32.620  22.587 -22.112  0.00  0.00     0.048 A 
ATOM     21  S   UNL d   1      33.222  23.050 -22.503  0.00  0.00    -0.085 SA
ATOM     22  C   UNL d   1      32.847  23.699 -22.820  0.00  0.00     0.035 A 
ATOM     23  C   UNL d   1      32.059  23.687 -22.662  0.00  0.00     0.007 A 
ATOM     24  C   UNL d   1      31.902  22.980 -22.211  0.00  0.00     0.009 A 
ENDBRANCH   7  20
BRANCH   6  25
ATOM     25  C   UNL d   1      32.692  22.438 -20.362  0.00  0.00     0.088 A 
ATOM     26  C   UNL d   1      32.090  22.460 -19.804  0.00  0.00     0.020 A 
ATOM     27  C   UNL d   1      32.029  23.092 -19.259  0.00  0.00     0.002 A 
ATOM     28  C   UNL d   1      32.589  23.702 -19.290  0.00  0.00     0.000 A 
ATOM     29  C   UNL d   1      33.197  23.678 -19.855  0.00  0.00     0.002 A 
ATOM     30  C   UNL d   1      33.240  23.041 -20.387  0.00  0.00     0.020 A 
ENDBRANCH   6  25
TORSDOF 5
ENDMDL
