MODEL 1
REMARK VINA RESULT:      -6.0      0.000      0.000
REMARK  6 active torsions:
REMARK  status: ('A' for Active; 'I' for Inactive)
REMARK    1  A    between atoms: N_3  and  C_1 
REMARK       I    between atoms: C_4  and  N_3 
REMARK       I    between atoms: N_10  and  C_4 
REMARK    2  A    between atoms: C_7  and  C_5 
REMARK    3  A    between atoms: C_9  and  C_7 
REMARK       I    between atoms: N_12  and  C_9 
REMARK    4  A    between atoms: C_14  and  N_10 
REMARK    5  A    between atoms: C_19  and  N_12 
REMARK    6  A    between atoms: C_17  and  C_19 
ROOT
ATOM      1  C   UNL d   1     -45.626  13.272  22.694  0.00  0.00     0.199 A 
ATOM      2  N   UNL d   1     -45.123  13.515  22.085  0.00  0.00    -0.220 NA
ATOM      3  C   UNL d   1     -44.681  12.864  21.850  0.00  0.00     0.095 A 
ATOM      4  S   UNL d   1     -45.499  12.484  22.835  0.00  0.00    -0.046 SA
ATOM      5  C   UNL d   1     -44.914  12.222  22.317  0.00  0.00     0.058 A 
ENDROOT
BRANCH   1   6
ATOM      6  N   UNL d   1     -46.177  13.753  23.101  0.00  0.00    -0.166 NA
ATOM      7  C   UNL d   1     -46.954  13.837  22.806  0.00  0.00     0.370 C 
ATOM      8  N   UNL d   1     -47.506  14.310  23.201  0.00  0.00    -0.191 NA
ATOM      9  O   UNL d   1     -47.180  13.443  22.110  0.00  0.00    -0.242 OA
BRANCH   8  10
ATOM     10  C   UNL d   1     -48.270  14.396  22.917  0.00  0.00     0.087 A 
ATOM     11  C   UNL d   1     -48.866  13.876  23.145  0.00  0.00     0.031 A 
ATOM     12  C   UNL d   1     -49.625  13.959  22.866  0.00  0.00     0.059 A 
ATOM     13 CL   UNL d   1     -50.220  13.432  23.100  0.00  0.00    -0.082 Cl
ATOM     14  C   UNL d   1     -49.802  14.581  22.339  0.00  0.00     0.011 A 
ATOM     15  C   UNL d   1     -49.206  15.101  22.111  0.00  0.00     0.002 A 
ATOM     16  C   UNL d   1     -48.438  15.010  22.399  0.00  0.00     0.019 A 
ENDBRANCH   8  10
ENDBRANCH   1   6
BRANCH   3  17
ATOM     17  C   UNL d   1     -44.104  12.855  21.252  0.00  0.00     0.082 C 
BRANCH  17  18
ATOM     18  C   UNL d   1     -43.287  12.881  21.444  0.00  0.00     0.281 C 
ATOM     19  N   UNL d   1     -42.812  13.504  21.183  0.00  0.00    -0.205 NA
ATOM     20  O   UNL d   1     -42.970  12.270  21.899  0.00  0.00    -0.265 OA
BRANCH  19  21
ATOM     21  C   UNL d   1     -42.014  13.521  21.376  0.00  0.00     0.121 C 
BRANCH  21  22
ATOM     22  C   UNL d   1     -41.534  14.110  21.100  0.00  0.00     0.101 A 
ATOM     23  N   UNL d   1     -41.782  14.909  21.138  0.00  0.00    -0.242 NA
ATOM     24  C   UNL d   1     -41.285  15.502  20.855  0.00  0.00     0.099 A 
ATOM     25  C   UNL d   1     -40.550  15.319  20.535  0.00  0.00     0.021 A 
ATOM     26  C   UNL d   1     -40.305  14.530  20.496  0.00  0.00     0.003 A 
ATOM     27  C   UNL d   1     -40.805  13.932  20.782  0.00  0.00     0.021 A 
ENDBRANCH  21  22
ENDBRANCH  19  21
ENDBRANCH  17  18
ENDBRANCH   3  17
TORSDOF 6
ENDMDL
MODEL 2
REMARK VINA RESULT:      -5.1      3.423      7.376
REMARK  6 active torsions:
REMARK  status: ('A' for Active; 'I' for Inactive)
REMARK    1  A    between atoms: N_3  and  C_1 
REMARK       I    between atoms: C_4  and  N_3 
REMARK       I    between atoms: N_10  and  C_4 
REMARK    2  A    between atoms: C_7  and  C_5 
REMARK    3  A    between atoms: C_9  and  C_7 
REMARK       I    between atoms: N_12  and  C_9 
REMARK    4  A    between atoms: C_14  and  N_10 
REMARK    5  A    between atoms: C_19  and  N_12 
REMARK    6  A    between atoms: C_17  and  C_19 
ROOT
ATOM      1  C   UNL d   1     -40.920  14.260  20.612  0.00  0.00     0.199 A 
ATOM      2  N   UNL d   1     -41.160  13.533  20.925  0.00  0.00    -0.220 NA
ATOM      3  C   UNL d   1     -41.920  13.628  21.222  0.00  0.00     0.095 A 
ATOM      4  S   UNL d   1     -41.519  14.796  20.712  0.00  0.00    -0.046 SA
ATOM      5  C   UNL d   1     -42.144  14.413  21.090  0.00  0.00     0.058 A 
ENDROOT
BRANCH   1   6
ATOM      6  N   UNL d   1     -40.183  14.422  20.250  0.00  0.00    -0.166 NA
ATOM      7  C   UNL d   1     -40.061  14.226  19.448  0.00  0.00     0.370 C 
ATOM      8  N   UNL d   1     -39.336  14.382  19.081  0.00  0.00    -0.191 NA
ATOM      9  O   UNL d   1     -40.671  13.872  19.008  0.00  0.00    -0.242 OA
BRANCH   8  10
ATOM     10  C   UNL d   1     -39.211  14.193  18.293  0.00  0.00     0.087 A 
ATOM     11  C   UNL d   1     -38.823  13.497  18.083  0.00  0.00     0.031 A 
ATOM     12  C   UNL d   1     -38.697  13.306  17.303  0.00  0.00     0.059 A 
ATOM     13 CL   UNL d   1     -38.306  12.605  17.099  0.00  0.00    -0.082 Cl
ATOM     14  C   UNL d   1     -38.964  13.824  16.706  0.00  0.00     0.011 A 
ATOM     15  C   UNL d   1     -39.352  14.520  16.916  0.00  0.00     0.002 A 
ATOM     16  C   UNL d   1     -39.476  14.706  17.711  0.00  0.00     0.019 A 
ENDBRANCH   8  10
ENDBRANCH   1   6
BRANCH   3  17
ATOM     17  C   UNL d   1     -42.378  13.040  21.589  0.00  0.00     0.082 C 
BRANCH  17  18
ATOM     18  C   UNL d   1     -43.172  12.904  21.351  0.00  0.00     0.281 C 
ATOM     19  N   UNL d   1     -43.797  13.029  21.875  0.00  0.00    -0.205 NA
ATOM     20  O   UNL d   1     -43.312  12.643  20.581  0.00  0.00    -0.265 OA
BRANCH  19  21
ATOM     21  C   UNL d   1     -44.570  12.893  21.633  0.00  0.00     0.121 C 
BRANCH  21  22
ATOM     22  C   UNL d   1     -45.187  12.985  22.147  0.00  0.00     0.101 A 
ATOM     23  N   UNL d   1     -45.387  12.369  22.679  0.00  0.00    -0.242 NA
ATOM     24  C   UNL d   1     -46.018  12.471  23.199  0.00  0.00     0.099 A 
ATOM     25  C   UNL d   1     -46.453  13.170  23.202  0.00  0.00     0.021 A 
ATOM     26  C   UNL d   1     -46.256  13.777  22.677  0.00  0.00     0.003 A 
ATOM     27  C   UNL d   1     -45.620  13.675  22.153  0.00  0.00     0.021 A 
ENDBRANCH  21  22
ENDBRANCH  19  21
ENDBRANCH  17  18
ENDBRANCH   3  17
TORSDOF 6
ENDMDL
MODEL 3
REMARK VINA RESULT:      -4.8      2.498      6.690
REMARK  6 active torsions:
REMARK  status: ('A' for Active; 'I' for Inactive)
REMARK    1  A    between atoms: N_3  and  C_1 
REMARK       I    between atoms: C_4  and  N_3 
REMARK       I    between atoms: N_10  and  C_4 
REMARK    2  A    between atoms: C_7  and  C_5 
REMARK    3  A    between atoms: C_9  and  C_7 
REMARK       I    between atoms: N_12  and  C_9 
REMARK    4  A    between atoms: C_14  and  N_10 
REMARK    5  A    between atoms: C_19  and  N_12 
REMARK    6  A    between atoms: C_17  and  C_19 
ROOT
ATOM      1  C   UNL d   1     -43.833  12.679  21.576  0.00  0.00     0.199 A 
ATOM      2  N   UNL d   1     -44.494  13.169  21.494  0.00  0.00    -0.220 NA
ATOM      3  C   UNL d   1     -45.036  12.956  22.075  0.00  0.00     0.095 A 
ATOM      4  S   UNL d   1     -43.961  12.172  22.195  0.00  0.00    -0.046 SA
ATOM      5  C   UNL d   1     -44.704  12.336  22.511  0.00  0.00     0.058 A 
ENDROOT
BRANCH   1   6
ATOM      6  N   UNL d   1     -43.144  12.698  21.102  0.00  0.00    -0.166 NA
ATOM      7  C   UNL d   1     -42.570  13.292  21.226  0.00  0.00     0.370 C 
ATOM      8  N   UNL d   1     -41.885  13.320  20.763  0.00  0.00    -0.191 NA
ATOM      9  O   UNL d   1     -42.683  13.863  21.820  0.00  0.00    -0.242 OA
BRANCH   8  10
ATOM     10  C   UNL d   1     -41.318  13.900  20.880  0.00  0.00     0.087 A 
ATOM     11  C   UNL d   1     -40.624  13.735  21.293  0.00  0.00     0.031 A 
ATOM     12  C   UNL d   1     -40.060  14.308  21.411  0.00  0.00     0.059 A 
ATOM     13 CL   UNL d   1     -39.365  14.135  21.827  0.00  0.00    -0.082 Cl
ATOM     14  C   UNL d   1     -40.185  15.076  21.108  0.00  0.00     0.011 A 
ATOM     15  C   UNL d   1     -40.879  15.240  20.695  0.00  0.00     0.002 A 
ATOM     16  C   UNL d   1     -41.447  14.653  20.580  0.00  0.00     0.019 A 
ENDBRANCH   8  10
ENDBRANCH   1   6
BRANCH   3  17
ATOM     17  C   UNL d   1     -45.780  13.303  22.198  0.00  0.00     0.082 C 
BRANCH  17  18
ATOM     18  C   UNL d   1     -46.225  13.130  22.889  0.00  0.00     0.281 C 
ATOM     19  N   UNL d   1     -47.002  12.858  22.834  0.00  0.00    -0.205 NA
ATOM     20  O   UNL d   1     -45.866  13.237  23.625  0.00  0.00    -0.265 OA
BRANCH  19  21
ATOM     21  C   UNL d   1     -47.429  12.691  23.515  0.00  0.00     0.121 C 
BRANCH  21  22
ATOM     22  C   UNL d   1     -48.193  12.429  23.472  0.00  0.00     0.101 A 
ATOM     23  N   UNL d   1     -48.797  12.939  23.195  0.00  0.00    -0.242 NA
ATOM     24  C   UNL d   1     -49.573  12.664  23.154  0.00  0.00     0.099 A 
ATOM     25  C   UNL d   1     -49.760  11.896  23.383  0.00  0.00     0.021 A 
ATOM     26  C   UNL d   1     -49.164  11.393  23.657  0.00  0.00     0.003 A 
ATOM     27  C   UNL d   1     -48.382  11.670  23.698  0.00  0.00     0.021 A 
ENDBRANCH  21  22
ENDBRANCH  19  21
ENDBRANCH  17  18
ENDBRANCH   3  17
TORSDOF 6
ENDMDL
