MODEL 1
REMARK VINA RESULT:       0.6      0.000      0.000
REMARK  5 active torsions:
REMARK  status: ('A' for Active; 'I' for Inactive)
REMARK       I    between atoms: N_2  and  C_1 
REMARK    1  A    between atoms: C_8  and  C_1 
REMARK    2  A    between atoms: C_4  and  N_2 
REMARK    3  A    between atoms: C_3  and  C_4 
REMARK    4  A    between atoms: C_5  and  C_3 
REMARK    5  A    between atoms: N_6  and  C_3 
ROOT
ATOM      1  C   UNL d   1      31.925  16.696 -23.506  0.00  0.00     0.088 C 
ENDROOT
BRANCH   1   2
ATOM      2  C   UNL d   1      31.317  16.255 -23.173  0.00  0.00     0.101 C 
ATOM      3  C   UNL d   1      31.463  15.791 -22.517  0.00  0.00     0.022 C 
BRANCH   2   4
ATOM      4  N   UNL d   1      30.566  16.286 -23.505  0.00  0.00    -0.206 NA
ATOM      5  C   UNL d   1      29.936  15.897 -23.136  0.00  0.00     0.279 C 
ATOM      6  O   UNL d   1      30.068  15.483 -22.439  0.00  0.00    -0.265 OA
BRANCH   5   7
ATOM      7  C   UNL d   1      29.186  15.928 -23.468  0.00  0.00     0.058 A 
ATOM      8  C   UNL d   1      28.576  16.351 -23.098  0.00  0.00     0.005 A 
ATOM      9  C   UNL d   1      27.819  16.381 -23.435  0.00  0.00     0.000 A 
ATOM     10  C   UNL d   1      27.225  16.800 -23.065  0.00  0.00     0.000 C 
ATOM     11  C   UNL d   1      27.680  15.981 -24.149  0.00  0.00     0.000 A 
ATOM     12  C   UNL d   1      28.284  15.555 -24.524  0.00  0.00     0.000 A 
ATOM     13  C   UNL d   1      29.030  15.532 -24.182  0.00  0.00     0.005 A 
ENDBRANCH   5   7
ENDBRANCH   2   4
ENDBRANCH   1   2
BRANCH   1  14
ATOM     14  C   UNL d   1      32.440  16.348 -24.044  0.00  0.00     0.047 A 
ATOM     15  S   UNL d   1      32.751  16.698 -24.726  0.00  0.00    -0.085 SA
ATOM     16  C   UNL d   1      33.239  16.150 -25.097  0.00  0.00     0.035 A 
ATOM     17  C   UNL d   1      33.240  15.454 -24.653  0.00  0.00     0.007 A 
ATOM     18  C   UNL d   1      32.744  15.572 -23.996  0.00  0.00     0.009 A 
ENDBRANCH   1  14
BRANCH   1  19
ATOM     19  N   UNL d   1      32.023  17.493 -23.302  0.00  0.00    -0.299 N 
ATOM     20  C   UNL d   1      32.599  17.710 -22.766  0.00  0.00     0.107 A 
ATOM     21  C   UNL d   1      32.702  18.498 -22.558  0.00  0.00     0.142 A 
ATOM     22  O   UNL d   1      32.221  19.086 -22.891  0.00  0.00    -0.300 OA
ATOM     23  C   UNL d   1      31.636  18.862 -23.437  0.00  0.00     0.142 A 
ATOM     24  C   UNL d   1      31.538  18.069 -23.640  0.00  0.00     0.107 A 
ENDBRANCH   1  19
TORSDOF 5
ENDMDL
MODEL 2
REMARK VINA RESULT:       1.0      1.943      4.105
REMARK  5 active torsions:
REMARK  status: ('A' for Active; 'I' for Inactive)
REMARK       I    between atoms: N_2  and  C_1 
REMARK    1  A    between atoms: C_8  and  C_1 
REMARK    2  A    between atoms: C_4  and  N_2 
REMARK    3  A    between atoms: C_3  and  C_4 
REMARK    4  A    between atoms: C_5  and  C_3 
REMARK    5  A    between atoms: N_6  and  C_3 
ROOT
ATOM      1  C   UNL d   1      28.875  16.639 -24.085  0.00  0.00     0.088 C 
ENDROOT
BRANCH   1   2
ATOM      2  C   UNL d   1      29.531  16.253 -24.396  0.00  0.00     0.101 C 
ATOM      3  C   UNL d   1      29.440  15.740 -25.026  0.00  0.00     0.022 C 
BRANCH   2   4
ATOM      4  N   UNL d   1      30.272  16.388 -24.070  0.00  0.00    -0.206 NA
ATOM      5  C   UNL d   1      30.933  15.985 -24.365  0.00  0.00     0.279 C 
ATOM      6  O   UNL d   1      30.838  15.453 -24.982  0.00  0.00    -0.265 OA
BRANCH   5   7
ATOM      7  C   UNL d   1      31.673  16.120 -24.038  0.00  0.00     0.058 A 
ATOM      8  C   UNL d   1      32.087  16.821 -24.200  0.00  0.00     0.005 A 
ATOM      9  C   UNL d   1      32.835  16.955 -23.869  0.00  0.00     0.000 A 
ATOM     10  C   UNL d   1      33.234  17.647 -24.033  0.00  0.00     0.000 C 
ATOM     11  C   UNL d   1      33.165  16.378 -23.373  0.00  0.00     0.000 A 
ATOM     12  C   UNL d   1      32.758  15.675 -23.206  0.00  0.00     0.000 A 
ATOM     13  C   UNL d   1      32.018  15.552 -23.539  0.00  0.00     0.005 A 
ENDBRANCH   5   7
ENDBRANCH   2   4
ENDBRANCH   1   2
BRANCH   1  14
ATOM     14  C   UNL d   1      28.336  16.227 -23.621  0.00  0.00     0.047 A 
ATOM     15  S   UNL d   1      27.711  15.757 -23.891  0.00  0.00    -0.085 SA
ATOM     16  C   UNL d   1      27.317  15.453 -23.238  0.00  0.00     0.035 A 
ATOM     17  C   UNL d   1      27.687  15.727 -22.553  0.00  0.00     0.007 A 
ATOM     18  C   UNL d   1      28.323  16.211 -22.787  0.00  0.00     0.009 A 
ENDBRANCH   1  14
BRANCH   1  19
ATOM     19  N   UNL d   1      28.754  17.444 -24.237  0.00  0.00    -0.299 N 
ATOM     20  C   UNL d   1      28.978  18.002 -23.685  0.00  0.00     0.107 A 
ATOM     21  C   UNL d   1      28.862  18.803 -23.828  0.00  0.00     0.142 A 
ATOM     22  O   UNL d   1      28.512  19.056 -24.537  0.00  0.00    -0.300 OA
ATOM     23  C   UNL d   1      28.285  18.485 -25.097  0.00  0.00     0.142 A 
ATOM     24  C   UNL d   1      28.406  17.683 -24.945  0.00  0.00     0.107 A 
ENDBRANCH   1  19
TORSDOF 5
ENDMDL
MODEL 3
REMARK VINA RESULT:       1.5      1.778      4.384
REMARK  5 active torsions:
REMARK  status: ('A' for Active; 'I' for Inactive)
REMARK       I    between atoms: N_2  and  C_1 
REMARK    1  A    between atoms: C_8  and  C_1 
REMARK    2  A    between atoms: C_4  and  N_2 
REMARK    3  A    between atoms: C_3  and  C_4 
REMARK    4  A    between atoms: C_5  and  C_3 
REMARK    5  A    between atoms: N_6  and  C_3 
ROOT
ATOM      1  C   UNL d   1      28.952  16.668 -24.151  0.00  0.00     0.088 C 
ENDROOT
BRANCH   1   2
ATOM      2  C   UNL d   1      29.655  16.295 -24.359  0.00  0.00     0.101 C 
ATOM      3  C   UNL d   1      29.634  15.581 -24.756  0.00  0.00     0.022 C 
BRANCH   2   4
ATOM      4  N   UNL d   1      30.371  16.646 -24.164  0.00  0.00    -0.206 NA
ATOM      5  C   UNL d   1      31.077  16.227 -24.269  0.00  0.00     0.279 C 
ATOM      6  O   UNL d   1      31.054  15.463 -24.568  0.00  0.00    -0.265 OA
BRANCH   5   7
ATOM      7  C   UNL d   1      31.794  16.577 -24.074  0.00  0.00     0.058 A 
ATOM      8  C   UNL d   1      32.033  17.283 -24.438  0.00  0.00     0.005 A 
ATOM      9  C   UNL d   1      32.757  17.635 -24.239  0.00  0.00     0.000 A 
ATOM     10  C   UNL d   1      32.984  18.329 -24.602  0.00  0.00     0.000 C 
ATOM     11  C   UNL d   1      33.239  17.272 -23.671  0.00  0.00     0.000 A 
ATOM     12  C   UNL d   1      33.007  16.566 -23.302  0.00  0.00     0.000 A 
ATOM     13  C   UNL d   1      32.288  16.226 -23.506  0.00  0.00     0.005 A 
ENDBRANCH   5   7
ENDBRANCH   2   4
ENDBRANCH   1   2
BRANCH   1  14
ATOM     14  C   UNL d   1      28.811  17.443 -24.385  0.00  0.00     0.047 A 
ATOM     15  S   UNL d   1      28.471  17.690 -25.097  0.00  0.00    -0.085 SA
ATOM     16  C   UNL d   1      28.438  18.511 -25.096  0.00  0.00     0.035 A 
ATOM     17  C   UNL d   1      28.755  18.788 -24.385  0.00  0.00     0.007 A 
ATOM     18  C   UNL d   1      28.989  18.126 -23.939  0.00  0.00     0.009 A 
ENDBRANCH   1  14
BRANCH   1  19
ATOM     19  N   UNL d   1      28.382  16.265 -23.706  0.00  0.00    -0.299 N 
ATOM     20  C   UNL d   1      27.679  16.037 -24.052  0.00  0.00     0.107 A 
ATOM     21  C   UNL d   1      27.108  15.636 -23.617  0.00  0.00     0.142 A 
ATOM     22  O   UNL d   1      27.239  15.458 -22.817  0.00  0.00    -0.300 OA
ATOM     23  C   UNL d   1      27.955  15.691 -22.467  0.00  0.00     0.142 A 
ATOM     24  C   UNL d   1      28.523  16.093 -22.911  0.00  0.00     0.107 A 
ENDBRANCH   1  19
TORSDOF 5
ENDMDL
MODEL 4
REMARK VINA RESULT:       3.0      4.306      6.455
REMARK  5 active torsions:
REMARK  status: ('A' for Active; 'I' for Inactive)
REMARK       I    between atoms: N_2  and  C_1 
REMARK    1  A    between atoms: C_8  and  C_1 
REMARK    2  A    between atoms: C_4  and  N_2 
REMARK    3  A    between atoms: C_3  and  C_4 
REMARK    4  A    between atoms: C_5  and  C_3 
REMARK    5  A    between atoms: N_6  and  C_3 
ROOT
ATOM      1  C   UNL d   1      32.590  22.515 -20.780  0.00  0.00     0.088 C 
ENDROOT
BRANCH   1   2
ATOM      2  C   UNL d   1      32.838  21.731 -20.766  0.00  0.00     0.101 C 
ATOM      3  C   UNL d   1      33.104  21.402 -20.067  0.00  0.00     0.022 C 
BRANCH   2   4
ATOM      4  N   UNL d   1      32.815  21.287 -21.456  0.00  0.00    -0.206 NA
ATOM      5  C   UNL d   1      33.017  20.484 -21.437  0.00  0.00     0.279 C 
ATOM      6  O   UNL d   1      33.240  20.140 -20.725  0.00  0.00    -0.265 OA
BRANCH   5   7
ATOM      7  C   UNL d   1      32.994  20.040 -22.127  0.00  0.00     0.058 A 
ATOM      8  C   UNL d   1      32.913  19.215 -22.098  0.00  0.00     0.005 A 
ATOM      9  C   UNL d   1      32.890  18.769 -22.796  0.00  0.00     0.000 A 
ATOM     10  C   UNL d   1      32.810  17.959 -22.758  0.00  0.00     0.000 C 
ATOM     11  C   UNL d   1      32.949  19.160 -23.526  0.00  0.00     0.000 A 
ATOM     12  C   UNL d   1      33.031  19.984 -23.563  0.00  0.00     0.000 A 
ATOM     13  C   UNL d   1      33.052  20.416 -22.866  0.00  0.00     0.005 A 
ENDBRANCH   5   7
ENDBRANCH   2   4
ENDBRANCH   1   2
BRANCH   1  14
ATOM     14  C   UNL d   1      32.603  22.939 -21.485  0.00  0.00     0.047 A 
ATOM     15  S   UNL d   1      33.240  23.368 -21.790  0.00  0.00    -0.085 SA
ATOM     16  C   UNL d   1      33.008  23.702 -22.504  0.00  0.00     0.035 A 
ATOM     17  C   UNL d   1      32.225  23.487 -22.654  0.00  0.00     0.007 A 
ATOM     18  C   UNL d   1      31.968  23.011 -22.022  0.00  0.00     0.009 A 
ENDBRANCH   1  14
BRANCH   1  19
ATOM     19  N   UNL d   1      32.326  22.882 -20.087  0.00  0.00    -0.299 N 
ATOM     20  C   UNL d   1      32.864  23.135 -19.528  0.00  0.00     0.107 A 
ATOM     21  C   UNL d   1      32.610  23.500 -18.837  0.00  0.00     0.142 A 
ATOM     22  O   UNL d   1      31.800  23.617 -18.697  0.00  0.00    -0.300 OA
ATOM     23  C   UNL d   1      31.255  23.358 -19.268  0.00  0.00     0.142 A 
ATOM     24  C   UNL d   1      31.518  22.992 -19.959  0.00  0.00     0.107 A 
ENDBRANCH   1  19
TORSDOF 5
ENDMDL
