MODEL 1
REMARK VINA RESULT:      19.3      0.000      0.000
REMARK  3 active torsions:
REMARK  status: ('A' for Active; 'I' for Inactive)
REMARK    1  A    between atoms: C_7  and  C_3 
REMARK    2  A    between atoms: N_5  and  C_8 
REMARK    3  A    between atoms: C_13  and  C_7 
ROOT
ATOM      1  C   UNL d   1      57.460  49.506  50.426  0.00  0.00     0.127 A 
ATOM      2  C   UNL d   1      58.880  49.647  50.657  0.00  0.00     0.002 A 
ATOM      3  C   UNL d   1      58.223  49.566  50.118  0.00  0.00     0.024 A 
ATOM      4  C   UNL d   1      57.335  49.522  51.231  0.00  0.00     0.024 A 
ATOM      5  C   UNL d   1      57.995  49.602  51.752  0.00  0.00     0.002 A 
ATOM      6  C   UNL d   1      58.762  49.664  51.443  0.00  0.00     0.000 A 
ENDROOT
BRANCH   2   7
ATOM      7  C   UNL d   1      59.637  49.707  50.341  0.00  0.00     0.011 C 
BRANCH   7   8
ATOM      8  C   UNL d   1      60.292  49.682  50.864  0.00  0.00     0.092 A 
ATOM      9  C   UNL d   1      61.020  49.649  50.586  0.00  0.00     0.288 A 
ATOM     10  N   UNL d   1      61.534  49.631  51.231  0.00  0.00    -0.163 NA
ATOM     11  O   UNL d   1      61.243  49.635  49.772  0.00  0.00    -0.265 OA
ATOM     12  C   UNL d   1      61.088  49.654  51.907  0.00  0.00     0.313 A 
ATOM     13  S   UNL d   1      60.313  49.686  51.709  0.00  0.00    -0.021 SA
ATOM     14  O   UNL d   1      61.376  49.646  52.703  0.00  0.00    -0.258 OA
ENDBRANCH   7   8
ENDBRANCH   2   7
BRANCH   1  15
ATOM     15  N   UNL d   1      56.816  49.427  49.926  0.00  0.00    -0.114 N 
ATOM     16  O   UNL d   1      56.868  49.662  49.137  0.00  0.00    -0.532 OA
ATOM     17  O   UNL d   1      56.119  49.116  50.210  0.00  0.00    -0.532 OA
ENDBRANCH   1  15
TORSDOF 3
ENDMDL
