MODEL 1
REMARK VINA RESULT:      -5.6      0.000      0.000
REMARK  4 active torsions:
REMARK  status: ('A' for Active; 'I' for Inactive)
REMARK    1  A    between atoms: N_5  and  S_1 
REMARK    2  A    between atoms: C_6  and  S_1 
REMARK    3  A    between atoms: N_2  and  C_7 
REMARK    4  A    between atoms: C_18  and  N_5 
ROOT
ATOM      1  C   UNL d   1     -47.423  13.682  22.664  0.00  0.00     0.117 A 
ATOM      2  C   UNL d   1     -48.957  14.181  22.962  0.00  0.00     0.070 A 
ATOM      3  C   UNL d   1     -47.817  13.411  23.321  0.00  0.00     0.015 A 
ATOM      4  C   UNL d   1     -47.796  14.209  22.149  0.00  0.00     0.015 A 
ATOM      5  C   UNL d   1     -48.587  13.660  23.473  0.00  0.00     0.018 A 
ATOM      6  C   UNL d   1     -48.565  14.455  22.303  0.00  0.00     0.018 A 
ENDROOT
BRANCH   1   7
ATOM      7  S   UNL d   1     -46.652  13.433  22.513  0.00  0.00     0.327 S 
ATOM      8  O   UNL d   1     -46.937  12.933  21.912  0.00  0.00    -0.186 OA
ATOM      9  O   UNL d   1     -46.381  13.926  23.104  0.00  0.00    -0.186 OA
BRANCH   7  10
ATOM     10  N   UNL d   1     -45.888  13.180  22.356  0.00  0.00    -0.317 NA
BRANCH  10  11
ATOM     11  C   UNL d   1     -45.118  12.931  22.198  0.00  0.00     0.145 A 
ATOM     12  C   UNL d   1     -44.656  13.332  21.632  0.00  0.00     0.033 A 
ATOM     13  C   UNL d   1     -43.885  13.084  21.474  0.00  0.00     0.003 A 
ATOM     14  C   UNL d   1     -43.566  12.444  21.867  0.00  0.00     0.000 A 
ATOM     15  C   UNL d   1     -44.018  12.034  22.436  0.00  0.00     0.003 A 
ATOM     16  C   UNL d   1     -42.793  12.196  21.707  0.00  0.00     0.000 C 
ATOM     17  C   UNL d   1     -44.795  12.283  22.596  0.00  0.00     0.033 A 
ENDBRANCH  10  11
ENDBRANCH   7  10
ENDBRANCH   1   7
BRANCH   2  18
ATOM     18  N   UNL d   1     -49.728  14.431  23.114  0.00  0.00    -0.242 N 
ATOM     19  C   UNL d   1     -49.951  15.161  23.439  0.00  0.00     0.267 A 
ATOM     20  C   UNL d   1     -50.777  15.180  23.495  0.00  0.00     0.066 A 
ATOM     21  O   UNL d   1     -49.439  15.765  23.667  0.00  0.00    -0.267 OA
ATOM     22  C   UNL d   1     -51.064  14.463  23.205  0.00  0.00     0.066 A 
ATOM     23  C   UNL d   1     -50.421  14.001  22.970  0.00  0.00     0.267 A 
ATOM     24  O   UNL d   1     -50.463  13.239  22.647  0.00  0.00    -0.267 OA
ENDBRANCH   2  18
TORSDOF 4
ENDMDL
MODEL 2
REMARK VINA RESULT:      -5.3      8.438      8.989
REMARK  4 active torsions:
REMARK  status: ('A' for Active; 'I' for Inactive)
REMARK    1  A    between atoms: N_5  and  S_1 
REMARK    2  A    between atoms: C_6  and  S_1 
REMARK    3  A    between atoms: N_2  and  C_7 
REMARK    4  A    between atoms: C_18  and  N_5 
ROOT
ATOM      1  C   UNL d   1     -39.748  14.766  19.338  0.00  0.00     0.117 A 
ATOM      2  C   UNL d   1     -40.337  15.265  17.890  0.00  0.00     0.070 A 
ATOM      3  C   UNL d   1     -39.767  15.558  19.159  0.00  0.00     0.015 A 
ATOM      4  C   UNL d   1     -40.026  14.214  18.790  0.00  0.00     0.015 A 
ATOM      5  C   UNL d   1     -40.062  15.811  18.433  0.00  0.00     0.018 A 
ATOM      6  C   UNL d   1     -40.320  14.470  18.066  0.00  0.00     0.018 A 
ENDROOT
BRANCH   1   7
ATOM      7  S   UNL d   1     -39.453  14.513  20.065  0.00  0.00     0.327 S 
ATOM      8  O   UNL d   1     -38.727  14.880  19.892  0.00  0.00    -0.186 OA
ATOM      9  O   UNL d   1     -40.169  14.156  20.227  0.00  0.00    -0.186 OA
BRANCH   7  10
ATOM     10  N   UNL d   1     -39.153  14.265  20.786  0.00  0.00    -0.317 NA
BRANCH  10  11
ATOM     11  C   UNL d   1     -38.849  14.010  21.509  0.00  0.00     0.145 A 
ATOM     12  C   UNL d   1     -39.011  14.437  22.206  0.00  0.00     0.033 A 
ATOM     13  C   UNL d   1     -38.707  14.181  22.930  0.00  0.00     0.003 A 
ATOM     14  C   UNL d   1     -38.244  13.509  22.972  0.00  0.00     0.000 A 
ATOM     15  C   UNL d   1     -38.075  13.074  22.281  0.00  0.00     0.003 A 
ATOM     16  C   UNL d   1     -37.940  13.255  23.698  0.00  0.00     0.000 C 
ATOM     17  C   UNL d   1     -38.381  13.330  21.551  0.00  0.00     0.033 A 
ENDBRANCH  10  11
ENDBRANCH   7  10
ENDBRANCH   1   7
BRANCH   2  18
ATOM     18  N   UNL d   1     -40.633  15.517  17.163  0.00  0.00    -0.242 N 
ATOM     19  C   UNL d   1     -41.426  15.686  16.989  0.00  0.00     0.267 A 
ATOM     20  C   UNL d   1     -41.475  15.921  16.197  0.00  0.00     0.066 A 
ATOM     21  O   UNL d   1     -42.058  15.631  17.515  0.00  0.00    -0.267 OA
ATOM     22  C   UNL d   1     -40.714  15.897  15.881  0.00  0.00     0.066 A 
ATOM     23  C   UNL d   1     -40.194  15.649  16.474  0.00  0.00     0.267 A 
ATOM     24  O   UNL d   1     -39.376  15.550  16.391  0.00  0.00    -0.267 OA
ENDBRANCH   2  18
TORSDOF 4
ENDMDL
MODEL 3
REMARK VINA RESULT:      -5.2      1.657      5.446
REMARK  4 active torsions:
REMARK  status: ('A' for Active; 'I' for Inactive)
REMARK    1  A    between atoms: N_5  and  S_1 
REMARK    2  A    between atoms: C_6  and  S_1 
REMARK    3  A    between atoms: N_2  and  C_7 
REMARK    4  A    between atoms: C_18  and  N_5 
ROOT
ATOM      1  C   UNL d   1     -46.721  12.610  23.086  0.00  0.00     0.117 A 
ATOM      2  C   UNL d   1     -45.422  11.609  23.148  0.00  0.00     0.070 A 
ATOM      3  C   UNL d   1     -46.125  12.684  22.539  0.00  0.00     0.015 A 
ATOM      4  C   UNL d   1     -46.671  12.030  23.672  0.00  0.00     0.015 A 
ATOM      5  C   UNL d   1     -45.472  12.183  22.568  0.00  0.00     0.018 A 
ATOM      6  C   UNL d   1     -46.018  11.532  23.698  0.00  0.00     0.018 A 
ENDROOT
BRANCH   1   7
ATOM      7  S   UNL d   1     -47.374  13.111  23.056  0.00  0.00     0.327 S 
ATOM      8  O   UNL d   1     -46.898  13.739  23.324  0.00  0.00    -0.186 OA
ATOM      9  O   UNL d   1     -47.833  12.490  22.793  0.00  0.00    -0.186 OA
BRANCH   7  10
ATOM     10  N   UNL d   1     -48.019  13.616  23.029  0.00  0.00    -0.317 NA
BRANCH  10  11
ATOM     11  C   UNL d   1     -48.664  14.129  23.002  0.00  0.00     0.145 A 
ATOM     12  C   UNL d   1     -48.606  14.858  22.602  0.00  0.00     0.033 A 
ATOM     13  C   UNL d   1     -49.251  15.371  22.576  0.00  0.00     0.003 A 
ATOM     14  C   UNL d   1     -49.954  15.173  22.941  0.00  0.00     0.000 A 
ATOM     15  C   UNL d   1     -50.026  14.446  23.345  0.00  0.00     0.003 A 
ATOM     16  C   UNL d   1     -50.601  15.689  22.913  0.00  0.00     0.000 C 
ATOM     17  C   UNL d   1     -49.376  13.929  23.372  0.00  0.00     0.033 A 
ENDBRANCH  10  11
ENDBRANCH   7  10
ENDBRANCH   1   7
BRANCH   2  18
ATOM     18  N   UNL d   1     -44.769  11.108  23.178  0.00  0.00    -0.242 N 
ATOM     19  C   UNL d   1     -44.769  10.318  23.431  0.00  0.00     0.267 A 
ATOM     20  C   UNL d   1     -43.998  10.024  23.371  0.00  0.00     0.066 A 
ATOM     21  O   UNL d   1     -45.426   9.896  23.698  0.00  0.00    -0.267 OA
ATOM     22  C   UNL d   1     -43.520  10.630  23.081  0.00  0.00     0.066 A 
ATOM     23  C   UNL d   1     -43.993  11.298  22.962  0.00  0.00     0.267 A 
ATOM     24  O   UNL d   1     -43.733  12.030  22.675  0.00  0.00    -0.267 OA
ENDBRANCH   2  18
TORSDOF 4
ENDMDL
MODEL 4
REMARK VINA RESULT:      -5.1      8.065      9.249
REMARK  4 active torsions:
REMARK  status: ('A' for Active; 'I' for Inactive)
REMARK    1  A    between atoms: N_5  and  S_1 
REMARK    2  A    between atoms: C_6  and  S_1 
REMARK    3  A    between atoms: N_2  and  C_7 
REMARK    4  A    between atoms: C_18  and  N_5 
ROOT
ATOM      1  C   UNL d   1     -39.536  14.785  20.312  0.00  0.00     0.117 A 
ATOM      2  C   UNL d   1     -38.854  14.413  21.758  0.00  0.00     0.070 A 
ATOM      3  C   UNL d   1     -40.001  14.718  20.975  0.00  0.00     0.015 A 
ATOM      4  C   UNL d   1     -38.721  14.666  20.369  0.00  0.00     0.015 A 
ATOM      5  C   UNL d   1     -39.662  14.531  21.702  0.00  0.00     0.018 A 
ATOM      6  C   UNL d   1     -38.385  14.480  21.095  0.00  0.00     0.018 A 
ENDROOT
BRANCH   1   7
ATOM      7  S   UNL d   1     -39.877  14.972  19.586  0.00  0.00     0.327 S 
ATOM      8  O   UNL d   1     -40.505  14.452  19.751  0.00  0.00    -0.186 OA
ATOM      9  O   UNL d   1     -39.257  15.480  19.431  0.00  0.00    -0.186 OA
BRANCH   7  10
ATOM     10  N   UNL d   1     -40.222  15.153  18.864  0.00  0.00    -0.317 NA
BRANCH  10  11
ATOM     11  C   UNL d   1     -40.563  15.335  18.136  0.00  0.00     0.145 A 
ATOM     12  C   UNL d   1     -40.184  15.113  17.428  0.00  0.00     0.033 A 
ATOM     13  C   UNL d   1     -40.525  15.296  16.699  0.00  0.00     0.003 A 
ATOM     14  C   UNL d   1     -41.237  15.695  16.662  0.00  0.00     0.000 A 
ATOM     15  C   UNL d   1     -41.626  15.922  17.363  0.00  0.00     0.003 A 
ATOM     16  C   UNL d   1     -41.577  15.876  15.930  0.00  0.00     0.000 C 
ATOM     17  C   UNL d   1     -41.283  15.739  18.098  0.00  0.00     0.033 A 
ENDBRANCH  10  11
ENDBRANCH   7  10
ENDBRANCH   1   7
BRANCH   2  18
ATOM     18  N   UNL d   1     -38.513  14.226  22.484  0.00  0.00    -0.242 N 
ATOM     19  C   UNL d   1     -38.238  14.768  23.049  0.00  0.00     0.267 A 
ATOM     20  C   UNL d   1     -37.940  14.342  23.694  0.00  0.00     0.066 A 
ATOM     21  O   UNL d   1     -38.257  15.589  22.981  0.00  0.00    -0.267 OA
ATOM     22  C   UNL d   1     -38.030  13.540  23.529  0.00  0.00     0.066 A 
ATOM     23  C   UNL d   1     -38.383  13.466  22.785  0.00  0.00     0.267 A 
ATOM     24  O   UNL d   1     -38.573  12.754  22.407  0.00  0.00    -0.267 OA
ENDBRANCH   2  18
TORSDOF 4
ENDMDL
MODEL 5
REMARK VINA RESULT:      -4.6      7.980      9.840
REMARK  4 active torsions:
REMARK  status: ('A' for Active; 'I' for Inactive)
REMARK    1  A    between atoms: N_5  and  S_1 
REMARK    2  A    between atoms: C_6  and  S_1 
REMARK    3  A    between atoms: N_2  and  C_7 
REMARK    4  A    between atoms: C_18  and  N_5 
ROOT
ATOM      1  C   UNL d   1     -39.079  14.793  18.381  0.00  0.00     0.117 A 
ATOM      2  C   UNL d   1     -39.451  15.256  19.911  0.00  0.00     0.070 A 
ATOM      3  C   UNL d   1     -38.952  15.561  18.615  0.00  0.00     0.015 A 
ATOM      4  C   UNL d   1     -39.394  14.248  18.915  0.00  0.00     0.015 A 
ATOM      5  C   UNL d   1     -39.138  15.796  19.382  0.00  0.00     0.018 A 
ATOM      6  C   UNL d   1     -39.578  14.485  19.679  0.00  0.00     0.018 A 
ENDROOT
BRANCH   1   7
ATOM      7  S   UNL d   1     -38.892  14.559  17.613  0.00  0.00     0.327 S 
ATOM      8  O   UNL d   1     -38.132  14.340  17.869  0.00  0.00    -0.186 OA
ATOM      9  O   UNL d   1     -39.641  14.777  17.370  0.00  0.00    -0.186 OA
BRANCH   7  10
ATOM     10  N   UNL d   1     -38.700  14.324  16.852  0.00  0.00    -0.317 NA
BRANCH  10  11
ATOM     11  C   UNL d   1     -38.509  14.094  16.083  0.00  0.00     0.145 A 
ATOM     12  C   UNL d   1     -38.643  14.611  15.444  0.00  0.00     0.033 A 
ATOM     13  C   UNL d   1     -38.453  14.380  14.675  0.00  0.00     0.003 A 
ATOM     14  C   UNL d   1     -38.130  13.643  14.531  0.00  0.00     0.000 A 
ATOM     15  C   UNL d   1     -37.991  13.116  15.162  0.00  0.00     0.003 A 
ATOM     16  C   UNL d   1     -37.940  13.413  13.759  0.00  0.00     0.000 C 
ATOM     17  C   UNL d   1     -38.183  13.348  15.937  0.00  0.00     0.033 A 
ENDBRANCH  10  11
ENDBRANCH   7  10
ENDBRANCH   1   7
BRANCH   2  18
ATOM     18  N   UNL d   1     -39.637  15.490  20.679  0.00  0.00    -0.242 N 
ATOM     19  C   UNL d   1     -39.114  15.517  21.323  0.00  0.00     0.267 A 
ATOM     20  C   UNL d   1     -39.532  15.783  21.986  0.00  0.00     0.066 A 
ATOM     21  O   UNL d   1     -38.316  15.313  21.306  0.00  0.00    -0.267 OA
ATOM     22  C   UNL d   1     -40.310  15.921  21.754  0.00  0.00     0.066 A 
ATOM     23  C   UNL d   1     -40.377  15.741  20.950  0.00  0.00     0.267 A 
ATOM     24  O   UNL d   1     -41.067  15.803  20.495  0.00  0.00    -0.267 OA
ENDBRANCH   2  18
TORSDOF 4
ENDMDL
MODEL 6
REMARK VINA RESULT:      -3.9      8.657     10.378
REMARK  4 active torsions:
REMARK  status: ('A' for Active; 'I' for Inactive)
REMARK    1  A    between atoms: N_5  and  S_1 
REMARK    2  A    between atoms: C_6  and  S_1 
REMARK    3  A    between atoms: N_2  and  C_7 
REMARK    4  A    between atoms: C_18  and  N_5 
ROOT
ATOM      1  C   UNL d   1     -38.629  14.270  18.743  0.00  0.00     0.117 A 
ATOM      2  C   UNL d   1     -38.591  14.483  17.116  0.00  0.00     0.070 A 
ATOM      3  C   UNL d   1     -39.047  13.770  18.258  0.00  0.00     0.015 A 
ATOM      4  C   UNL d   1     -38.185  14.885  18.414  0.00  0.00     0.015 A 
ATOM      5  C   UNL d   1     -39.030  13.874  17.442  0.00  0.00     0.018 A 
ATOM      6  C   UNL d   1     -38.171  14.986  17.599  0.00  0.00     0.018 A 
ENDROOT
BRANCH   1   7
ATOM      7  S   UNL d   1     -38.646  14.165  19.560  0.00  0.00     0.327 S 
ATOM      8  O   UNL d   1     -38.120  13.525  19.484  0.00  0.00    -0.186 OA
ATOM      9  O   UNL d   1     -39.162  14.794  19.625  0.00  0.00    -0.186 OA
BRANCH   7  10
ATOM     10  N   UNL d   1     -38.659  14.054  20.372  0.00  0.00    -0.317 NA
BRANCH  10  11
ATOM     11  C   UNL d   1     -38.676  13.938  21.188  0.00  0.00     0.145 A 
ATOM     12  C   UNL d   1     -39.400  13.803  21.578  0.00  0.00     0.033 A 
ATOM     13  C   UNL d   1     -39.417  13.687  22.395  0.00  0.00     0.003 A 
ATOM     14  C   UNL d   1     -38.727  13.704  22.831  0.00  0.00     0.000 A 
ATOM     15  C   UNL d   1     -37.996  13.838  22.453  0.00  0.00     0.003 A 
ATOM     16  C   UNL d   1     -38.746  13.587  23.650  0.00  0.00     0.000 C 
ATOM     17  C   UNL d   1     -37.977  13.955  21.630  0.00  0.00     0.033 A 
ENDBRANCH  10  11
ENDBRANCH   7  10
ENDBRANCH   1   7
BRANCH   2  18
ATOM     18  N   UNL d   1     -38.574  14.588  16.299  0.00  0.00    -0.242 N 
ATOM     19  C   UNL d   1     -38.274  14.051  15.742  0.00  0.00     0.267 A 
ATOM     20  C   UNL d   1     -38.366  14.378  14.988  0.00  0.00     0.066 A 
ATOM     21  O   UNL d   1     -37.940  13.316  15.911  0.00  0.00    -0.267 OA
ATOM     22  C   UNL d   1     -38.723  15.116  15.076  0.00  0.00     0.066 A 
ATOM     23  C   UNL d   1     -38.852  15.247  15.882  0.00  0.00     0.267 A 
ATOM     24  O   UNL d   1     -39.199  15.922  16.214  0.00  0.00    -0.267 OA
ENDBRANCH   2  18
TORSDOF 4
ENDMDL
