MODEL 1
REMARK VINA RESULT:      -3.1      0.000      0.000
REMARK  2 active torsions:
REMARK  status: ('A' for Active; 'I' for Inactive)
REMARK    1  A    between atoms: N_9  and  C_3 
REMARK    2  A    between atoms: C_13  and  C_5 
ROOT
ATOM      1  N   UNL d   1      30.992  17.724 -24.384  0.00  0.00    -0.196 N 
ATOM      2  C   UNL d   1      30.429  17.119 -24.216  0.00  0.00     0.167 A 
ATOM      3  C   UNL d   1      31.789  17.612 -24.175  0.00  0.00     0.153 A 
ATOM      4  N   UNL d   1      29.962  18.525 -24.958  0.00  0.00    -0.163 NA
ATOM      5  C   UNL d   1      29.651  17.227 -24.420  0.00  0.00     0.055 A 
ATOM      6  N   UNL d   1      30.682  16.426 -23.845  0.00  0.00    -0.227 NA
ATOM      7  C   UNL d   1      32.022  16.922 -23.810  0.00  0.00     0.052 A 
ATOM      8  C   UNL d   1      29.407  17.930 -24.793  0.00  0.00     0.104 A 
ATOM      9  C   UNL d   1      31.465  16.313 -23.638  0.00  0.00     0.086 A 
ATOM     10  C   UNL d   1      32.746  16.658 -23.545  0.00  0.00     0.005 A 
ATOM     11  C   UNL d   1      28.617  18.031 -24.996  0.00  0.00     0.023 C 
ATOM     12  C   UNL d   1      31.860  15.691 -23.273  0.00  0.00     0.019 A 
ATOM     13  C   UNL d   1      32.663  15.910 -23.215  0.00  0.00     0.002 A 
ENDROOT
BRANCH   5  14
ATOM     14  C   UNL d   1      29.100  16.636 -24.255  0.00  0.00     0.004 A 
ATOM     15  C   UNL d   1      28.707  16.624 -23.534  0.00  0.00     0.000 A 
ATOM     16  C   UNL d   1      28.149  16.026 -23.368  0.00  0.00     0.000 A 
ATOM     17  C   UNL d   1      27.996  15.453 -23.927  0.00  0.00     0.000 A 
ATOM     18  C   UNL d   1      28.391  15.461 -24.655  0.00  0.00     0.000 A 
ATOM     19  C   UNL d   1      28.939  16.051 -24.815  0.00  0.00     0.000 A 
ENDBRANCH   5  14
BRANCH   3  20
ATOM     20  N   UNL d   1      32.360  18.220 -24.343  0.00  0.00    -0.271 N 
ATOM     21  C   UNL d   1      32.683  18.764 -23.778  0.00  0.00     0.184 A 
ATOM     22  N   UNL d   1      33.228  19.264 -24.194  0.00  0.00    -0.222 NA
ATOM     23  C   UNL d   1      33.241  19.031 -25.014  0.00  0.00     0.120 A 
ATOM     24  C   UNL d   1      32.696  18.378 -25.097  0.00  0.00     0.104 A 
ENDBRANCH   3  20
TORSDOF 2
ENDMDL
