MODEL 1
REMARK VINA RESULT:      -3.5      0.000      0.000
REMARK  5 active torsions:
REMARK  status: ('A' for Active; 'I' for Inactive)
REMARK    1  A    between atoms: N_2  and  C_1 
REMARK    2  A    between atoms: N_3  and  C_1 
REMARK       I    between atoms: C_4  and  N_2 
REMARK    3  A    between atoms: C_7  and  N_3 
REMARK    4  A    between atoms: C_8  and  C_4 
REMARK    5  A    between atoms: C_9  and  C_8 
ROOT
ATOM      1  C   UNL d   1     -41.847-123.090 -50.114  0.00  0.00     0.209 C 
ATOM      2  S   UNL d   1     -41.123-123.491 -50.260  0.00  0.00    -0.038 SA
ENDROOT
BRANCH   1   3
ATOM      3  N   UNL d   1     -41.999-122.413 -50.495  0.00  0.00    -0.180 NA
ATOM      4  C   UNL d   1     -41.720-122.278 -51.241  0.00  0.00     0.281 C 
ATOM      5  O   UNL d   1     -41.883-121.562 -51.638  0.00  0.00    -0.265 OA
BRANCH   4   6
ATOM      6  C   UNL d   1     -41.270-122.844 -51.621  0.00  0.00     0.063 C 
BRANCH   6   7
ATOM      7  C   UNL d   1     -41.256-122.880 -52.445  0.00  0.00     0.005 A 
ATOM      8  C   UNL d   1     -41.360-123.605 -52.816  0.00  0.00     0.000 A 
ATOM      9  C   UNL d   1     -41.349-123.658 -53.650  0.00  0.00     0.000 A 
ATOM     10  C   UNL d   1     -41.230-122.970 -54.092  0.00  0.00     0.000 A 
ATOM     11  C   UNL d   1     -41.125-122.241 -53.727  0.00  0.00     0.000 A 
ATOM     12  C   UNL d   1     -41.136-122.181 -52.887  0.00  0.00     0.000 A 
ENDBRANCH   6   7
ENDBRANCH   4   6
ENDBRANCH   1   3
BRANCH   1  13
ATOM     13  N   UNL d   1     -42.374-123.404 -49.587  0.00  0.00    -0.281 N 
ATOM     14  C   UNL d   1     -43.127-123.810 -49.818  0.00  0.00     0.101 C 
BRANCH  13  15
ATOM     15  C   UNL d   1     -42.240-123.364 -48.798  0.00  0.00     0.066 A 
ATOM     16  C   UNL d   1     -41.653-123.812 -48.429  0.00  0.00     0.018 A 
ATOM     17  C   UNL d   1     -41.526-123.763 -47.619  0.00  0.00     0.002 A 
ATOM     18  C   UNL d   1     -41.998-123.249 -47.145  0.00  0.00     0.000 A 
ATOM     19  C   UNL d   1     -42.585-122.801 -47.514  0.00  0.00     0.002 A 
ATOM     20  C   UNL d   1     -42.703-122.862 -48.341  0.00  0.00     0.018 A 
ENDBRANCH  13  15
ENDBRANCH   1  13
TORSDOF 5
ENDMDL
MODEL 2
REMARK VINA RESULT:      -2.9      1.058      4.566
REMARK  5 active torsions:
REMARK  status: ('A' for Active; 'I' for Inactive)
REMARK    1  A    between atoms: N_2  and  C_1 
REMARK    2  A    between atoms: N_3  and  C_1 
REMARK       I    between atoms: C_4  and  N_2 
REMARK    3  A    between atoms: C_7  and  N_3 
REMARK    4  A    between atoms: C_8  and  C_4 
REMARK    5  A    between atoms: C_9  and  C_8 
ROOT
ATOM      1  C   UNL d   1     -41.676-122.439 -51.806  0.00  0.00     0.209 C 
ATOM      2  S   UNL d   1     -41.123-121.874 -51.521  0.00  0.00    -0.038 SA
ENDROOT
BRANCH   1   3
ATOM      3  N   UNL d   1     -42.394-122.479 -51.475  0.00  0.00    -0.180 NA
ATOM      4  C   UNL d   1     -42.485-122.615 -50.684  0.00  0.00     0.281 C 
ATOM      5  O   UNL d   1     -43.245-122.657 -50.340  0.00  0.00    -0.265 OA
BRANCH   4   6
ATOM      6  C   UNL d   1     -41.832-122.716 -50.205  0.00  0.00     0.063 C 
BRANCH   6   7
ATOM      7  C   UNL d   1     -41.924-122.947 -49.418  0.00  0.00     0.005 A 
ATOM      8  C   UNL d   1     -41.357-123.430 -49.074  0.00  0.00     0.000 A 
ATOM      9  C   UNL d   1     -41.436-123.674 -48.278  0.00  0.00     0.000 A 
ATOM     10  C   UNL d   1     -42.093-123.419 -47.846  0.00  0.00     0.000 A 
ATOM     11  C   UNL d   1     -42.665-122.934 -48.185  0.00  0.00     0.000 A 
ATOM     12  C   UNL d   1     -42.591-122.686 -48.986  0.00  0.00     0.000 A 
ENDBRANCH   6   7
ENDBRANCH   4   6
ENDBRANCH   1   3
BRANCH   1  13
ATOM     13  N   UNL d   1     -41.464-122.931 -52.411  0.00  0.00    -0.281 N 
ATOM     14  C   UNL d   1     -41.122-123.741 -52.299  0.00  0.00     0.101 C 
BRANCH  13  15
ATOM     15  C   UNL d   1     -41.554-122.706 -53.175  0.00  0.00     0.066 A 
ATOM     16  C   UNL d   1     -41.859-121.968 -53.382  0.00  0.00     0.018 A 
ATOM     17  C   UNL d   1     -41.947-121.748 -54.169  0.00  0.00     0.002 A 
ATOM     18  C   UNL d   1     -41.724-122.280 -54.786  0.00  0.00     0.000 A 
ATOM     19  C   UNL d   1     -41.418-123.018 -54.579  0.00  0.00     0.002 A 
ATOM     20  C   UNL d   1     -41.335-123.227 -53.772  0.00  0.00     0.018 A 
ENDBRANCH  13  15
ENDBRANCH   1  13
TORSDOF 5
ENDMDL
