MODEL 1
REMARK VINA RESULT:      -7.8      0.000      0.000
REMARK  5 active torsions:
REMARK  status: ('A' for Active; 'I' for Inactive)
REMARK    1  A    between atoms: C_10  and  N_6 
REMARK    2  A    between atoms: S_13  and  C_9 
REMARK    3  A    between atoms: C_14  and  C_10 
REMARK    4  A    between atoms: C_22  and  S_13 
REMARK    5  A    between atoms: C_24  and  C_22 
ROOT
ATOM      1  C   UNL d   1     -46.428  13.331  22.704  0.00  0.00     0.174 A 
ATOM      2  C   UNL d   1     -46.915  12.791  23.092  0.00  0.00     0.158 A 
ATOM      3  N   UNL d   1     -46.860  14.007  22.564  0.00  0.00    -0.203 NA
ATOM      4  N   UNL d   1     -45.652  13.124  22.531  0.00  0.00    -0.240 N 
ATOM      5  N   UNL d   1     -45.825  11.837  23.130  0.00  0.00    -0.223 N 
ATOM      6  N   UNL d   1     -47.730  13.129  23.222  0.00  0.00    -0.279 N 
ATOM      7  C   UNL d   1     -45.339  12.376  22.741  0.00  0.00     0.343 A 
ATOM      8  C   UNL d   1     -46.624  12.044  23.309  0.00  0.00     0.287 A 
ATOM      9  C   UNL d   1     -47.622  13.870  22.876  0.00  0.00     0.181 A 
ATOM     10  O   UNL d   1     -44.553  12.161  22.569  0.00  0.00    -0.245 OA
ATOM     11  O   UNL d   1     -47.111  11.504  23.698  0.00  0.00    -0.265 OA
ATOM     12  C   UNL d   1     -45.165  13.664  22.143  0.00  0.00     0.105 C 
ATOM     13  C   UNL d   1     -45.535  11.090  23.346  0.00  0.00     0.107 C 
ENDROOT
BRANCH   6  14
ATOM     14  C   UNL d   1     -48.390  12.795  23.582  0.00  0.00     0.082 C 
BRANCH  14  15
ATOM     15  C   UNL d   1     -48.990  12.479  23.114  0.00  0.00     0.018 A 
ATOM     16  C   UNL d   1     -49.735  12.346  23.434  0.00  0.00     0.002 A 
ATOM     17  C   UNL d   1     -50.339  12.030  22.973  0.00  0.00     0.000 A 
ATOM     18  C   UNL d   1     -51.064  11.920  23.354  0.00  0.00     0.000 C 
ATOM     19  C   UNL d   1     -50.191  11.844  22.175  0.00  0.00     0.000 A 
ATOM     20  C   UNL d   1     -49.441  11.979  21.855  0.00  0.00     0.000 A 
ATOM     21  C   UNL d   1     -48.843  12.295  22.321  0.00  0.00     0.002 A 
ENDBRANCH  14  15
ENDBRANCH   6  14
BRANCH   9  22
ATOM     22  S   UNL d   1     -48.242  14.413  22.854  0.00  0.00    -0.046 SA
BRANCH  22  23
ATOM     23  C   UNL d   1     -48.518  15.182  22.946  0.00  0.00     0.084 C 
BRANCH  23  24
ATOM     24  C   UNL d   1     -49.037  15.500  22.393  0.00  0.00     0.241 C 
ATOM     25  O   UNL d   1     -49.699  15.918  22.646  0.00  0.00    -0.283 OA
ENDBRANCH  23  24
ENDBRANCH  22  23
ENDBRANCH   9  22
TORSDOF 5
ENDMDL
MODEL 2
REMARK VINA RESULT:      -6.5      8.195      9.989
REMARK  5 active torsions:
REMARK  status: ('A' for Active; 'I' for Inactive)
REMARK    1  A    between atoms: C_10  and  N_6 
REMARK    2  A    between atoms: S_13  and  C_9 
REMARK    3  A    between atoms: C_14  and  C_10 
REMARK    4  A    between atoms: C_22  and  S_13 
REMARK    5  A    between atoms: C_24  and  C_22 
ROOT
ATOM      1  C   UNL d   1     -40.251  15.660  19.603  0.00  0.00     0.174 A 
ATOM      2  C   UNL d   1     -39.501  15.560  19.276  0.00  0.00     0.158 A 
ATOM      3  N   UNL d   1     -40.798  15.616  19.001  0.00  0.00    -0.203 NA
ATOM      4  N   UNL d   1     -40.326  15.779  20.413  0.00  0.00    -0.240 N 
ATOM      5  N   UNL d   1     -38.909  15.701  20.591  0.00  0.00    -0.223 N 
ATOM      6  N   UNL d   1     -39.549  15.439  18.394  0.00  0.00    -0.279 N 
ATOM      7  C   UNL d   1     -39.659  15.802  20.918  0.00  0.00     0.343 A 
ATOM      8  C   UNL d   1     -38.827  15.578  19.759  0.00  0.00     0.287 A 
ATOM      9  C   UNL d   1     -40.367  15.486  18.299  0.00  0.00     0.181 A 
ATOM     10  O   UNL d   1     -39.730  15.922  21.739  0.00  0.00    -0.245 OA
ATOM     11  O   UNL d   1     -38.076  15.478  19.432  0.00  0.00    -0.265 OA
ATOM     12  C   UNL d   1     -41.076  15.880  20.739  0.00  0.00     0.105 C 
ATOM     13  C   UNL d   1     -38.235  15.720  21.075  0.00  0.00     0.107 C 
ENDROOT
BRANCH   6  14
ATOM     14  C   UNL d   1     -38.950  15.318  17.843  0.00  0.00     0.082 C 
BRANCH  14  15
ATOM     15  C   UNL d   1     -38.794  14.554  17.576  0.00  0.00     0.018 A 
ATOM     16  C   UNL d   1     -38.454  14.438  16.837  0.00  0.00     0.002 A 
ATOM     17  C   UNL d   1     -38.295  13.678  16.564  0.00  0.00     0.000 A 
ATOM     18  C   UNL d   1     -37.953  13.628  15.812  0.00  0.00     0.000 C 
ATOM     19  C   UNL d   1     -38.481  13.023  17.043  0.00  0.00     0.000 A 
ATOM     20  C   UNL d   1     -38.822  13.142  17.786  0.00  0.00     0.000 A 
ATOM     21  C   UNL d   1     -38.978  13.903  18.053  0.00  0.00     0.002 A 
ENDBRANCH  14  15
ENDBRANCH   6  14
BRANCH   9  22
ATOM     22  S   UNL d   1     -40.704  15.405  17.550  0.00  0.00    -0.046 SA
BRANCH  22  23
ATOM     23  C   UNL d   1     -41.369  15.317  17.075  0.00  0.00     0.084 C 
BRANCH  23  24
ATOM     24  C   UNL d   1     -41.585  15.919  16.558  0.00  0.00     0.241 C 
ATOM     25  O   UNL d   1     -42.088  15.757  15.928  0.00  0.00    -0.283 OA
ENDBRANCH  23  24
ENDBRANCH  22  23
ENDBRANCH   9  22
TORSDOF 5
ENDMDL
MODEL 3
REMARK VINA RESULT:      -5.3      8.275      9.817
REMARK  5 active torsions:
REMARK  status: ('A' for Active; 'I' for Inactive)
REMARK    1  A    between atoms: C_10  and  N_6 
REMARK    2  A    between atoms: S_13  and  C_9 
REMARK    3  A    between atoms: C_14  and  C_10 
REMARK    4  A    between atoms: C_22  and  S_13 
REMARK    5  A    between atoms: C_24  and  C_22 
ROOT
ATOM      1  C   UNL d   1     -38.957  14.414  20.260  0.00  0.00     0.174 A 
ATOM      2  C   UNL d   1     -39.639  14.568  19.823  0.00  0.00     0.158 A 
ATOM      3  N   UNL d   1     -38.472  13.936  19.813  0.00  0.00    -0.203 NA
ATOM      4  N   UNL d   1     -38.877  14.738  21.011  0.00  0.00    -0.240 N 
ATOM      5  N   UNL d   1     -40.154  15.375  20.911  0.00  0.00    -0.223 N 
ATOM      6  N   UNL d   1     -39.609  14.165  19.028  0.00  0.00    -0.279 N 
ATOM      7  C   UNL d   1     -39.472  15.221  21.348  0.00  0.00     0.343 A 
ATOM      8  C   UNL d   1     -40.241  15.045  20.138  0.00  0.00     0.287 A 
ATOM      9  C   UNL d   1     -38.872  13.800  19.093  0.00  0.00     0.181 A 
ATOM     10  O   UNL d   1     -39.396  15.551  22.108  0.00  0.00    -0.245 OA
ATOM     11  O   UNL d   1     -40.923  15.200  19.701  0.00  0.00    -0.265 OA
ATOM     12  C   UNL d   1     -38.196  14.584  21.448  0.00  0.00     0.105 C 
ATOM     13  C   UNL d   1     -40.755  15.852  21.226  0.00  0.00     0.107 C 
ENDROOT
BRANCH   6  14
ATOM     14  C   UNL d   1     -40.158  14.162  18.416  0.00  0.00     0.082 C 
BRANCH  14  15
ATOM     15  C   UNL d   1     -40.122  14.747  17.836  0.00  0.00     0.018 A 
ATOM     16  C   UNL d   1     -40.802  14.967  17.431  0.00  0.00     0.002 A 
ATOM     17  C   UNL d   1     -40.774  15.551  16.851  0.00  0.00     0.000 A 
ATOM     18  C   UNL d   1     -41.492  15.727  16.481  0.00  0.00     0.000 C 
ATOM     19  C   UNL d   1     -40.049  15.921  16.677  0.00  0.00     0.000 A 
ATOM     20  C   UNL d   1     -39.366  15.698  17.086  0.00  0.00     0.000 A 
ATOM     21  C   UNL d   1     -39.401  15.114  17.663  0.00  0.00     0.002 A 
ENDBRANCH  14  15
ENDBRANCH   6  14
BRANCH   9  22
ATOM     22  S   UNL d   1     -38.579  13.341  18.474  0.00  0.00    -0.046 SA
BRANCH  22  23
ATOM     23  C   UNL d   1     -38.044  12.785  18.193  0.00  0.00     0.084 C 
BRANCH  23  24
ATOM     24  C   UNL d   1     -38.229  12.338  17.527  0.00  0.00     0.241 C 
ATOM     25  O   UNL d   1     -38.047  11.535  17.509  0.00  0.00    -0.283 OA
ENDBRANCH  23  24
ENDBRANCH  22  23
ENDBRANCH   9  22
TORSDOF 5
ENDMDL
