MODEL 1
REMARK VINA RESULT:      13.7      0.000      0.000
REMARK  2 active torsions:
REMARK  status: ('A' for Active; 'I' for Inactive)
REMARK    1  A    between atoms: C_4  and  C_3 
REMARK    2  A    between atoms: S_11  and  C_6 
ROOT
ATOM      1  N   UNL d   1     -57.268 -98.757 -44.017  0.00  0.00    -0.146 NA
ATOM      2  N   UNL d   1     -58.094 -98.756 -43.988  0.00  0.00    -0.142 NA
ATOM      3  C   UNL d   1     -56.884 -98.757 -44.745  0.00  0.00     0.126 A 
ATOM      4  C   UNL d   1     -58.532 -98.756 -44.687  0.00  0.00     0.128 A 
ATOM      5  C   UNL d   1     -57.322 -98.757 -45.444  0.00  0.00     0.025 A 
ATOM      6  C   UNL d   1     -58.145 -98.757 -45.415  0.00  0.00     0.029 A 
ENDROOT
BRANCH   3   7
ATOM      7  C   UNL d   1     -56.066 -98.758 -44.782  0.00  0.00     0.119 A 
ATOM      8  O   UNL d   1     -55.615 -98.755 -45.471  0.00  0.00    -0.304 OA
ATOM      9  C   UNL d   1     -54.813 -98.757 -45.265  0.00  0.00     0.123 A 
ATOM     10  C   UNL d   1     -54.768 -98.760 -44.435  0.00  0.00     0.029 A 
ATOM     11  C   UNL d   1     -55.542 -98.761 -44.141  0.00  0.00     0.028 A 
ENDBRANCH   3   7
BRANCH   4  12
ATOM     12  S   UNL d   1     -59.358 -98.756 -44.658  0.00  0.00    -0.092 SA
ATOM     13  C   UNL d   1     -59.746 -98.765 -43.930  0.00  0.00     0.076 C 
ENDBRANCH   4  12
TORSDOF 2
ENDMDL
