MODEL 1
REMARK VINA RESULT:      61.4      0.000      0.000
REMARK  7 active torsions:
REMARK  status: ('A' for Active; 'I' for Inactive)
REMARK    1  A    between atoms: C_3  and  C_1 
REMARK    2  A    between atoms: C_5  and  C_3 
REMARK    3  A    between atoms: C_14  and  C_3 
REMARK    4  A    between atoms: N_6  and  C_14 
REMARK    5  A    between atoms: O_17  and  C_9 
REMARK    6  A    between atoms: O_18  and  C_10 
REMARK    7  A    between atoms: O_19  and  C_11 
ROOT
ATOM      1  C   UNL d   1     -56.458 -99.298 -44.498  0.00  0.00     0.025 C 
ENDROOT
BRANCH   1   2
ATOM      2  C   UNL d   1     -57.218 -99.150 -44.213  0.00  0.00     0.021 A 
ATOM      3  C   UNL d   1     -57.432 -99.091 -43.402  0.00  0.00     0.082 A 
ATOM      4  N   UNL d   1     -58.228 -98.941 -43.361  0.00  0.00    -0.246 NA
ATOM      5  C   UNL d   1     -56.916 -99.173 -42.759  0.00  0.00     0.021 C 
ATOM      6  C   UNL d   1     -58.521 -98.904 -44.131  0.00  0.00     0.081 A 
ATOM      7  C   UNL d   1     -57.887 -99.034 -44.647  0.00  0.00     0.019 A 
ATOM      8  C   UNL d   1     -59.263 -98.772 -44.431  0.00  0.00     0.019 A 
ATOM      9  C   UNL d   1     -58.014 -99.029 -45.463  0.00  0.00     0.002 A 
ATOM     10  C   UNL d   1     -58.764 -98.896 -45.761  0.00  0.00     0.000 A 
ATOM     11  C   UNL d   1     -59.398 -98.765 -45.245  0.00  0.00     0.002 A 
ENDBRANCH   1   2
BRANCH   1  12
ATOM     12  C   UNL d   1     -56.076-100.002 -44.283  0.00  0.00     0.006 A 
ATOM     13  C   UNL d   1     -55.585-100.016 -43.630  0.00  0.00     0.026 A 
ATOM     14  C   UNL d   1     -55.202-100.709 -43.410  0.00  0.00     0.118 A 
ATOM     15  C   UNL d   1     -55.319-101.388 -43.853  0.00  0.00     0.138 A 
ATOM     16  C   UNL d   1     -55.813-101.383 -44.514  0.00  0.00     0.118 A 
ATOM     17  C   UNL d   1     -56.193-100.680 -44.727  0.00  0.00     0.026 A 
BRANCH  14  18
ATOM     18  O   UNL d   1     -54.712-100.723 -42.757  0.00  0.00    -0.326 OA
ATOM     19  C   UNL d   1     -54.871-101.225 -42.130  0.00  0.00     0.181 C 
ENDBRANCH  14  18
BRANCH  15  20
ATOM     20  O   UNL d   1     -54.939-102.079 -43.636  0.00  0.00    -0.324 OA
ATOM     21  C   UNL d   1     -54.953-102.315 -42.843  0.00  0.00     0.182 C 
ENDBRANCH  15  20
BRANCH  16  22
ATOM     22  O   UNL d   1     -55.932-102.057 -44.959  0.00  0.00    -0.326 OA
ATOM     23  C   UNL d   1     -55.379-102.290 -45.520  0.00  0.00     0.181 C 
ENDBRANCH  16  22
ENDBRANCH   1  12
BRANCH   1  24
ATOM     24  C   UNL d   1     -56.076 -98.755 -44.992  0.00  0.00     0.148 C 
BRANCH  24  25
ATOM     25  N   UNL d   1     -55.373 -99.006 -45.352  0.00  0.00    -0.112 N 
ATOM     26  O   UNL d   1     -55.340 -99.060 -46.184  0.00  0.00    -0.532 OA
ATOM     27  O   UNL d   1     -54.720 -99.196 -44.893  0.00  0.00    -0.532 OA
ENDBRANCH  24  25
ENDBRANCH   1  24
TORSDOF 7
ENDMDL
