MODEL 1
REMARK VINA RESULT:      44.5      0.000      0.000
REMARK  6 active torsions:
REMARK  status: ('A' for Active; 'I' for Inactive)
REMARK    1  A    between atoms: C_13  and  S_1 
REMARK    2  A    between atoms: C_2  and  C_6 
REMARK       I    between atoms: N_3  and  C_2 
REMARK    3  A    between atoms: C_4  and  N_3 
REMARK    4  A    between atoms: N_5  and  C_6 
REMARK       I    between atoms: C_7  and  N_5 
REMARK    5  A    between atoms: C_6  and  C_9 
REMARK    6  A    between atoms: C_9  and  C_13 
ROOT
ATOM      1  C   UNL d   1     -56.105 -99.277 -44.091  0.00  0.00     0.297 C 
ATOM      2  N   UNL d   1     -56.781 -99.065 -43.673  0.00  0.00    -0.207 NA
ATOM      3  O   UNL d   1     -56.145 -99.389 -44.912  0.00  0.00    -0.264 OA
ENDROOT
BRANCH   1   4
ATOM      4  C   UNL d   1     -55.383 -99.380 -43.692  0.00  0.00     0.143 C 
BRANCH   4   5
ATOM      5  N   UNL d   1     -55.200 -98.901 -43.046  0.00  0.00    -0.203 NA
ATOM      6  C   UNL d   1     -54.947 -99.241 -42.340  0.00  0.00     0.280 C 
ATOM      7  O   UNL d   1     -54.877-100.058 -42.280  0.00  0.00    -0.265 OA
ATOM      8  C   UNL d   1     -54.764 -98.762 -41.693  0.00  0.00     0.068 C 
ENDBRANCH   4   5
BRANCH   4   9
ATOM      9  C   UNL d   1     -54.852 -99.958 -43.941  0.00  0.00     0.036 C 
BRANCH   9  10
ATOM     10  C   UNL d   1     -54.817-100.167 -44.736  0.00  0.00     0.096 C 
BRANCH  10  11
ATOM     11  S   UNL d   1     -54.831-100.962 -44.952  0.00  0.00     0.192 S 
ATOM     12  O   UNL d   1     -54.835-101.681 -45.373  0.00  0.00    -0.222 OA
ATOM     13  O   UNL d   1     -54.792-100.551 -45.673  0.00  0.00    -0.222 OA
ATOM     14  C   UNL d   1     -54.869-101.543 -44.371  0.00  0.00     0.145 C 
ENDBRANCH  10  11
ENDBRANCH   9  10
ENDBRANCH   4   9
ENDBRANCH   1   4
BRANCH   2  15
ATOM     15  C   UNL d   1     -57.499 -98.963 -44.072  0.00  0.00     0.085 A 
ATOM     16  C   UNL d   1     -58.211 -98.925 -43.648  0.00  0.00     0.018 A 
ATOM     17  C   UNL d   1     -58.928 -98.824 -44.038  0.00  0.00     0.002 A 
ATOM     18  C   UNL d   1     -58.191 -98.991 -42.826  0.00  0.00     0.002 A 
ATOM     19  C   UNL d   1     -59.634 -98.787 -43.623  0.00  0.00     0.000 A 
ATOM     20  C   UNL d   1     -58.937 -98.759 -44.874  0.00  0.00     0.000 A 
ATOM     21  C   UNL d   1     -59.621 -98.853 -42.793  0.00  0.00     0.000 A 
ATOM     22  C   UNL d   1     -58.900 -98.954 -42.403  0.00  0.00     0.000 A 
ATOM     23  C   UNL d   1     -58.227 -98.797 -45.285  0.00  0.00     0.002 A 
ATOM     24  C   UNL d   1     -57.515 -98.898 -44.895  0.00  0.00     0.019 A 
ENDBRANCH   2  15
TORSDOF 6
ENDMDL
