MODEL 1
REMARK VINA RESULT:       0.1      0.000      0.000
REMARK  10 active torsions:
REMARK  status: ('A' for Active; 'I' for Inactive)
REMARK    1  A    between atoms: C_19  and  N_1 
REMARK    2  A    between atoms: C_7  and  C_2 
REMARK    3  A    between atoms: S_3  and  N_8 
REMARK    4  A    between atoms: C_13  and  S_3 
REMARK    5  A    between atoms: S_9  and  C_5 
REMARK    6  A    between atoms: N_8  and  C_22 
REMARK    7  A    between atoms: C_17  and  S_9 
REMARK    8  A    between atoms: C_14  and  C_17 
REMARK    9  A    between atoms: C_15  and  C_14 
REMARK   10  A    between atoms: C_23  and  C_19 
ROOT
ATOM      1  C   UNL d   1      57.210   0.169  30.850  0.00  0.00     0.202 C 
ATOM      2  O   UNL d   1      56.448   0.247  30.543  0.00  0.00    -0.286 OA
ENDROOT
BRANCH   1   3
ATOM      3  C   UNL d   1      57.364   0.377  31.632  0.00  0.00     0.080 C 
BRANCH   3   4
ATOM      4  S   UNL d   1      56.738   0.577  32.139  0.00  0.00    -0.044 SA
BRANCH   4   5
ATOM      5  C   UNL d   1      56.853   0.581  32.955  0.00  0.00     0.201 A 
ATOM      6  N   UNL d   1      56.263   0.580  33.525  0.00  0.00    -0.267 N 
ATOM      7  C   UNL d   1      56.622   0.586  34.270  0.00  0.00     0.177 A 
ATOM      8  N   UNL d   1      57.435   0.591  34.152  0.00  0.00    -0.127 NA
ATOM      9  N   UNL d   1      57.577   0.588  33.335  0.00  0.00    -0.121 NA
BRANCH   6  10
ATOM     10  C   UNL d   1      55.457   0.573  33.349  0.00  0.00     0.084 C 
BRANCH  10  11
ATOM     11  C   UNL d   1      55.148  -0.012  32.854  0.00  0.00     0.019 C 
ATOM     12  C   UNL d   1      54.419  -0.366  33.037  0.00  0.00     0.002 C 
ENDBRANCH  10  11
ENDBRANCH   6  10
BRANCH   7  13
ATOM     13  C   UNL d   1      56.263   0.587  35.009  0.00  0.00     0.066 A 
ATOM     14  S   UNL d   1      56.643   0.504  35.735  0.00  0.00    -0.083 SA
ATOM     15  C   UNL d   1      56.064   0.538  36.326  0.00  0.00     0.035 A 
ATOM     16  C   UNL d   1      55.333   0.641  35.957  0.00  0.00     0.008 A 
ATOM     17  C   UNL d   1      55.458   0.671  35.143  0.00  0.00     0.010 A 
ENDBRANCH   7  13
ENDBRANCH   4   5
ENDBRANCH   3   4
ENDBRANCH   1   3
BRANCH   1  18
ATOM     18  C   UNL d   1      57.824  -0.119  30.372  0.00  0.00     0.040 A 
ATOM     19  C   UNL d   1      58.009  -0.925  30.378  0.00  0.00     0.005 A 
ATOM     20  C   UNL d   1      58.621  -1.205  29.901  0.00  0.00     0.020 A 
ATOM     21  C   UNL d   1      59.044  -0.693  29.423  0.00  0.00     0.094 A 
ATOM     22  C   UNL d   1      58.858   0.110  29.418  0.00  0.00     0.020 A 
ATOM     23  C   UNL d   1      58.250   0.397  29.891  0.00  0.00     0.005 A 
BRANCH  21  24
ATOM     24  N   UNL d   1      59.658  -0.981  28.945  0.00  0.00    -0.158 NA
BRANCH  24  25
ATOM     25  S   UNL d   1      59.929  -1.750  29.040  0.00  0.00     0.285 S 
ATOM     26  O   UNL d   1      60.523  -1.481  29.557  0.00  0.00    -0.198 OA
ATOM     27  O   UNL d   1      59.338  -2.022  28.526  0.00  0.00    -0.198 OA
BRANCH  25  28
ATOM     28  C   UNL d   1      60.199  -2.532  29.132  0.00  0.00     0.105 A 
ATOM     29  C   UNL d   1      60.798  -2.710  29.671  0.00  0.00     0.013 A 
ATOM     30  C   UNL d   1      61.061  -3.480  29.759  0.00  0.00     0.001 A 
ATOM     31  C   UNL d   1      60.725  -4.093  29.303  0.00  0.00     0.000 A 
ATOM     32  C   UNL d   1      60.127  -3.916  28.764  0.00  0.00     0.001 A 
ATOM     33  C   UNL d   1      59.863  -3.142  28.677  0.00  0.00     0.013 A 
ENDBRANCH  25  28
ENDBRANCH  24  25
ENDBRANCH  21  24
ENDBRANCH   1  18
TORSDOF 10
ENDMDL
