MODEL 1
REMARK VINA RESULT:      24.1      0.000      0.000
REMARK  4 active torsions:
REMARK  status: ('A' for Active; 'I' for Inactive)
REMARK    1  A    between atoms: N_5  and  C_1 
REMARK    2  A    between atoms: C_9  and  C_4 
REMARK    3  A    between atoms: C_8  and  N_5 
REMARK    4  A    between atoms: O_12  and  C_9 
ROOT
ATOM      1  N   UNL d   1      45.958 -16.765  43.435  0.00  0.00    -0.222 NA
ENDROOT
BRANCH   1   2
ATOM      2  C   UNL d   1      45.541 -16.161  43.832  0.00  0.00     0.186 A 
ATOM      3  O   UNL d   1      44.800 -16.224  44.178  0.00  0.00    -0.255 OA
ATOM      4  C   UNL d   1      44.579 -15.523  44.510  0.00  0.00     0.301 A 
ATOM      5  O   UNL d   1      43.856 -15.371  44.916  0.00  0.00    -0.259 OA
ATOM      6  C   UNL d   1      45.191 -14.986  44.378  0.00  0.00     0.067 A 
ATOM      7  C   UNL d   1      45.786 -15.381  43.958  0.00  0.00     0.046 A 
ATOM      8  C   UNL d   1      45.291 -14.193  44.579  0.00  0.00     0.005 A 
ATOM      9  C   UNL d   1      46.476 -14.979  43.744  0.00  0.00     0.004 A 
ATOM     10  C   UNL d   1      46.572 -14.186  43.948  0.00  0.00     0.000 A 
ATOM     11  C   UNL d   1      45.977 -13.791  44.368  0.00  0.00     0.000 A 
ENDBRANCH   1   2
BRANCH   1  12
ATOM     12  C   UNL d   1      46.071 -17.538  43.775  0.00  0.00     0.089 A 
ATOM     13  C   UNL d   1      46.115 -18.176  43.327  0.00  0.00     0.081 A 
ATOM     14  C   UNL d   1      46.225 -18.917  43.667  0.00  0.00     0.007 A 
ATOM     15  C   UNL d   1      46.289 -18.975  44.498  0.00  0.00     0.000 A 
ATOM     16  C   UNL d   1      46.240 -18.294  44.955  0.00  0.00     0.002 A 
ATOM     17  C   UNL d   1      46.131 -17.566  44.603  0.00  0.00     0.019 A 
BRANCH  13  18
ATOM     18  C   UNL d   1      46.047 -18.072  42.510  0.00  0.00     0.297 C 
ATOM     19  O   UNL d   1      45.400 -17.680  42.198  0.00  0.00    -0.259 OA
BRANCH  18  20
ATOM     20  O   UNL d   1      46.638 -18.368  42.015  0.00  0.00    -0.296 OA
ATOM     21  C   UNL d   1      46.491 -18.404  41.194  0.00  0.00     0.185 C 
ENDBRANCH  18  20
ENDBRANCH  13  18
ENDBRANCH   1  12
TORSDOF 4
ENDMDL
MODEL 2
REMARK VINA RESULT:      25.5      1.264      2.112
REMARK  4 active torsions:
REMARK  status: ('A' for Active; 'I' for Inactive)
REMARK    1  A    between atoms: N_5  and  C_1 
REMARK    2  A    between atoms: C_9  and  C_4 
REMARK    3  A    between atoms: C_8  and  N_5 
REMARK    4  A    between atoms: O_12  and  C_9 
ROOT
ATOM      1  N   UNL d   1      45.804 -17.135  44.271  0.00  0.00    -0.222 NA
ENDROOT
BRANCH   1   2
ATOM      2  C   UNL d   1      45.779 -16.303  44.340  0.00  0.00     0.186 A 
ATOM      3  O   UNL d   1      46.397 -15.783  44.206  0.00  0.00    -0.255 OA
ATOM      4  C   UNL d   1      46.162 -15.020  44.328  0.00  0.00     0.301 A 
ATOM      5  O   UNL d   1      46.641 -14.332  44.246  0.00  0.00    -0.259 OA
ATOM      6  C   UNL d   1      45.367 -15.043  44.548  0.00  0.00     0.067 A 
ATOM      7  C   UNL d   1      45.130 -15.837  44.555  0.00  0.00     0.046 A 
ATOM      8  C   UNL d   1      44.825 -14.453  44.743  0.00  0.00     0.005 A 
ATOM      9  C   UNL d   1      44.353 -16.033  44.757  0.00  0.00     0.004 A 
ATOM     10  C   UNL d   1      43.814 -15.441  44.951  0.00  0.00     0.000 A 
ATOM     11  C   UNL d   1      44.051 -14.646  44.944  0.00  0.00     0.000 A 
ENDBRANCH   1   2
BRANCH   1  12
ATOM     12  C   UNL d   1      46.043 -17.524  43.552  0.00  0.00     0.089 A 
ATOM     13  C   UNL d   1      46.245 -18.278  43.547  0.00  0.00     0.081 A 
ATOM     14  C   UNL d   1      46.474 -18.643  42.846  0.00  0.00     0.007 A 
ATOM     15  C   UNL d   1      46.487 -18.194  42.142  0.00  0.00     0.000 A 
ATOM     16  C   UNL d   1      46.271 -17.401  42.165  0.00  0.00     0.002 A 
ATOM     17  C   UNL d   1      46.046 -17.053  42.867  0.00  0.00     0.019 A 
BRANCH  13  18
ATOM     18  C   UNL d   1      46.218 -18.684  44.265  0.00  0.00     0.297 C 
ATOM     19  O   UNL d   1      46.462 -18.316  44.955  0.00  0.00    -0.259 OA
BRANCH  18  20
ATOM     20  O   UNL d   1      45.943 -19.462  44.280  0.00  0.00    -0.296 OA
ATOM     21  C   UNL d   1      46.194 -19.964  44.897  0.00  0.00     0.185 C 
ENDBRANCH  18  20
ENDBRANCH  13  18
ENDBRANCH   1  12
TORSDOF 4
ENDMDL
