MODEL 1
REMARK VINA RESULT:      20.9      0.000      0.000
REMARK  4 active torsions:
REMARK  status: ('A' for Active; 'I' for Inactive)
REMARK    1  A    between atoms: C_9  and  C_3 
REMARK    2  A    between atoms: N_10  and  C_9 
REMARK    3  A    between atoms: C_19  and  C_9 
REMARK    4  A    between atoms: C_12  and  N_11 
ROOT
ATOM      1  C   UNL d   1     -43.131-122.286 -50.577  0.00  0.00     0.075 C 
ENDROOT
BRANCH   1   2
ATOM      2  C   UNL d   1     -42.734-122.584 -49.916  0.00  0.00     0.106 A 
ATOM      3  C   UNL d   1     -42.965-123.244 -49.461  0.00  0.00     0.289 A 
ATOM      4  N   UNL d   1     -42.413-123.344 -48.857  0.00  0.00    -0.169 N 
ATOM      5  O   UNL d   1     -43.634-123.714 -49.594  0.00  0.00    -0.265 OA
ATOM      6  C   UNL d   1     -41.840-122.752 -48.934  0.00  0.00     0.200 A 
ATOM      7  N   UNL d   1     -42.210-123.805 -48.207  0.00  0.00    -0.141 NA
ATOM      8  S   UNL d   1     -42.036-122.284 -49.584  0.00  0.00    -0.042 SA
ATOM      9  N   UNL d   1     -41.288-122.852 -48.330  0.00  0.00    -0.200 NA
ATOM     10  C   UNL d   1     -41.515-123.504 -47.879  0.00  0.00     0.184 A 
ATOM     11  C   UNL d   1     -41.123-123.808 -47.216  0.00  0.00     0.044 C 
ENDBRANCH   1   2
BRANCH   1  12
ATOM     12  N   UNL d   1     -42.798-122.382 -51.325  0.00  0.00    -0.301 N 
ATOM     13  C   UNL d   1     -42.224-121.861 -51.597  0.00  0.00     0.100 A 
ATOM     14  C   UNL d   1     -41.893-121.961 -52.349  0.00  0.00     0.100 A 
ATOM     15  N   UNL d   1     -42.132-122.586 -52.839  0.00  0.00    -0.299 N 
ATOM     16  C   UNL d   1     -42.708-123.103 -52.557  0.00  0.00     0.100 A 
ATOM     17  C   UNL d   1     -43.044-123.009 -51.806  0.00  0.00     0.100 A 
BRANCH  15  18
ATOM     18  C   UNL d   1     -41.801-122.677 -53.576  0.00  0.00     0.092 A 
ATOM     19  C   UNL d   1     -41.798-122.066 -54.119  0.00  0.00     0.156 A 
ATOM     20  F   UNL d   1     -42.144-121.334 -53.909  0.00  0.00    -0.203 F 
ATOM     21  C   UNL d   1     -41.461-122.167 -54.862  0.00  0.00     0.031 A 
ATOM     22  C   UNL d   1     -41.123-122.891 -55.061  0.00  0.00     0.002 A 
ATOM     23  C   UNL d   1     -41.126-123.501 -54.518  0.00  0.00     0.002 A 
ATOM     24  C   UNL d   1     -41.460-123.402 -53.780  0.00  0.00     0.020 A 
ENDBRANCH  15  18
ENDBRANCH   1  12
BRANCH   1  25
ATOM     25  C   UNL d   1     -43.850-121.900 -50.486  0.00  0.00     0.017 A 
ATOM     26  C   UNL d   1     -44.438-121.995 -51.044  0.00  0.00     0.002 A 
ATOM     27  C   UNL d   1     -45.141-121.612 -50.947  0.00  0.00     0.000 A 
ATOM     28  C   UNL d   1     -45.276-121.119 -50.282  0.00  0.00     0.000 A 
ATOM     29  C   UNL d   1     -44.691-121.029 -49.735  0.00  0.00     0.000 A 
ATOM     30  C   UNL d   1     -43.965-121.417 -49.823  0.00  0.00     0.002 A 
ENDBRANCH   1  25
TORSDOF 4
ENDMDL
