MODEL 1
REMARK VINA RESULT:      -2.5      0.000      0.000
REMARK  10 active torsions:
REMARK  status: ('A' for Active; 'I' for Inactive)
REMARK    1  A    between atoms: C_16  and  N_1 
REMARK    2  A    between atoms: S_10  and  C_2 
REMARK    3  A    between atoms: N_8  and  C_9 
REMARK    4  A    between atoms: C_18  and  S_10 
REMARK    5  A    between atoms: C_12  and  C_18 
REMARK       I    between atoms: N_19  and  C_12 
REMARK    6  A    between atoms: C_27  and  C_16 
REMARK    7  A    between atoms: C_25  and  N_19 
REMARK    8  A    between atoms: O_22  and  C_26 
REMARK    9  A    between atoms: C_26  and  C_25 
REMARK   10  A    between atoms: C_29  and  C_27 
ROOT
ATOM      1  N   UNL d   1      33.233  21.776 -22.645  0.00  0.00    -0.253 N 
ATOM      2  C   UNL d   1      33.235  21.683 -21.819  0.00  0.00     0.182 A 
ATOM      3  C   UNL d   1      33.227  21.121 -23.138  0.00  0.00     0.268 A 
ATOM      4  C   UNL d   1      33.223  20.366 -22.797  0.00  0.00     0.076 A 
ATOM      5  N   UNL d   1      33.231  20.934 -21.490  0.00  0.00    -0.222 NA
ATOM      6  C   UNL d   1      33.225  20.274 -21.979  0.00  0.00     0.088 A 
ATOM      7  C   UNL d   1      33.217  19.719 -23.293  0.00  0.00     0.024 A 
ATOM      8  C   UNL d   1      33.213  18.950 -22.966  0.00  0.00     0.065 A 
ATOM      9  O   UNL d   1      33.224  21.214 -23.957  0.00  0.00    -0.267 OA
ATOM     10  C   UNL d   1      33.221  19.521 -21.650  0.00  0.00     0.021 A 
ATOM     11  C   UNL d   1      33.215  18.869 -22.138  0.00  0.00     0.019 A 
ENDROOT
BRANCH   2  12
ATOM     12  S   UNL d   1      33.241  22.360 -21.328  0.00  0.00    -0.044 SA
BRANCH  12  13
ATOM     13  C   UNL d   1      33.075  22.280 -20.525  0.00  0.00     0.101 C 
BRANCH  13  14
ATOM     14  C   UNL d   1      33.011  22.945 -20.037  0.00  0.00     0.286 C 
ATOM     15  O   UNL d   1      33.064  23.697 -20.347  0.00  0.00    -0.265 OA
ATOM     16  N   UNL d   1      32.893  22.857 -19.224  0.00  0.00    -0.204 NA
BRANCH  16  17
ATOM     17  C   UNL d   1      32.828  23.527 -18.724  0.00  0.00     0.129 C 
BRANCH  17  18
ATOM     18  C   UNL d   1      33.096  23.477 -17.960  0.00  0.00     0.137 C 
BRANCH  18  19
ATOM     19  O   UNL d   1      32.554  23.399 -17.347  0.00  0.00    -0.325 OA
ATOM     20  C   UNL d   1      32.758  22.976 -16.672  0.00  0.00     0.182 C 
ENDBRANCH  18  19
ENDBRANCH  17  18
ENDBRANCH  16  17
ENDBRANCH  13  14
ENDBRANCH  12  13
ENDBRANCH   2  12
BRANCH   1  21
ATOM     21  C   UNL d   1      33.237  22.546 -22.973  0.00  0.00     0.085 C 
BRANCH  21  22
ATOM     22  C   UNL d   1      32.553  22.847 -23.298  0.00  0.00     0.019 C 
BRANCH  22  23
ATOM     23  C   UNL d   1      32.571  23.557 -23.712  0.00  0.00     0.002 C 
ATOM     24  C   UNL d   1      32.133  23.643 -24.414  0.00  0.00     0.000 C 
ENDBRANCH  22  23
ENDBRANCH  21  22
ENDBRANCH   1  21
BRANCH   8  25
ATOM     25  N   UNL d   1      33.207  18.289 -23.455  0.00  0.00    -0.300 N 
ATOM     26  C   UNL d   1      33.169  18.395 -24.276  0.00  0.00     0.107 A 
ATOM     27  C   UNL d   1      33.163  17.726 -24.765  0.00  0.00     0.142 A 
ATOM     28  O   UNL d   1      33.194  16.962 -24.439  0.00  0.00    -0.300 OA
ATOM     29  C   UNL d   1      33.231  16.869 -23.617  0.00  0.00     0.142 A 
ATOM     30  C   UNL d   1      33.238  17.528 -23.116  0.00  0.00     0.107 A 
ENDBRANCH   8  25
TORSDOF 10
ENDMDL
