MODEL 1
REMARK VINA RESULT:      60.8      0.000      0.000
REMARK  7 active torsions:
REMARK  status: ('A' for Active; 'I' for Inactive)
REMARK    1  A    between atoms: N_7  and  C_1 
REMARK    2  A    between atoms: N_8  and  C_4 
REMARK    3  A    between atoms: N_9  and  C_5 
REMARK    4  A    between atoms: C_14  and  N_8 
REMARK    5  A    between atoms: C_13  and  N_9 
REMARK    6  A    between atoms: C_20  and  C_14 
REMARK    7  A    between atoms: O_21  and  C_15 
ROOT
ATOM      1  C   UNL d   1      59.798  49.298  51.625  0.00  0.00     0.201 A 
ATOM      2  N   UNL d   1      60.063  49.103  50.270  0.00  0.00    -0.038 NA
ATOM      3  N   UNL d   1      61.050  48.688  51.235  0.00  0.00    -0.036 NA
ATOM      4  C   UNL d   1      59.549  49.375  50.843  0.00  0.00     0.206 A 
ATOM      5  C   UNL d   1      60.817  48.758  50.467  0.00  0.00     0.753 A 
ATOM      6  C   UNL d   1      60.552  48.953  51.822  0.00  0.00     0.227 A 
ATOM      7  N   UNL d   1      60.788  48.882  52.606  0.00  0.00    -0.125 N 
ENDROOT
BRANCH   5   8
ATOM      8  N   UNL d   1      61.321  48.491  49.882  0.00  0.00    -0.059 NA
BRANCH   8   9
ATOM      9  C   UNL d   1      61.492  47.661  49.807  0.00  0.00     0.100 A 
ATOM     10  C   UNL d   1      61.035  47.096  50.213  0.00  0.00     0.022 A 
ATOM     11  C   UNL d   1      61.200  46.274  50.143  0.00  0.00     0.026 A 
ATOM     12  C   UNL d   1      61.821  45.996  49.670  0.00  0.00     0.094 A 
ATOM     13  C   UNL d   1      62.269  46.563  49.271  0.00  0.00     0.026 A 
ATOM     14  C   UNL d   1      62.102  47.395  49.342  0.00  0.00     0.022 A 
BRANCH  12  15
ATOM     15  O   UNL d   1      61.987  45.168  49.599  0.00  0.00    -0.328 OA
ATOM     16  C   UNL d   1      61.670  44.724  48.988  0.00  0.00     0.181 C 
ENDBRANCH  12  15
ENDBRANCH   8   9
ENDBRANCH   5   8
BRANCH   4  17
ATOM     17  N   UNL d   1      58.822  49.708  50.658  0.00  0.00    -0.223 NA
BRANCH  17  18
ATOM     18  C   UNL d   1      58.491  49.571  49.919  0.00  0.00     0.101 C 
BRANCH  18  19
ATOM     19  C   UNL d   1      57.676  49.590  49.828  0.00  0.00     0.019 A 
ATOM     20  C   UNL d   1      57.186  49.598  50.489  0.00  0.00     0.002 A 
ATOM     21  C   UNL d   1      56.381  49.617  50.398  0.00  0.00     0.000 A 
ATOM     22  C   UNL d   1      56.051  49.628  49.645  0.00  0.00     0.000 A 
ATOM     23  C   UNL d   1      56.530  49.620  48.982  0.00  0.00     0.000 A 
ATOM     24  C   UNL d   1      57.355  49.601  49.075  0.00  0.00     0.002 A 
ENDBRANCH  18  19
ENDBRANCH  17  18
ENDBRANCH   4  17
BRANCH   1  25
ATOM     25  N   UNL d   1      59.278  49.574  52.226  0.00  0.00    -0.107 N 
ATOM     26  O   UNL d   1      58.489  49.708  52.006  0.00  0.00    -0.531 OA
ATOM     27  O   UNL d   1      59.559  49.707  53.025  0.00  0.00    -0.531 OA
ENDBRANCH   1  25
TORSDOF 7
ENDMDL
