MODEL 1
REMARK VINA RESULT:      -2.8      0.000      0.000
REMARK  3 active torsions:
REMARK  status: ('A' for Active; 'I' for Inactive)
REMARK    1  A    between atoms: S_4  and  C_1 
REMARK    2  A    between atoms: N_3  and  C_2 
REMARK    3  A    between atoms: C_5  and  S_4 
ROOT
ATOM      1  C   UNL d   1      30.376  16.558 -24.158  0.00  0.00     0.139 A 
ATOM      2  C   UNL d   1      29.578  16.513 -23.951  0.00  0.00     0.188 A 
ATOM      3  N   UNL d   1      30.905  16.027 -23.775  0.00  0.00    -0.216 NA
ATOM      4  C   UNL d   1      29.285  16.007 -23.420  0.00  0.00     0.209 A 
ATOM      5  N   UNL d   1      29.794  15.455 -23.013  0.00  0.00    -0.202 NA
ATOM      6  C   UNL d   1      30.621  15.486 -23.214  0.00  0.00     0.201 A 
ATOM      7  N   UNL d   1      28.483  15.916 -23.169  0.00  0.00    -0.125 N 
ENDROOT
BRANCH   1   8
ATOM      8  S   UNL d   1      30.664  17.052 -24.677  0.00  0.00    -0.047 SA
BRANCH   8   9
ATOM      9  C   UNL d   1      31.551  17.268 -24.433  0.00  0.00     0.115 A 
ATOM     10  N   UNL d   1      32.148  16.827 -24.834  0.00  0.00    -0.217 NA
ATOM     11  C   UNL d   1      32.952  16.982 -24.652  0.00  0.00     0.200 A 
ATOM     12  N   UNL d   1      33.153  17.549 -24.098  0.00  0.00    -0.224 NA
ATOM     13  C   UNL d   1      32.548  17.989 -23.699  0.00  0.00     0.085 A 
ATOM     14  C   UNL d   1      31.760  17.846 -23.868  0.00  0.00     0.045 A 
ATOM     15  C   UNL d   1      32.739  18.468 -23.230  0.00  0.00     0.021 C 
ENDBRANCH   8   9
ENDBRANCH   1   8
BRANCH   2  16
ATOM     16  N   UNL d   1      29.051  17.046 -24.336  0.00  0.00    -0.108 N 
ATOM     17  O   UNL d   1      28.786  17.759 -24.025  0.00  0.00    -0.532 OA
ATOM     18  O   UNL d   1      28.738  16.893 -25.097  0.00  0.00    -0.532 OA
ENDBRANCH   2  16
TORSDOF 3
ENDMDL
MODEL 2
REMARK VINA RESULT:      -2.5      1.515      3.204
REMARK  3 active torsions:
REMARK  status: ('A' for Active; 'I' for Inactive)
REMARK    1  A    between atoms: S_4  and  C_1 
REMARK    2  A    between atoms: N_3  and  C_2 
REMARK    3  A    between atoms: C_5  and  S_4 
ROOT
ATOM      1  C   UNL d   1      31.202  16.592 -24.321  0.00  0.00     0.139 A 
ATOM      2  C   UNL d   1      31.857  17.013 -24.048  0.00  0.00     0.188 A 
ATOM      3  N   UNL d   1      31.124  15.793 -24.067  0.00  0.00    -0.216 NA
ATOM      4  C   UNL d   1      32.409  16.716 -23.568  0.00  0.00     0.209 A 
ATOM      5  N   UNL d   1      32.360  15.909 -23.291  0.00  0.00    -0.202 NA
ATOM      6  C   UNL d   1      31.690  15.457 -23.562  0.00  0.00     0.201 A 
ATOM      7  N   UNL d   1      33.096  17.096 -23.258  0.00  0.00    -0.125 N 
ENDROOT
BRANCH   1   8
ATOM      8  S   UNL d   1      30.662  16.882 -24.790  0.00  0.00    -0.047 SA
BRANCH   8   9
ATOM      9  C   UNL d   1      29.829  16.490 -24.577  0.00  0.00     0.115 A 
ATOM     10  N   UNL d   1      29.606  15.838 -25.063  0.00  0.00    -0.217 NA
ATOM     11  C   UNL d   1      28.875  15.456 -24.913  0.00  0.00     0.200 A 
ATOM     12  N   UNL d   1      28.388  15.710 -24.308  0.00  0.00    -0.224 NA
ATOM     13  C   UNL d   1      28.617  16.367 -23.823  0.00  0.00     0.085 A 
ATOM     14  C   UNL d   1      29.329  16.747 -23.960  0.00  0.00     0.045 A 
ATOM     15  C   UNL d   1      28.189  16.569 -23.312  0.00  0.00     0.021 C 
ENDBRANCH   8   9
ENDBRANCH   1   8
BRANCH   2  16
ATOM     16  N   UNL d   1      31.933  17.813 -24.304  0.00  0.00    -0.108 N 
ATOM     17  O   UNL d   1      31.738  18.475 -23.858  0.00  0.00    -0.532 OA
ATOM     18  O   UNL d   1      32.223  18.013 -25.064  0.00  0.00    -0.532 OA
ENDBRANCH   2  16
TORSDOF 3
ENDMDL
MODEL 3
REMARK VINA RESULT:      -2.4      1.886      3.575
REMARK  3 active torsions:
REMARK  status: ('A' for Active; 'I' for Inactive)
REMARK    1  A    between atoms: S_4  and  C_1 
REMARK    2  A    between atoms: N_3  and  C_2 
REMARK    3  A    between atoms: C_5  and  S_4 
ROOT
ATOM      1  C   UNL d   1      31.533  16.395 -24.213  0.00  0.00     0.139 A 
ATOM      2  C   UNL d   1      32.249  16.553 -23.834  0.00  0.00     0.188 A 
ATOM      3  N   UNL d   1      31.068  17.056 -24.450  0.00  0.00    -0.216 NA
ATOM      4  C   UNL d   1      32.521  17.279 -23.682  0.00  0.00     0.209 A 
ATOM      5  N   UNL d   1      32.074  17.971 -23.909  0.00  0.00    -0.202 NA
ATOM      6  C   UNL d   1      31.331  17.828 -24.302  0.00  0.00     0.201 A 
ATOM      7  N   UNL d   1      33.241  17.500 -23.300  0.00  0.00    -0.125 N 
ENDROOT
BRANCH   1   8
ATOM      8  S   UNL d   1      31.267  15.686 -24.362  0.00  0.00    -0.047 SA
BRANCH   8   9
ATOM      9  C   UNL d   1      30.328  15.684 -24.255  0.00  0.00     0.115 A 
ATOM     10  N   UNL d   1      29.886  15.758 -24.970  0.00  0.00    -0.217 NA
ATOM     11  C   UNL d   1      29.049  15.761 -24.926  0.00  0.00     0.200 A 
ATOM     12  N   UNL d   1      28.668  15.694 -24.206  0.00  0.00    -0.224 NA
ATOM     13  C   UNL d   1      29.117  15.620 -23.491  0.00  0.00     0.085 A 
ATOM     14  C   UNL d   1      29.935  15.615 -23.521  0.00  0.00     0.045 A 
ATOM     15  C   UNL d   1      28.775  15.563 -22.886  0.00  0.00     0.021 C 
ENDBRANCH   8   9
ENDBRANCH   1   8
BRANCH   2  16
ATOM     16  N   UNL d   1      32.713  15.889 -23.598  0.00  0.00    -0.108 N 
ATOM     17  O   UNL d   1      32.720  15.560 -22.846  0.00  0.00    -0.532 OA
ATOM     18  O   UNL d   1      33.225  15.492 -24.127  0.00  0.00    -0.532 OA
ENDBRANCH   2  16
TORSDOF 3
ENDMDL
MODEL 4
REMARK VINA RESULT:      -2.2      1.541      1.867
REMARK  3 active torsions:
REMARK  status: ('A' for Active; 'I' for Inactive)
REMARK    1  A    between atoms: S_4  and  C_1 
REMARK    2  A    between atoms: N_3  and  C_2 
REMARK    3  A    between atoms: C_5  and  S_4 
ROOT
ATOM      1  C   UNL d   1      30.173  16.252 -24.528  0.00  0.00     0.139 A 
ATOM      2  C   UNL d   1      29.451  16.499 -24.214  0.00  0.00     0.188 A 
ATOM      3  N   UNL d   1      30.613  16.814 -24.975  0.00  0.00    -0.216 NA
ATOM      4  C   UNL d   1      29.150  17.223 -24.308  0.00  0.00     0.209 A 
ATOM      5  N   UNL d   1      29.570  17.818 -24.755  0.00  0.00    -0.202 NA
ATOM      6  C   UNL d   1      30.318  17.581 -25.087  0.00  0.00     0.201 A 
ATOM      7  N   UNL d   1      28.421  17.531 -24.012  0.00  0.00    -0.125 N 
ENDROOT
BRANCH   1   8
ATOM      8  S   UNL d   1      30.468  15.544 -24.438  0.00  0.00    -0.047 SA
BRANCH   8   9
ATOM      9  C   UNL d   1      31.409  15.610 -24.379  0.00  0.00     0.115 A 
ATOM     10  N   UNL d   1      31.823  15.453 -25.097  0.00  0.00    -0.217 NA
ATOM     11  C   UNL d   1      32.660  15.499 -25.095  0.00  0.00     0.200 A 
ATOM     12  N   UNL d   1      33.067  15.692 -24.413  0.00  0.00    -0.224 NA
ATOM     13  C   UNL d   1      32.645  15.849 -23.695  0.00  0.00     0.085 A 
ATOM     14  C   UNL d   1      31.828  15.807 -23.684  0.00  0.00     0.045 A 
ATOM     15  C   UNL d   1      33.009  16.012 -23.123  0.00  0.00     0.021 C 
ENDBRANCH   8   9
ENDBRANCH   1   8
BRANCH   2  16
ATOM     16  N   UNL d   1      29.013  15.934 -23.767  0.00  0.00    -0.108 N 
ATOM     17  O   UNL d   1      29.109  15.788 -22.964  0.00  0.00    -0.532 OA
ATOM     18  O   UNL d   1      28.422  15.453 -24.112  0.00  0.00    -0.532 OA
ENDBRANCH   2  16
TORSDOF 3
ENDMDL
MODEL 5
REMARK VINA RESULT:      -0.7      1.975      3.567
REMARK  3 active torsions:
REMARK  status: ('A' for Active; 'I' for Inactive)
REMARK    1  A    between atoms: S_4  and  C_1 
REMARK    2  A    between atoms: N_3  and  C_2 
REMARK    3  A    between atoms: C_5  and  S_4 
ROOT
ATOM      1  C   UNL d   1      32.718  18.178 -23.557  0.00  0.00     0.139 A 
ATOM      2  C   UNL d   1      32.735  19.000 -23.490  0.00  0.00     0.188 A 
ATOM      3  N   UNL d   1      32.965  17.730 -22.888  0.00  0.00    -0.216 NA
ATOM      4  C   UNL d   1      32.968  19.388 -22.843  0.00  0.00     0.209 A 
ATOM      5  N   UNL d   1      33.225  18.965 -22.146  0.00  0.00    -0.202 NA
ATOM      6  C   UNL d   1      33.213  18.115 -22.196  0.00  0.00     0.201 A 
ATOM      7  N   UNL d   1      33.007  20.223 -22.716  0.00  0.00    -0.125 N 
ENDROOT
BRANCH   1   8
ATOM      8  S   UNL d   1      32.490  17.797 -24.189  0.00  0.00    -0.047 SA
BRANCH   8   9
ATOM      9  C   UNL d   1      32.120  16.967 -23.930  0.00  0.00     0.115 A 
ATOM     10  N   UNL d   1      32.678  16.343 -23.829  0.00  0.00    -0.217 NA
ATOM     11  C   UNL d   1      32.398  15.587 -23.600  0.00  0.00     0.200 A 
ATOM     12  N   UNL d   1      31.601  15.457 -23.475  0.00  0.00    -0.224 NA
ATOM     13  C   UNL d   1      31.045  16.089 -23.578  0.00  0.00     0.085 A 
ATOM     14  C   UNL d   1      31.306  16.831 -23.802  0.00  0.00     0.045 A 
ATOM     15  C   UNL d   1      30.369  15.959 -23.467  0.00  0.00     0.021 C 
ENDBRANCH   8   9
ENDBRANCH   1   8
BRANCH   2  16
ATOM     16  N   UNL d   1      32.487  19.445 -24.162  0.00  0.00    -0.108 N 
ATOM     17  O   UNL d   1      31.720  19.702 -24.303  0.00  0.00    -0.532 OA
ATOM     18  O   UNL d   1      33.018  19.674 -24.767  0.00  0.00    -0.532 OA
ENDBRANCH   2  16
TORSDOF 3
ENDMDL
MODEL 6
REMARK VINA RESULT:      -0.3      2.932      4.606
REMARK  3 active torsions:
REMARK  status: ('A' for Active; 'I' for Inactive)
REMARK    1  A    between atoms: S_4  and  C_1 
REMARK    2  A    between atoms: N_3  and  C_2 
REMARK    3  A    between atoms: C_5  and  S_4 
ROOT
ATOM      1  C   UNL d   1      33.031  19.678 -22.756  0.00  0.00     0.139 A 
ATOM      2  C   UNL d   1      32.946  20.363 -22.303  0.00  0.00     0.188 A 
ATOM      3  N   UNL d   1      33.180  19.774 -23.579  0.00  0.00    -0.216 NA
ATOM      4  C   UNL d   1      32.994  21.096 -22.593  0.00  0.00     0.209 A 
ATOM      5  N   UNL d   1      33.144  21.229 -23.424  0.00  0.00    -0.202 NA
ATOM      6  C   UNL d   1      33.235  20.534 -23.907  0.00  0.00     0.201 A 
ATOM      7  N   UNL d   1      32.916  21.829 -22.182  0.00  0.00    -0.125 N 
ENDROOT
BRANCH   1   8
ATOM      8  S   UNL d   1      32.984  18.960 -22.473  0.00  0.00    -0.047 SA
BRANCH   8   9
ATOM      9  C   UNL d   1      32.675  18.383 -23.155  0.00  0.00     0.115 A 
ATOM     10  N   UNL d   1      31.846  18.420 -23.305  0.00  0.00    -0.217 NA
ATOM     11  C   UNL d   1      31.523  17.926 -23.901  0.00  0.00     0.200 A 
ATOM     12  N   UNL d   1      32.002  17.420 -24.329  0.00  0.00    -0.224 NA
ATOM     13  C   UNL d   1      32.835  17.389 -24.174  0.00  0.00     0.085 A 
ATOM     14  C   UNL d   1      33.161  17.865 -23.594  0.00  0.00     0.045 A 
ATOM     15  C   UNL d   1      33.227  16.951 -24.549  0.00  0.00     0.021 C 
ENDBRANCH   8   9
ENDBRANCH   1   8
BRANCH   2  16
ATOM     16  N   UNL d   1      32.797  20.262 -21.480  0.00  0.00    -0.108 N 
ATOM     17  O   UNL d   1      32.218  20.657 -21.050  0.00  0.00    -0.532 OA
ATOM     18  O   UNL d   1      33.241  19.733 -21.007  0.00  0.00    -0.532 OA
ENDBRANCH   2  16
TORSDOF 3
ENDMDL
MODEL 7
REMARK VINA RESULT:       0.0      4.411      5.927
REMARK  3 active torsions:
REMARK  status: ('A' for Active; 'I' for Inactive)
REMARK    1  A    between atoms: S_4  and  C_1 
REMARK    2  A    between atoms: N_3  and  C_2 
REMARK    3  A    between atoms: C_5  and  S_4 
ROOT
ATOM      1  C   UNL d   1      32.975  21.765 -21.900  0.00  0.00     0.139 A 
ATOM      2  C   UNL d   1      32.479  22.252 -21.455  0.00  0.00     0.188 A 
ATOM      3  N   UNL d   1      33.241  22.059 -22.643  0.00  0.00    -0.216 NA
ATOM      4  C   UNL d   1      32.242  22.970 -21.681  0.00  0.00     0.209 A 
ATOM      5  N   UNL d   1      32.493  23.299 -22.429  0.00  0.00    -0.202 NA
ATOM      6  C   UNL d   1      33.006  22.811 -22.903  0.00  0.00     0.201 A 
ATOM      7  N   UNL d   1      31.739  23.510 -21.271  0.00  0.00    -0.125 N 
ENDROOT
BRANCH   1   8
ATOM      8  S   UNL d   1      33.208  21.062 -21.680  0.00  0.00    -0.047 SA
BRANCH   8   9
ATOM      9  C   UNL d   1      33.121  20.469 -22.410  0.00  0.00     0.115 A 
ATOM     10  N   UNL d   1      33.241  20.817 -23.169  0.00  0.00    -0.217 NA
ATOM     11  C   UNL d   1      33.175  20.331 -23.849  0.00  0.00     0.200 A 
ATOM     12  N   UNL d   1      32.998  19.536 -23.779  0.00  0.00    -0.224 NA
ATOM     13  C   UNL d   1      32.879  19.192 -23.013  0.00  0.00     0.085 A 
ATOM     14  C   UNL d   1      32.941  19.656 -22.342  0.00  0.00     0.045 A 
ATOM     15  C   UNL d   1      32.730  18.512 -22.973  0.00  0.00     0.021 C 
ENDBRANCH   8   9
ENDBRANCH   1   8
BRANCH   2  16
ATOM     16  N   UNL d   1      32.215  21.953 -20.712  0.00  0.00    -0.108 N 
ATOM     17  O   UNL d   1      31.511  21.549 -20.587  0.00  0.00    -0.532 OA
ATOM     18  O   UNL d   1      32.660  22.046 -20.009  0.00  0.00    -0.532 OA
ENDBRANCH   2  16
TORSDOF 3
ENDMDL
