MODEL 1
REMARK VINA RESULT:      66.2      0.000      0.000
REMARK  3 active torsions:
REMARK  status: ('A' for Active; 'I' for Inactive)
REMARK    1  A    between atoms: C_11  and  C_3 
REMARK       I    between atoms: C_7  and  N_9 
REMARK    2  A    between atoms: C_8  and  C_7 
REMARK    3  A    between atoms: N_9  and  C_13 
ROOT
ATOM      1  C   UNL d   1      13.687  12.933  -3.099  0.00  0.00     0.021 A 
ATOM      2  C   UNL d   1      13.419  14.011  -3.998  0.00  0.00     0.085 A 
ATOM      3  C   UNL d   1      13.760  13.730  -3.301  0.00  0.00     0.021 A 
ATOM      4  C   UNL d   1      13.272  12.418  -3.593  0.00  0.00     0.002 A 
ATOM      5  C   UNL d   1      12.932  12.700  -4.291  0.00  0.00     0.002 A 
ATOM      6  C   UNL d   1      13.005  13.497  -4.493  0.00  0.00     0.019 A 
ENDROOT
BRANCH   2   7
ATOM      7  N   UNL d   1      13.492  14.803  -4.200  0.00  0.00    -0.207 NA
ATOM      8  C   UNL d   1      14.232  15.147  -4.260  0.00  0.00     0.297 C 
ATOM      9  O   UNL d   1      14.916  14.693  -4.117  0.00  0.00    -0.264 OA
BRANCH   8  10
ATOM     10  C   UNL d   1      14.305  15.943  -4.463  0.00  0.00     0.139 A 
ATOM     11  N   UNL d   1      14.093  16.201  -5.209  0.00  0.00    -0.241 NA
ATOM     12  C   UNL d   1      14.167  16.997  -5.412  0.00  0.00     0.082 A 
ATOM     13  C   UNL d   1      13.951  17.252  -6.167  0.00  0.00     0.019 A 
ATOM     14  C   UNL d   1      14.452  17.536  -4.868  0.00  0.00     0.018 A 
ATOM     15  C   UNL d   1      14.025  18.048  -6.369  0.00  0.00     0.002 A 
ATOM     16  C   UNL d   1      14.314  18.590  -5.817  0.00  0.00     0.000 A 
ATOM     17  C   UNL d   1      14.526  18.332  -5.070  0.00  0.00     0.002 A 
ATOM     18  C   UNL d   1      14.671  17.283  -4.105  0.00  0.00     0.003 A 
ATOM     19  C   UNL d   1      14.597  16.486  -3.902  0.00  0.00     0.024 A 
ENDBRANCH   8  10
ENDBRANCH   2   7
BRANCH   1  20
ATOM     20  C   UNL d   1      14.027  12.651  -2.402  0.00  0.00     0.101 A 
ATOM     21  N   UNL d   1      14.827  12.524  -2.234  0.00  0.00    -0.221 NA
ATOM     22  C   UNL d   1      14.873  12.243  -1.473  0.00  0.00     0.179 A 
ATOM     23  N   UNL d   1      14.113  12.193  -1.161  0.00  0.00    -0.282 N 
ATOM     24  S   UNL d   1      15.397  11.990  -0.897  0.00  0.00    -0.048 SA
ATOM     25  C   UNL d   1      13.585  12.448  -1.740  0.00  0.00     0.101 A 
ATOM     26  C   UNL d   1      14.179  11.905  -0.383  0.00  0.00     0.089 A 
ATOM     27  C   UNL d   1      14.967  11.783  -0.228  0.00  0.00     0.057 A 
ENDBRANCH   1  20
TORSDOF 3
ENDMDL
MODEL 2
REMARK VINA RESULT:      68.7      1.764      2.459
REMARK  3 active torsions:
REMARK  status: ('A' for Active; 'I' for Inactive)
REMARK    1  A    between atoms: C_11  and  C_3 
REMARK       I    between atoms: C_7  and  N_9 
REMARK    2  A    between atoms: C_8  and  C_7 
REMARK    3  A    between atoms: N_9  and  C_13 
ROOT
ATOM      1  C   UNL d   1      15.012  15.064  -1.034  0.00  0.00     0.021 A 
ATOM      2  C   UNL d   1      14.852  16.177  -1.915  0.00  0.00     0.085 A 
ATOM      3  C   UNL d   1      14.765  15.371  -1.759  0.00  0.00     0.021 A 
ATOM      4  C   UNL d   1      15.345  15.562  -0.466  0.00  0.00     0.002 A 
ATOM      5  C   UNL d   1      15.431  16.368  -0.623  0.00  0.00     0.002 A 
ATOM      6  C   UNL d   1      15.185  16.675  -1.348  0.00  0.00     0.019 A 
ENDROOT
BRANCH   2   7
ATOM      7  N   UNL d   1      14.607  16.483  -2.637  0.00  0.00    -0.207 NA
ATOM      8  C   UNL d   1      15.155  16.654  -3.219  0.00  0.00     0.297 C 
ATOM      9  O   UNL d   1      15.965  16.518  -3.083  0.00  0.00    -0.264 OA
BRANCH   8  10
ATOM     10  C   UNL d   1      14.909  16.962  -3.944  0.00  0.00     0.139 A 
ATOM     11  N   UNL d   1      14.902  17.770  -4.069  0.00  0.00    -0.241 NA
ATOM     12  C   UNL d   1      14.656  18.078  -4.793  0.00  0.00     0.082 A 
ATOM     13  C   UNL d   1      14.651  18.894  -4.914  0.00  0.00     0.019 A 
ATOM     14  C   UNL d   1      14.416  17.577  -5.394  0.00  0.00     0.018 A 
ATOM     15  C   UNL d   1      14.404  19.201  -5.639  0.00  0.00     0.002 A 
ATOM     16  C   UNL d   1      14.163  18.693  -6.243  0.00  0.00     0.000 A 
ATOM     17  C   UNL d   1      14.170  17.884  -6.118  0.00  0.00     0.002 A 
ATOM     18  C   UNL d   1      14.420  16.752  -5.276  0.00  0.00     0.003 A 
ATOM     19  C   UNL d   1      14.666  16.445  -4.551  0.00  0.00     0.024 A 
ENDBRANCH   8  10
ENDBRANCH   2   7
BRANCH   1  20
ATOM     20  C   UNL d   1      14.925  14.258  -0.876  0.00  0.00     0.101 A 
ATOM     21  N   UNL d   1      15.241  13.818  -0.251  0.00  0.00    -0.221 NA
ATOM     22  C   UNL d   1      14.994  13.050  -0.345  0.00  0.00     0.179 A 
ATOM     23  N   UNL d   1      14.527  13.002  -1.022  0.00  0.00    -0.282 N 
ATOM     24  S   UNL d   1      15.036  12.301  -0.017  0.00  0.00    -0.048 SA
ATOM     25  C   UNL d   1      14.484  13.756  -1.353  0.00  0.00     0.101 A 
ATOM     26  C   UNL d   1      14.283  12.210  -1.103  0.00  0.00     0.089 A 
ATOM     27  C   UNL d   1      14.598  11.788  -0.486  0.00  0.00     0.057 A 
ENDBRANCH   1  20
TORSDOF 3
ENDMDL
