MODEL 1
REMARK VINA RESULT:      22.7      0.000      0.000
REMARK  5 active torsions:
REMARK  status: ('A' for Active; 'I' for Inactive)
REMARK    1  A    between atoms: N_4  and  C_1 
REMARK       I    between atoms: C_7  and  N_4 
REMARK    2  A    between atoms: C_8  and  C_7 
REMARK    3  A    between atoms: C_12  and  C_8 
REMARK    4  A    between atoms: S_10  and  C_12 
REMARK    5  A    between atoms: C_11  and  S_10 
ROOT
ATOM      1  C   UNL d   1     -54.722-102.057 -40.641  0.00  0.00     0.070 C 
ENDROOT
BRANCH   1   2
ATOM      2  C   UNL d   1     -54.768-101.689 -41.368  0.00  0.00     0.281 C 
ATOM      3  N   UNL d   1     -54.781-102.127 -42.066  0.00  0.00    -0.187 NA
ATOM      4  O   UNL d   1     -54.801-100.858 -41.387  0.00  0.00    -0.265 OA
BRANCH   3   5
ATOM      5  C   UNL d   1     -54.831-101.720 -42.840  0.00  0.00     0.194 A 
ATOM      6  N   UNL d   1     -54.902-102.225 -43.488  0.00  0.00    -0.107 NA
ATOM      7  O   UNL d   1     -54.942-101.769 -44.166  0.00  0.00    -0.210 OA
ATOM      8  C   UNL d   1     -54.895-100.974 -43.935  0.00  0.00     0.128 A 
ATOM      9  C   UNL d   1     -54.826-100.958 -43.109  0.00  0.00     0.068 A 
ATOM     10  C   UNL d   1     -54.913-100.327 -44.439  0.00  0.00     0.029 C 
ENDBRANCH   3   5
ENDBRANCH   1   2
BRANCH   1  11
ATOM     11  C   UNL d   1     -55.104-102.767 -40.485  0.00  0.00     0.040 C 
BRANCH  11  12
ATOM     12  S   UNL d   1     -55.757-102.788 -39.982  0.00  0.00    -0.086 SA
BRANCH  12  13
ATOM     13  C   UNL d   1     -55.642-102.788 -39.152  0.00  0.00     0.029 A 
ATOM     14  C   UNL d   1     -54.881-102.698 -38.842  0.00  0.00     0.007 A 
ATOM     15  C   UNL d   1     -54.766-102.699 -38.012  0.00  0.00     0.012 A 
ATOM     16  C   UNL d   1     -55.416-102.789 -37.513  0.00  0.00     0.058 A 
ATOM     17  C   UNL d   1     -56.174-102.878 -37.828  0.00  0.00     0.012 A 
ATOM     18 CL   UNL d   1     -55.299-102.789 -36.687  0.00  0.00    -0.082 Cl
ATOM     19  C   UNL d   1     -56.285-102.878 -38.646  0.00  0.00     0.007 A 
ENDBRANCH  12  13
ENDBRANCH  11  12
ENDBRANCH   1  11
TORSDOF 5
ENDMDL
MODEL 2
REMARK VINA RESULT:      24.4      2.611      5.204
REMARK  5 active torsions:
REMARK  status: ('A' for Active; 'I' for Inactive)
REMARK    1  A    between atoms: N_4  and  C_1 
REMARK       I    between atoms: C_7  and  N_4 
REMARK    2  A    between atoms: C_8  and  C_7 
REMARK    3  A    between atoms: C_12  and  C_8 
REMARK    4  A    between atoms: S_10  and  C_12 
REMARK    5  A    between atoms: C_11  and  S_10 
ROOT
ATOM      1  C   UNL d   1     -54.714-102.131 -41.858  0.00  0.00     0.070 C 
ENDROOT
BRANCH   1   2
ATOM      2  C   UNL d   1     -55.019-102.336 -41.128  0.00  0.00     0.281 C 
ATOM      3  N   UNL d   1     -54.712-102.014 -40.435  0.00  0.00    -0.187 NA
ATOM      4  O   UNL d   1     -55.647-102.879 -41.104  0.00  0.00    -0.265 OA
BRANCH   3   5
ATOM      5  C   UNL d   1     -55.048-102.243 -39.659  0.00  0.00     0.194 A 
ATOM      6  N   UNL d   1     -55.735-102.698 -39.704  0.00  0.00    -0.107 NA
ATOM      7  O   UNL d   1     -55.982-102.868 -38.943  0.00  0.00    -0.210 OA
ATOM      8  C   UNL d   1     -55.443-102.514 -38.421  0.00  0.00     0.128 A 
ATOM      9  C   UNL d   1     -54.868-102.130 -38.879  0.00  0.00     0.068 A 
ATOM     10  C   UNL d   1     -55.479-102.545 -37.603  0.00  0.00     0.029 C 
ENDBRANCH   3   5
ENDBRANCH   1   2
BRANCH   1  11
ATOM     11  C   UNL d   1     -55.090-101.597 -42.354  0.00  0.00     0.040 C 
BRANCH  11  12
ATOM     12  S   UNL d   1     -54.915-101.582 -43.161  0.00  0.00    -0.086 SA
BRANCH  12  13
ATOM     13  C   UNL d   1     -55.013-100.870 -43.593  0.00  0.00     0.029 A 
ATOM     14  C   UNL d   1     -54.712-100.162 -43.293  0.00  0.00     0.007 A 
ATOM     15  C   UNL d   1     -54.809 -99.451 -43.725  0.00  0.00     0.012 A 
ATOM     16  C   UNL d   1     -55.206 -99.467 -44.447  0.00  0.00     0.058 A 
ATOM     17  C   UNL d   1     -55.505-100.178 -44.743  0.00  0.00     0.012 A 
ATOM     18 CL   UNL d   1     -55.302 -98.758 -44.876  0.00  0.00    -0.082 Cl
ATOM     19  C   UNL d   1     -55.408-100.878 -44.315  0.00  0.00     0.007 A 
ENDBRANCH  12  13
ENDBRANCH  11  12
ENDBRANCH   1  11
TORSDOF 5
ENDMDL
