MODEL 1
REMARK VINA RESULT:      60.5      0.000      0.000
REMARK  4 active torsions:
REMARK  status: ('A' for Active; 'I' for Inactive)
REMARK    1  A    between atoms: N_2  and  C_1 
REMARK       I    between atoms: C_5  and  N_2 
REMARK    2  A    between atoms: C_8  and  C_5 
REMARK    3  A    between atoms: O_16  and  C_10 
REMARK    4  A    between atoms: O_17  and  C_12 
ROOT
ATOM      1  N   UNL d   1      13.454  15.248  -4.589  0.00  0.00    -0.184 NA
ATOM      2  C   UNL d   1      13.398  15.471  -5.383  0.00  0.00     0.281 C 
ATOM      3  O   UNL d   1      13.242  14.887  -5.943  0.00  0.00    -0.265 OA
ENDROOT
BRANCH   2   4
ATOM      4  C   UNL d   1      13.488  16.234  -5.631  0.00  0.00     0.060 A 
ATOM      5  C   UNL d   1      14.130  16.664  -5.379  0.00  0.00     0.031 A 
ATOM      6  C   UNL d   1      14.219  17.442  -5.635  0.00  0.00     0.116 A 
ATOM      7  C   UNL d   1      13.670  17.775  -6.135  0.00  0.00     0.116 A 
ATOM      8  C   UNL d   1      13.028  17.345  -6.387  0.00  0.00     0.026 A 
ATOM      9  C   UNL d   1      12.915  16.549  -6.140  0.00  0.00     0.007 A 
BRANCH   6  10
ATOM     10  O   UNL d   1      14.884  17.890  -5.374  0.00  0.00    -0.326 OA
ATOM     11  C   UNL d   1      15.226  17.524  -4.574  0.00  0.00     0.181 C 
ENDBRANCH   6  10
BRANCH   7  12
ATOM     12  O   UNL d   1      13.766  18.559  -6.388  0.00  0.00    -0.326 OA
ATOM     13  C   UNL d   1      13.192  19.216  -6.289  0.00  0.00     0.181 C 
ENDBRANCH   7  12
ENDBRANCH   2   4
BRANCH   1  14
ATOM     14  C   UNL d   1      13.353  14.452  -4.387  0.00  0.00     0.182 A 
ATOM     15  N   UNL d   1      13.524  14.070  -3.658  0.00  0.00    -0.283 N 
ATOM     16  C   UNL d   1      13.307  13.254  -3.778  0.00  0.00     0.072 A 
ATOM     17  C   UNL d   1      13.824  14.410  -3.007  0.00  0.00     0.101 C 
ATOM     18  C   UNL d   1      13.338  12.583  -3.273  0.00  0.00     0.018 A 
ATOM     19  C   UNL d   1      13.034  13.190  -4.522  0.00  0.00     0.048 A 
ATOM     20  C   UNL d   1      13.075  11.834  -3.566  0.00  0.00     0.002 A 
ATOM     21  C   UNL d   1      12.800  11.779  -4.323  0.00  0.00     0.001 A 
ATOM     22  C   UNL d   1      12.769  12.445  -4.825  0.00  0.00     0.008 A 
ATOM     23  S   UNL d   1      13.055  13.895  -4.899  0.00  0.00    -0.048 SA
ENDBRANCH   1  14
TORSDOF 4
ENDMDL
MODEL 2
REMARK VINA RESULT:      61.1      2.293      5.361
REMARK  4 active torsions:
REMARK  status: ('A' for Active; 'I' for Inactive)
REMARK    1  A    between atoms: N_2  and  C_1 
REMARK       I    between atoms: C_5  and  N_2 
REMARK    2  A    between atoms: C_8  and  C_5 
REMARK    3  A    between atoms: O_16  and  C_10 
REMARK    4  A    between atoms: O_17  and  C_12 
ROOT
ATOM      1  N   UNL d   1      14.632  14.509  -3.541  0.00  0.00    -0.184 NA
ATOM      2  C   UNL d   1      14.400  14.504  -2.749  0.00  0.00     0.281 C 
ATOM      3  O   UNL d   1      14.127  15.207  -2.416  0.00  0.00    -0.265 OA
ENDROOT
BRANCH   2   4
ATOM      4  C   UNL d   1      14.428  13.842  -2.287  0.00  0.00     0.060 A 
ATOM      5  C   UNL d   1      14.063  13.161  -2.541  0.00  0.00     0.031 A 
ATOM      6  C   UNL d   1      14.094  12.488  -2.068  0.00  0.00     0.116 A 
ATOM      7  C   UNL d   1      14.486  12.504  -1.354  0.00  0.00     0.116 A 
ATOM      8  C   UNL d   1      14.851  13.185  -1.101  0.00  0.00     0.026 A 
ATOM      9  C   UNL d   1      14.834  13.886  -1.566  0.00  0.00     0.007 A 
BRANCH   6  10
ATOM     10  O   UNL d   1      13.716  11.780  -2.328  0.00  0.00    -0.326 OA
ATOM     11  C   UNL d   1      13.308  11.924  -3.168  0.00  0.00     0.181 C 
ENDBRANCH   6  10
BRANCH   7  12
ATOM     12  O   UNL d   1      14.512  11.822  -0.883  0.00  0.00    -0.326 OA
ATOM     13  C   UNL d   1      14.380  11.779  -0.016  0.00  0.00     0.181 C 
ENDBRANCH   7  12
ENDBRANCH   2   4
BRANCH   1  14
ATOM     14  C   UNL d   1      14.584  15.215  -3.970  0.00  0.00     0.182 A 
ATOM     15  N   UNL d   1      14.068  15.408  -4.604  0.00  0.00    -0.283 N 
ATOM     16  C   UNL d   1      14.272  16.207  -4.822  0.00  0.00     0.072 A 
ATOM     17  C   UNL d   1      13.513  14.938  -4.921  0.00  0.00     0.101 C 
ATOM     18  C   UNL d   1      13.970  16.726  -5.411  0.00  0.00     0.018 A 
ATOM     19  C   UNL d   1      14.862  16.439  -4.341  0.00  0.00     0.048 A 
ATOM     20  C   UNL d   1      14.301  17.501  -5.486  0.00  0.00     0.002 A 
ATOM     21  C   UNL d   1      14.899  17.726  -4.993  0.00  0.00     0.001 A 
ATOM     22  C   UNL d   1      15.200  17.212  -4.408  0.00  0.00     0.008 A 
ATOM     23  S   UNL d   1      15.059  15.858  -3.827  0.00  0.00    -0.048 SA
ENDBRANCH   1  14
TORSDOF 4
ENDMDL
