MODEL 1
REMARK VINA RESULT:      -7.8      0.000      0.000
REMARK  5 active torsions:
REMARK  status: ('A' for Active; 'I' for Inactive)
REMARK    1  A    between atoms: C_3  and  C_1 
REMARK    2  A    between atoms: N_4  and  C_3 
REMARK    3  A    between atoms: C_6  and  C_3 
REMARK    4  A    between atoms: C_21  and  N_9 
REMARK    5  A    between atoms: C_25  and  C_21 
ROOT
ATOM      1  C   UNL d   1      53.505  32.652  53.857  0.00  0.00     0.073 C 
ENDROOT
BRANCH   1   2
ATOM      2  C   UNL d   1      52.933  33.068  53.413  0.00  0.00     0.057 A 
ATOM      3  C   UNL d   1      52.200  33.275  53.731  0.00  0.00     0.214 A 
ATOM      4  C   UNL d   1      51.644  33.683  53.288  0.00  0.00     0.120 A 
ATOM      5  O   UNL d   1      52.026  33.068  54.504  0.00  0.00    -0.285 OA
ATOM      6  N   UNL d   1      50.931  33.880  53.608  0.00  0.00    -0.241 NA
ATOM      7  C   UNL d   1      51.820  33.892  52.509  0.00  0.00     0.021 A 
ATOM      8  C   UNL d   1      50.373  34.289  53.165  0.00  0.00     0.099 A 
ATOM      9  C   UNL d   1      50.548  34.498  52.385  0.00  0.00     0.021 A 
ATOM     10  C   UNL d   1      51.280  34.296  52.057  0.00  0.00     0.003 A 
ATOM     11  C   UNL d   1      52.548  33.690  52.180  0.00  0.00     0.002 A 
ATOM     12  C   UNL d   1      53.108  33.277  52.633  0.00  0.00     0.005 A 
ENDBRANCH   1   2
BRANCH   1  13
ATOM     13  N   UNL d   1      53.471  31.834  53.878  0.00  0.00    -0.301 N 
ATOM     14  C   UNL d   1      53.637  31.391  53.197  0.00  0.00     0.100 A 
ATOM     15  C   UNL d   1      53.607  30.574  53.204  0.00  0.00     0.100 A 
ATOM     16  N   UNL d   1      53.402  30.178  53.921  0.00  0.00    -0.297 N 
ATOM     17  C   UNL d   1      53.236  30.603  54.599  0.00  0.00     0.100 A 
ATOM     18  C   UNL d   1      53.271  31.442  54.578  0.00  0.00     0.100 A 
BRANCH  16  19
ATOM     19  C   UNL d   1      53.369  29.357  53.942  0.00  0.00     0.126 C 
BRANCH  19  20
ATOM     20  C   UNL d   1      53.342  28.962  54.650  0.00  0.00     0.253 C 
ATOM     21  O   UNL d   1      53.407  28.139  54.676  0.00  0.00    -0.281 OA
ENDBRANCH  19  20
ENDBRANCH  16  19
ENDBRANCH   1  13
BRANCH   1  22
ATOM     22  C   UNL d   1      54.084  33.060  54.260  0.00  0.00     0.046 A 
ATOM     23  S   UNL d   1      54.809  33.218  53.914  0.00  0.00    -0.085 SA
ATOM     24  C   UNL d   1      55.250  33.622  54.447  0.00  0.00     0.035 A 
ATOM     25  C   UNL d   1      54.812  33.726  55.134  0.00  0.00     0.007 A 
ATOM     26  C   UNL d   1      54.085  33.378  55.025  0.00  0.00     0.009 A 
ENDBRANCH   1  22
TORSDOF 5
ENDMDL
MODEL 2
REMARK VINA RESULT:      -7.6      1.509      4.024
REMARK  5 active torsions:
REMARK  status: ('A' for Active; 'I' for Inactive)
REMARK    1  A    between atoms: C_3  and  C_1 
REMARK    2  A    between atoms: N_4  and  C_3 
REMARK    3  A    between atoms: C_6  and  C_3 
REMARK    4  A    between atoms: C_21  and  N_9 
REMARK    5  A    between atoms: C_25  and  C_21 
ROOT
ATOM      1  C   UNL d   1      52.847  32.311  53.325  0.00  0.00     0.073 C 
ENDROOT
BRANCH   1   2
ATOM      2  C   UNL d   1      53.534  32.665  53.639  0.00  0.00     0.057 A 
ATOM      3  C   UNL d   1      53.599  32.858  54.438  0.00  0.00     0.214 A 
ATOM      4  C   UNL d   1      54.277  33.206  54.738  0.00  0.00     0.120 A 
ATOM      5  O   UNL d   1      52.972  32.698  54.941  0.00  0.00    -0.285 OA
ATOM      6  N   UNL d   1      54.330  33.391  55.521  0.00  0.00    -0.241 NA
ATOM      7  C   UNL d   1      54.909  33.367  54.232  0.00  0.00     0.021 A 
ATOM      8  C   UNL d   1      55.010  33.739  55.823  0.00  0.00     0.099 A 
ATOM      9  C   UNL d   1      55.642  33.901  55.317  0.00  0.00     0.021 A 
ATOM     10  C   UNL d   1      55.588  33.711  54.513  0.00  0.00     0.003 A 
ATOM     11  C   UNL d   1      54.857  33.178  53.431  0.00  0.00     0.002 A 
ATOM     12  C   UNL d   1      54.166  32.826  53.132  0.00  0.00     0.005 A 
ENDBRANCH   1   2
BRANCH   1  13
ATOM     13  N   UNL d   1      52.216  32.789  53.113  0.00  0.00    -0.301 N 
ATOM     14  C   UNL d   1      52.277  33.294  52.459  0.00  0.00     0.100 A 
ATOM     15  C   UNL d   1      51.656  33.778  52.236  0.00  0.00     0.100 A 
ATOM     16  N   UNL d   1      50.941  33.758  52.684  0.00  0.00    -0.297 N 
ATOM     17  C   UNL d   1      50.868  33.264  53.332  0.00  0.00     0.100 A 
ATOM     18  C   UNL d   1      51.514  32.773  53.549  0.00  0.00     0.100 A 
BRANCH  16  19
ATOM     19  C   UNL d   1      50.309  34.238  52.472  0.00  0.00     0.126 C 
BRANCH  19  20
ATOM     20  C   UNL d   1      49.936  34.700  53.024  0.00  0.00     0.253 C 
ATOM     21  O   UNL d   1      49.265  35.138  52.824  0.00  0.00    -0.281 OA
ENDBRANCH  19  20
ENDBRANCH  16  19
ENDBRANCH   1  13
BRANCH   1  22
ATOM     22  C   UNL d   1      52.810  31.501  53.234  0.00  0.00     0.046 A 
ATOM     23  S   UNL d   1      53.047  31.143  52.536  0.00  0.00    -0.085 SA
ATOM     24  C   UNL d   1      52.944  30.353  52.622  0.00  0.00     0.035 A 
ATOM     25  C   UNL d   1      52.642  30.201  53.371  0.00  0.00     0.007 A 
ATOM     26  C   UNL d   1      52.556  30.912  53.757  0.00  0.00     0.009 A 
ENDBRANCH   1  22
TORSDOF 5
ENDMDL
MODEL 3
REMARK VINA RESULT:      -7.5      0.993      3.812
REMARK  5 active torsions:
REMARK  status: ('A' for Active; 'I' for Inactive)
REMARK    1  A    between atoms: C_3  and  C_1 
REMARK    2  A    between atoms: N_4  and  C_3 
REMARK    3  A    between atoms: C_6  and  C_3 
REMARK    4  A    between atoms: C_21  and  N_9 
REMARK    5  A    between atoms: C_25  and  C_21 
ROOT
ATOM      1  C   UNL d   1      53.564  32.690  53.767  0.00  0.00     0.073 C 
ENDROOT
BRANCH   1   2
ATOM      2  C   UNL d   1      53.508  31.861  53.689  0.00  0.00     0.057 A 
ATOM      3  C   UNL d   1      53.391  31.369  54.341  0.00  0.00     0.214 A 
ATOM      4  C   UNL d   1      53.337  30.556  54.255  0.00  0.00     0.120 A 
ATOM      5  O   UNL d   1      53.328  31.701  55.087  0.00  0.00    -0.285 OA
ATOM      6  N   UNL d   1      53.223  30.084  54.898  0.00  0.00    -0.241 NA
ATOM      7  C   UNL d   1      53.401  30.221  53.503  0.00  0.00     0.021 A 
ATOM      8  C   UNL d   1      53.169  29.268  54.814  0.00  0.00     0.099 A 
ATOM      9  C   UNL d   1      53.232  28.933  54.062  0.00  0.00     0.021 A 
ATOM     10  C   UNL d   1      53.350  29.417  53.402  0.00  0.00     0.003 A 
ATOM     11  C   UNL d   1      53.518  30.703  52.844  0.00  0.00     0.002 A 
ATOM     12  C   UNL d   1      53.572  31.526  52.937  0.00  0.00     0.005 A 
ENDBRANCH   1   2
BRANCH   1  13
ATOM     13  N   UNL d   1      52.918  33.151  53.565  0.00  0.00    -0.301 N 
ATOM     14  C   UNL d   1      52.749  33.307  52.768  0.00  0.00     0.100 A 
ATOM     15  C   UNL d   1      52.107  33.766  52.552  0.00  0.00     0.100 A 
ATOM     16  N   UNL d   1      51.610  34.084  53.156  0.00  0.00    -0.297 N 
ATOM     17  C   UNL d   1      51.766  33.938  53.945  0.00  0.00     0.100 A 
ATOM     18  C   UNL d   1      52.429  33.465  54.152  0.00  0.00     0.100 A 
BRANCH  16  19
ATOM     19  C   UNL d   1      50.962  34.547  52.953  0.00  0.00     0.126 C 
BRANCH  19  20
ATOM     20  C   UNL d   1      50.271  34.203  52.699  0.00  0.00     0.253 C 
ATOM     21  O   UNL d   1      49.611  34.666  52.523  0.00  0.00    -0.281 OA
ENDBRANCH  19  20
ENDBRANCH  16  19
ENDBRANCH   1  13
BRANCH   1  22
ATOM     22  C   UNL d   1      54.254  33.028  54.041  0.00  0.00     0.046 A 
ATOM     23  S   UNL d   1      54.892  33.150  53.542  0.00  0.00    -0.085 SA
ATOM     24  C   UNL d   1      55.477  33.488  53.974  0.00  0.00     0.035 A 
ATOM     25  C   UNL d   1      55.218  33.584  54.747  0.00  0.00     0.007 A 
ATOM     26  C   UNL d   1      54.457  33.300  54.796  0.00  0.00     0.009 A 
ENDBRANCH   1  22
TORSDOF 5
ENDMDL
MODEL 4
REMARK VINA RESULT:      -6.6      1.741      3.052
REMARK  5 active torsions:
REMARK  status: ('A' for Active; 'I' for Inactive)
REMARK    1  A    between atoms: C_3  and  C_1 
REMARK    2  A    between atoms: N_4  and  C_3 
REMARK    3  A    between atoms: C_6  and  C_3 
REMARK    4  A    between atoms: C_21  and  N_9 
REMARK    5  A    between atoms: C_25  and  C_21 
ROOT
ATOM      1  C   UNL d   1      52.776  32.137  53.380  0.00  0.00     0.073 C 
ENDROOT
BRANCH   1   2
ATOM      2  C   UNL d   1      52.120  32.627  53.217  0.00  0.00     0.057 A 
ATOM      3  C   UNL d   1      52.080  33.087  52.533  0.00  0.00     0.214 A 
ATOM      4  C   UNL d   1      51.433  33.566  52.380  0.00  0.00     0.120 A 
ATOM      5  O   UNL d   1      52.700  33.064  51.998  0.00  0.00    -0.285 OA
ATOM      6  N   UNL d   1      51.403  34.012  51.709  0.00  0.00    -0.241 NA
ATOM      7  C   UNL d   1      50.808  33.590  52.919  0.00  0.00     0.021 A 
ATOM      8  C   UNL d   1      50.755  34.492  51.554  0.00  0.00     0.099 A 
ATOM      9  C   UNL d   1      50.130  34.516  52.093  0.00  0.00     0.021 A 
ATOM     10  C   UNL d   1      50.160  34.059  52.782  0.00  0.00     0.003 A 
ATOM     11  C   UNL d   1      50.837  33.135  53.606  0.00  0.00     0.002 A 
ATOM     12  C   UNL d   1      51.495  32.651  53.756  0.00  0.00     0.005 A 
ENDBRANCH   1   2
BRANCH   1  13
ATOM     13  N   UNL d   1      53.419  32.456  53.774  0.00  0.00    -0.301 N 
ATOM     14  C   UNL d   1      53.415  32.518  54.600  0.00  0.00     0.100 A 
ATOM     15  C   UNL d   1      54.051  32.834  55.006  0.00  0.00     0.100 A 
ATOM     16  N   UNL d   1      54.723  33.101  54.570  0.00  0.00    -0.297 N 
ATOM     17  C   UNL d   1      54.740  33.045  53.754  0.00  0.00     0.100 A 
ATOM     18  C   UNL d   1      54.079  32.718  53.351  0.00  0.00     0.100 A 
BRANCH  16  19
ATOM     19  C   UNL d   1      55.369  33.420  54.964  0.00  0.00     0.126 C 
BRANCH  19  20
ATOM     20  C   UNL d   1      55.346  34.180  55.248  0.00  0.00     0.253 C 
ATOM     21  O   UNL d   1      55.939  34.460  55.751  0.00  0.00    -0.281 OA
ENDBRANCH  19  20
ENDBRANCH  16  19
ENDBRANCH   1  13
BRANCH   1  22
ATOM     22  C   UNL d   1      52.768  31.355  53.150  0.00  0.00     0.046 A 
ATOM     23  S   UNL d   1      52.434  30.778  53.624  0.00  0.00    -0.085 SA
ATOM     24  C   UNL d   1      52.514  30.075  53.245  0.00  0.00     0.035 A 
ATOM     25  C   UNL d   1      52.898  30.199  52.530  0.00  0.00     0.007 A 
ATOM     26  C   UNL d   1      53.059  30.994  52.464  0.00  0.00     0.009 A 
ENDBRANCH   1  22
TORSDOF 5
ENDMDL
MODEL 5
REMARK VINA RESULT:      -6.2      1.550      2.202
REMARK  5 active torsions:
REMARK  status: ('A' for Active; 'I' for Inactive)
REMARK    1  A    between atoms: C_3  and  C_1 
REMARK    2  A    between atoms: N_4  and  C_3 
REMARK    3  A    between atoms: C_6  and  C_3 
REMARK    4  A    between atoms: C_21  and  N_9 
REMARK    5  A    between atoms: C_25  and  C_21 
ROOT
ATOM      1  C   UNL d   1      52.080  33.787  53.228  0.00  0.00     0.073 C 
ENDROOT
BRANCH   1   2
ATOM      2  C   UNL d   1      51.331  33.980  52.915  0.00  0.00     0.057 A 
ATOM      3  C   UNL d   1      51.211  34.091  52.106  0.00  0.00     0.214 A 
ATOM      4  C   UNL d   1      50.472  34.280  51.808  0.00  0.00     0.120 A 
ATOM      5  O   UNL d   1      51.844  34.009  51.593  0.00  0.00    -0.285 OA
ATOM      6  N   UNL d   1      50.366  34.386  51.016  0.00  0.00    -0.241 NA
ATOM      7  C   UNL d   1      49.834  34.363  52.325  0.00  0.00     0.021 A 
ATOM      8  C   UNL d   1      49.625  34.577  50.715  0.00  0.00     0.099 A 
ATOM      9  C   UNL d   1      48.987  34.659  51.232  0.00  0.00     0.021 A 
ATOM     10  C   UNL d   1      49.096  34.550  52.045  0.00  0.00     0.003 A 
ATOM     11  C   UNL d   1      49.941  34.255  53.135  0.00  0.00     0.002 A 
ATOM     12  C   UNL d   1      50.692  34.063  53.433  0.00  0.00     0.005 A 
ENDBRANCH   1   2
BRANCH   1  13
ATOM     13  N   UNL d   1      52.327  33.006  53.209  0.00  0.00    -0.301 N 
ATOM     14  C   UNL d   1      53.019  32.796  52.802  0.00  0.00     0.100 A 
ATOM     15  C   UNL d   1      53.277  32.021  52.774  0.00  0.00     0.100 A 
ATOM     16  N   UNL d   1      52.827  31.426  53.170  0.00  0.00    -0.297 N 
ATOM     17  C   UNL d   1      52.144  31.620  53.575  0.00  0.00     0.100 A 
ATOM     18  C   UNL d   1      51.891  32.420  53.594  0.00  0.00     0.100 A 
BRANCH  16  19
ATOM     19  C   UNL d   1      53.075  30.642  53.151  0.00  0.00     0.126 C 
BRANCH  19  20
ATOM     20  C   UNL d   1      52.536  30.037  53.174  0.00  0.00     0.253 C 
ATOM     21  O   UNL d   1      52.783  29.256  53.282  0.00  0.00    -0.281 OA
ENDBRANCH  19  20
ENDBRANCH  16  19
ENDBRANCH   1  13
BRANCH   1  22
ATOM     22  C   UNL d   1      52.553  34.370  53.545  0.00  0.00     0.046 A 
ATOM     23  S   UNL d   1      52.573  34.506  54.352  0.00  0.00    -0.085 SA
ATOM     24  C   UNL d   1      53.085  35.109  54.485  0.00  0.00     0.035 A 
ATOM     25  C   UNL d   1      53.394  35.361  53.767  0.00  0.00     0.007 A 
ATOM     26  C   UNL d   1      53.067  34.906  53.177  0.00  0.00     0.009 A 
ENDBRANCH   1  22
TORSDOF 5
ENDMDL
MODEL 6
REMARK VINA RESULT:      -5.7      1.514      4.037
REMARK  5 active torsions:
REMARK  status: ('A' for Active; 'I' for Inactive)
REMARK    1  A    between atoms: C_3  and  C_1 
REMARK    2  A    between atoms: N_4  and  C_3 
REMARK    3  A    between atoms: C_6  and  C_3 
REMARK    4  A    between atoms: C_21  and  N_9 
REMARK    5  A    between atoms: C_25  and  C_21 
ROOT
ATOM      1  C   UNL d   1      52.403  33.688  53.425  0.00  0.00     0.073 C 
ENDROOT
BRANCH   1   2
ATOM      2  C   UNL d   1      52.785  32.954  53.321  0.00  0.00     0.057 A 
ATOM      3  C   UNL d   1      52.418  32.240  53.515  0.00  0.00     0.214 A 
ATOM      4  C   UNL d   1      52.800  31.524  53.410  0.00  0.00     0.120 A 
ATOM      5  O   UNL d   1      51.658  32.251  53.818  0.00  0.00    -0.285 OA
ATOM      6  N   UNL d   1      52.434  30.832  53.603  0.00  0.00    -0.241 NA
ATOM      7  C   UNL d   1      53.568  31.513  53.104  0.00  0.00     0.021 A 
ATOM      8  C   UNL d   1      52.816  30.112  53.498  0.00  0.00     0.099 A 
ATOM      9  C   UNL d   1      53.583  30.102  53.192  0.00  0.00     0.021 A 
ATOM     10  C   UNL d   1      53.960  30.811  52.995  0.00  0.00     0.003 A 
ATOM     11  C   UNL d   1      53.945  32.219  52.907  0.00  0.00     0.002 A 
ATOM     12  C   UNL d   1      53.552  32.943  53.015  0.00  0.00     0.005 A 
ENDBRANCH   1   2
BRANCH   1  13
ATOM     13  N   UNL d   1      51.761  33.871  52.949  0.00  0.00    -0.301 N 
ATOM     14  C   UNL d   1      51.876  34.084  52.156  0.00  0.00     0.100 A 
ATOM     15  C   UNL d   1      51.245  34.269  51.669  0.00  0.00     0.100 A 
ATOM     16  N   UNL d   1      50.463  34.241  51.986  0.00  0.00    -0.297 N 
ATOM     17  C   UNL d   1      50.336  34.033  52.767  0.00  0.00     0.100 A 
ATOM     18  C   UNL d   1      50.994  33.846  53.254  0.00  0.00     0.100 A 
BRANCH  16  19
ATOM     19  C   UNL d   1      49.820  34.424  51.509  0.00  0.00     0.126 C 
BRANCH  19  20
ATOM     20  C   UNL d   1      49.142  34.737  51.829  0.00  0.00     0.253 C 
ATOM     21  O   UNL d   1      48.496  34.922  51.349  0.00  0.00    -0.281 OA
ENDBRANCH  19  20
ENDBRANCH  16  19
ENDBRANCH   1  13
BRANCH   1  22
ATOM     22  C   UNL d   1      52.668  34.210  53.992  0.00  0.00     0.046 A 
ATOM     23  S   UNL d   1      53.034  34.913  53.782  0.00  0.00    -0.085 SA
ATOM     24  C   UNL d   1      53.228  35.297  54.458  0.00  0.00     0.035 A 
ATOM     25  C   UNL d   1      52.989  34.846  55.101  0.00  0.00     0.007 A 
ATOM     26  C   UNL d   1      52.640  34.168  54.818  0.00  0.00     0.009 A 
ENDBRANCH   1  22
TORSDOF 5
ENDMDL
MODEL 7
REMARK VINA RESULT:      -5.7      1.102      2.824
REMARK  5 active torsions:
REMARK  status: ('A' for Active; 'I' for Inactive)
REMARK    1  A    between atoms: C_3  and  C_1 
REMARK    2  A    between atoms: N_4  and  C_3 
REMARK    3  A    between atoms: C_6  and  C_3 
REMARK    4  A    between atoms: C_21  and  N_9 
REMARK    5  A    between atoms: C_25  and  C_21 
ROOT
ATOM      1  C   UNL d   1      53.092  32.315  53.593  0.00  0.00     0.073 C 
ENDROOT
BRANCH   1   2
ATOM      2  C   UNL d   1      53.785  32.730  53.803  0.00  0.00     0.057 A 
ATOM      3  C   UNL d   1      53.879  33.076  54.546  0.00  0.00     0.214 A 
ATOM      4  C   UNL d   1      54.563  33.480  54.744  0.00  0.00     0.120 A 
ATOM      5  O   UNL d   1      53.275  33.012  55.096  0.00  0.00    -0.285 OA
ATOM      6  N   UNL d   1      54.644  33.815  55.473  0.00  0.00    -0.241 NA
ATOM      7  C   UNL d   1      55.172  33.545  54.190  0.00  0.00     0.021 A 
ATOM      8  C   UNL d   1      55.330  34.221  55.672  0.00  0.00     0.099 A 
ATOM      9  C   UNL d   1      55.939  34.285  55.118  0.00  0.00     0.021 A 
ATOM     10  C   UNL d   1      55.856  33.942  54.370  0.00  0.00     0.003 A 
ATOM     11  C   UNL d   1      55.090  33.203  53.444  0.00  0.00     0.002 A 
ATOM     12  C   UNL d   1      54.394  32.794  53.249  0.00  0.00     0.005 A 
ENDBRANCH   1   2
BRANCH   1  13
ATOM     13  N   UNL d   1      53.079  31.500  53.671  0.00  0.00    -0.301 N 
ATOM     14  C   UNL d   1      53.136  31.016  53.000  0.00  0.00     0.100 A 
ATOM     15  C   UNL d   1      53.125  30.200  53.063  0.00  0.00     0.100 A 
ATOM     16  N   UNL d   1      53.054  29.850  53.828  0.00  0.00    -0.297 N 
ATOM     17  C   UNL d   1      52.997  30.316  54.497  0.00  0.00     0.100 A 
ATOM     18  C   UNL d   1      53.010  31.152  54.417  0.00  0.00     0.100 A 
BRANCH  16  19
ATOM     19  C   UNL d   1      53.042  29.032  53.905  0.00  0.00     0.126 C 
BRANCH  19  20
ATOM     20  C   UNL d   1      53.382  28.672  54.548  0.00  0.00     0.253 C 
ATOM     21  O   UNL d   1      53.407  27.848  54.606  0.00  0.00    -0.281 OA
ENDBRANCH  19  20
ENDBRANCH  16  19
ENDBRANCH   1  13
BRANCH   1  22
ATOM     22  C   UNL d   1      52.441  32.722  53.317  0.00  0.00     0.046 A 
ATOM     23  S   UNL d   1      52.419  33.014  52.552  0.00  0.00    -0.085 SA
ATOM     24  C   UNL d   1      51.713  33.381  52.453  0.00  0.00     0.035 A 
ATOM     25  C   UNL d   1      51.282  33.327  53.150  0.00  0.00     0.007 A 
ATOM     26  C   UNL d   1      51.729  32.917  53.692  0.00  0.00     0.009 A 
ENDBRANCH   1  22
TORSDOF 5
ENDMDL
