MODEL 1
REMARK VINA RESULT:      -6.0      0.000      0.000
REMARK  3 active torsions:
REMARK  status: ('A' for Active; 'I' for Inactive)
REMARK    1  A    between atoms: C_6  and  C_2 
REMARK    2  A    between atoms: C_7  and  C_6 
REMARK    3  A    between atoms: C_8  and  C_7 
ROOT
ATOM      1  N   UNL d   1      58.511   0.455  30.502  0.00  0.00    -0.225 NA
ATOM      2  C   UNL d   1      57.900  -0.130  30.565  0.00  0.00     0.163 A 
ATOM      3  N   UNL d   1      58.023  -0.683  29.969  0.00  0.00    -0.225 NA
ATOM      4  C   UNL d   1      58.982   0.247  29.878  0.00  0.00     0.101 A 
ATOM      5  C   UNL d   1      58.695  -0.472  29.522  0.00  0.00     0.101 A 
ATOM      6  C   UNL d   1      59.676   0.600  29.534  0.00  0.00     0.021 A 
ATOM      7  C   UNL d   1      59.069  -0.816  28.871  0.00  0.00     0.021 A 
ATOM      8  C   UNL d   1      59.719  -0.464  28.567  0.00  0.00     0.002 A 
ATOM      9  C   UNL d   1      60.018   0.233  28.893  0.00  0.00     0.002 A 
ENDROOT
BRANCH   2  10
ATOM     10  C   UNL d   1      57.398   0.052  31.195  0.00  0.00     0.039 C 
BRANCH  10  11
ATOM     11  C   UNL d   1      57.008  -0.550  31.588  0.00  0.00     0.003 C 
BRANCH  11  12
ATOM     12  C   UNL d   1      56.471  -0.365  32.190  0.00  0.00     0.000 A 
ATOM     13  C   UNL d   1      56.290   0.420  32.369  0.00  0.00     0.001 A 
ATOM     14  C   UNL d   1      55.754   0.575  32.972  0.00  0.00     0.011 A 
ATOM     15  C   UNL d   1      55.403  -0.025  33.392  0.00  0.00     0.058 A 
ATOM     16  C   UNL d   1      55.586  -0.809  33.211  0.00  0.00     0.011 A 
ATOM     17 CL   UNL d   1      54.864   0.160  33.997  0.00  0.00    -0.082 Cl
ATOM     18  C   UNL d   1      56.119  -0.969  32.611  0.00  0.00     0.001 A 
ENDBRANCH  11  12
ENDBRANCH  10  11
ENDBRANCH   2  10
TORSDOF 3
ENDMDL
MODEL 2
REMARK VINA RESULT:      -5.6      2.051      4.740
REMARK  3 active torsions:
REMARK  status: ('A' for Active; 'I' for Inactive)
REMARK    1  A    between atoms: C_6  and  C_2 
REMARK    2  A    between atoms: C_7  and  C_6 
REMARK    3  A    between atoms: C_8  and  C_7 
ROOT
ATOM      1  N   UNL d   1      56.897  -0.847  31.750  0.00  0.00    -0.225 NA
ATOM      2  C   UNL d   1      57.176  -0.103  31.454  0.00  0.00     0.163 A 
ATOM      3  N   UNL d   1      56.795   0.491  31.876  0.00  0.00    -0.225 NA
ATOM      4  C   UNL d   1      56.362  -0.691  32.336  0.00  0.00     0.101 A 
ATOM      5  C   UNL d   1      56.278   0.152  32.437  0.00  0.00     0.101 A 
ATOM      6  C   UNL d   1      55.894  -1.190  32.842  0.00  0.00     0.021 A 
ATOM      7  C   UNL d   1      55.767   0.475  32.998  0.00  0.00     0.021 A 
ATOM      8  C   UNL d   1      55.339  -0.016  33.461  0.00  0.00     0.002 A 
ATOM      9  C   UNL d   1      55.401  -0.836  33.384  0.00  0.00     0.002 A 
ENDROOT
BRANCH   2  10
ATOM     10  C   UNL d   1      57.727  -0.227  30.851  0.00  0.00     0.039 C 
BRANCH  10  11
ATOM     11  C   UNL d   1      57.996   0.409  30.413  0.00  0.00     0.003 C 
BRANCH  11  12
ATOM     12  C   UNL d   1      58.653   0.315  29.917  0.00  0.00     0.000 A 
ATOM     13  C   UNL d   1      58.581  -0.061  29.186  0.00  0.00     0.001 A 
ATOM     14  C   UNL d   1      59.248  -0.140  28.715  0.00  0.00     0.011 A 
ATOM     15  C   UNL d   1      59.972   0.144  28.952  0.00  0.00     0.058 A 
ATOM     16  C   UNL d   1      60.041   0.519  29.683  0.00  0.00     0.011 A 
ATOM     17 CL   UNL d   1      60.631   0.051  28.455  0.00  0.00    -0.082 Cl
ATOM     18  C   UNL d   1      59.378   0.601  30.158  0.00  0.00     0.001 A 
ENDBRANCH  11  12
ENDBRANCH  10  11
ENDBRANCH   2  10
TORSDOF 3
ENDMDL
MODEL 3
REMARK VINA RESULT:      -3.6      2.036      4.654
REMARK  3 active torsions:
REMARK  status: ('A' for Active; 'I' for Inactive)
REMARK    1  A    between atoms: C_6  and  C_2 
REMARK    2  A    between atoms: C_7  and  C_6 
REMARK    3  A    between atoms: C_8  and  C_7 
ROOT
ATOM      1  N   UNL d   1      56.549   0.667  32.592  0.00  0.00    -0.225 NA
ATOM      2  C   UNL d   1      56.924   0.058  32.137  0.00  0.00     0.163 A 
ATOM      3  N   UNL d   1      56.581  -0.659  32.349  0.00  0.00    -0.225 NA
ATOM      4  C   UNL d   1      55.996   0.311  33.064  0.00  0.00     0.101 A 
ATOM      5  C   UNL d   1      55.995  -0.530  32.930  0.00  0.00     0.101 A 
ATOM      6  C   UNL d   1      55.445   0.613  33.638  0.00  0.00     0.021 A 
ATOM      7  C   UNL d   1      55.485  -1.036  33.336  0.00  0.00     0.021 A 
ATOM      8  C   UNL d   1      54.977  -0.728  33.871  0.00  0.00     0.002 A 
ATOM      9  C   UNL d   1      54.957   0.085  34.019  0.00  0.00     0.002 A 
ENDROOT
BRANCH   2  10
ATOM     10  C   UNL d   1      57.497   0.387  31.642  0.00  0.00     0.039 C 
BRANCH  10  11
ATOM     11  C   UNL d   1      57.404   0.343  30.831  0.00  0.00     0.003 C 
BRANCH  11  12
ATOM     12  C   UNL d   1      58.066   0.224  30.348  0.00  0.00     0.000 A 
ATOM     13  C   UNL d   1      58.747   0.682  30.443  0.00  0.00     0.001 A 
ATOM     14  C   UNL d   1      59.389   0.543  29.951  0.00  0.00     0.011 A 
ATOM     15  C   UNL d   1      59.367  -0.033  29.378  0.00  0.00     0.058 A 
ATOM     16  C   UNL d   1      58.686  -0.489  29.285  0.00  0.00     0.011 A 
ATOM     17 CL   UNL d   1      60.032  -0.153  28.893  0.00  0.00    -0.082 Cl
ATOM     18  C   UNL d   1      58.043  -0.354  29.773  0.00  0.00     0.001 A 
ENDBRANCH  11  12
ENDBRANCH  10  11
ENDBRANCH   2  10
TORSDOF 3
ENDMDL
