MODEL 1
REMARK VINA RESULT:      -8.0      0.000      0.000
REMARK  4 active torsions:
REMARK  status: ('A' for Active; 'I' for Inactive)
REMARK    1  A    between atoms: N_3  and  C_1 
REMARK    2  A    between atoms: N_5  and  N_2 
REMARK    3  A    between atoms: S_4  and  N_5 
REMARK    4  A    between atoms: C_13  and  S_4 
ROOT
ATOM      1  C   UNL d   1     -50.009  12.744  23.007  0.00  0.00     0.771 A 
ATOM      2  N   UNL d   1     -49.284  12.559  23.340  0.00  0.00    -0.026 N 
ATOM      3  N   UNL d   1     -50.401  12.035  22.852  0.00  0.00     0.048 NA
ATOM      4  C   UNL d   1     -49.220  11.748  23.394  0.00  0.00     0.204 A 
ATOM      5  N   UNL d   1     -49.912  11.416  23.092  0.00  0.00    -0.112 NA
ATOM      6  C   UNL d   1     -48.580  11.324  23.695  0.00  0.00     0.044 C 
ENDROOT
BRANCH   2   7
ATOM      7  N   UNL d   1     -48.707  13.093  23.584  0.00  0.00    -0.056 NA
BRANCH   7   8
ATOM      8  S   UNL d   1     -47.959  13.093  23.244  0.00  0.00     0.301 S 
ATOM      9  O   UNL d   1     -48.150  12.437  22.798  0.00  0.00    -0.197 OA
ATOM     10  O   UNL d   1     -47.770  13.758  23.698  0.00  0.00    -0.197 OA
BRANCH   8  11
ATOM     11  C   UNL d   1     -47.203  13.109  22.914  0.00  0.00     0.107 A 
ATOM     12  C   UNL d   1     -47.093  13.442  22.168  0.00  0.00     0.015 A 
ATOM     13  C   UNL d   1     -46.337  13.460  21.834  0.00  0.00     0.030 A 
ATOM     14  C   UNL d   1     -45.696  13.144  22.253  0.00  0.00     0.140 A 
ATOM     15  C   UNL d   1     -45.805  12.811  22.999  0.00  0.00     0.030 A 
ATOM     16  F   UNL d   1     -44.947  13.164  21.919  0.00  0.00    -0.204 F 
ATOM     17  C   UNL d   1     -46.561  12.793  23.333  0.00  0.00     0.015 A 
ENDBRANCH   8  11
ENDBRANCH   7   8
ENDBRANCH   2   7
BRANCH   1  18
ATOM     18  N   UNL d   1     -50.291  13.505  22.857  0.00  0.00    -0.056 N 
ATOM     19  N   UNL d   1     -50.326  14.127  23.397  0.00  0.00    -0.150 NA
ATOM     20  C   UNL d   1     -50.645  14.782  23.013  0.00  0.00     0.103 A 
ATOM     21  C   UNL d   1     -50.779  15.521  23.344  0.00  0.00     0.022 C 
ATOM     22  C   UNL d   1     -50.808  14.567  22.233  0.00  0.00     0.041 A 
ATOM     23  C   UNL d   1     -50.586  13.774  22.143  0.00  0.00     0.102 A 
ATOM     24  C   UNL d   1     -50.654  13.335  21.449  0.00  0.00     0.021 C 
ENDBRANCH   1  18
TORSDOF 4
ENDMDL
MODEL 2
REMARK VINA RESULT:      -7.9      2.305      4.451
REMARK  4 active torsions:
REMARK  status: ('A' for Active; 'I' for Inactive)
REMARK    1  A    between atoms: N_3  and  C_1 
REMARK    2  A    between atoms: N_5  and  N_2 
REMARK    3  A    between atoms: S_4  and  N_5 
REMARK    4  A    between atoms: C_13  and  S_4 
ROOT
ATOM      1  C   UNL d   1     -46.217  13.370  22.910  0.00  0.00     0.771 A 
ATOM      2  N   UNL d   1     -46.962  13.433  22.579  0.00  0.00    -0.026 N 
ATOM      3  N   UNL d   1     -46.021  14.107  23.228  0.00  0.00     0.048 NA
ATOM      4  C   UNL d   1     -47.233  14.195  22.684  0.00  0.00     0.204 A 
ATOM      5  N   UNL d   1     -46.652  14.619  23.087  0.00  0.00    -0.112 NA
ATOM      6  C   UNL d   1     -47.958  14.499  22.435  0.00  0.00     0.044 C 
ENDROOT
BRANCH   2   7
ATOM      7  N   UNL d   1     -47.381  12.834  22.199  0.00  0.00    -0.056 NA
BRANCH   7   8
ATOM      8  S   UNL d   1     -48.112  12.586  22.478  0.00  0.00     0.301 S 
ATOM      9  O   UNL d   1     -47.931  12.856  23.226  0.00  0.00    -0.197 OA
ATOM     10  O   UNL d   1     -48.292  12.314  21.718  0.00  0.00    -0.197 OA
BRANCH   8  11
ATOM     11  C   UNL d   1     -48.852  12.330  22.740  0.00  0.00     0.107 A 
ATOM     12  C   UNL d   1     -48.906  11.885  23.431  0.00  0.00     0.015 A 
ATOM     13  C   UNL d   1     -49.645  11.627  23.696  0.00  0.00     0.030 A 
ATOM     14  C   UNL d   1     -50.326  11.817  23.264  0.00  0.00     0.140 A 
ATOM     15  C   UNL d   1     -50.272  12.262  22.572  0.00  0.00     0.030 A 
ATOM     16  F   UNL d   1     -51.057  11.559  23.529  0.00  0.00    -0.204 F 
ATOM     17  C   UNL d   1     -49.533  12.521  22.306  0.00  0.00     0.015 A 
ENDBRANCH   8  11
ENDBRANCH   7   8
ENDBRANCH   2   7
BRANCH   1  18
ATOM     18  N   UNL d   1     -45.749  12.690  22.923  0.00  0.00    -0.056 N 
ATOM     19  N   UNL d   1     -45.848  12.041  23.421  0.00  0.00    -0.150 NA
ATOM     20  C   UNL d   1     -45.260  11.491  23.245  0.00  0.00     0.103 A 
ATOM     21  C   UNL d   1     -45.152  10.763  23.608  0.00  0.00     0.022 C 
ATOM     22  C   UNL d   1     -44.796  11.799  22.637  0.00  0.00     0.041 A 
ATOM     23  C   UNL d   1     -45.104  12.543  22.442  0.00  0.00     0.102 A 
ATOM     24  C   UNL d   1     -44.808  13.046  21.860  0.00  0.00     0.021 C 
ENDBRANCH   1  18
TORSDOF 4
ENDMDL
MODEL 3
REMARK VINA RESULT:      -7.7      1.114      2.075
REMARK  4 active torsions:
REMARK  status: ('A' for Active; 'I' for Inactive)
REMARK    1  A    between atoms: N_3  and  C_1 
REMARK    2  A    between atoms: N_5  and  N_2 
REMARK    3  A    between atoms: S_4  and  N_5 
REMARK    4  A    between atoms: C_13  and  S_4 
ROOT
ATOM      1  C   UNL d   1     -49.845  14.124  22.510  0.00  0.00     0.771 A 
ATOM      2  N   UNL d   1     -49.135  14.403  22.805  0.00  0.00    -0.026 N 
ATOM      3  N   UNL d   1     -50.210  14.745  22.107  0.00  0.00     0.048 NA
ATOM      4  C   UNL d   1     -49.051  15.185  22.592  0.00  0.00     0.204 A 
ATOM      5  N   UNL d   1     -49.717  15.404  22.157  0.00  0.00    -0.112 NA
ATOM      6  C   UNL d   1     -48.416  15.679  22.773  0.00  0.00     0.044 C 
ENDROOT
BRANCH   2   7
ATOM      7  N   UNL d   1     -48.586  13.974  23.245  0.00  0.00    -0.056 NA
BRANCH   7   8
ATOM      8  S   UNL d   1     -47.830  13.832  22.956  0.00  0.00     0.301 S 
ATOM      9  O   UNL d   1     -47.997  14.254  22.279  0.00  0.00    -0.197 OA
ATOM     10  O   UNL d   1     -47.665  13.405  23.645  0.00  0.00    -0.197 OA
BRANCH   8  11
ATOM     11  C   UNL d   1     -47.067  13.679  22.684  0.00  0.00     0.107 A 
ATOM     12  C   UNL d   1     -46.937  13.044  22.175  0.00  0.00     0.015 A 
ATOM     13  C   UNL d   1     -46.173  12.888  21.900  0.00  0.00     0.030 A 
ATOM     14  C   UNL d   1     -45.544  13.370  22.139  0.00  0.00     0.140 A 
ATOM     15  C   UNL d   1     -45.672  14.005  22.649  0.00  0.00     0.030 A 
ATOM     16  F   UNL d   1     -44.788  13.212  21.865  0.00  0.00    -0.204 F 
ATOM     17  C   UNL d   1     -46.436  14.162  22.924  0.00  0.00     0.015 A 
ENDBRANCH   8  11
ENDBRANCH   7   8
ENDBRANCH   2   7
BRANCH   1  18
ATOM     18  N   UNL d   1     -50.141  13.359  22.603  0.00  0.00    -0.056 N 
ATOM     19  N   UNL d   1     -50.209  12.946  23.313  0.00  0.00    -0.150 NA
ATOM     20  C   UNL d   1     -50.530  12.205  23.150  0.00  0.00     0.103 A 
ATOM     21  C   UNL d   1     -50.692  11.615  23.696  0.00  0.00     0.022 C 
ATOM     22  C   UNL d   1     -50.661  12.157  22.337  0.00  0.00     0.041 A 
ATOM     23  C   UNL d   1     -50.418  12.876  22.004  0.00  0.00     0.102 A 
ATOM     24  C   UNL d   1     -50.451  13.067  21.203  0.00  0.00     0.021 C 
ENDBRANCH   1  18
TORSDOF 4
ENDMDL
MODEL 4
REMARK VINA RESULT:      -6.7      9.526     10.712
REMARK  4 active torsions:
REMARK  status: ('A' for Active; 'I' for Inactive)
REMARK    1  A    between atoms: N_3  and  C_1 
REMARK    2  A    between atoms: N_5  and  N_2 
REMARK    3  A    between atoms: S_4  and  N_5 
REMARK    4  A    between atoms: C_13  and  S_4 
ROOT
ATOM      1  C   UNL d   1     -39.794  14.083  17.703  0.00  0.00     0.771 A 
ATOM      2  N   UNL d   1     -39.764  14.682  18.259  0.00  0.00    -0.026 N 
ATOM      3  N   UNL d   1     -40.551  14.088  17.372  0.00  0.00     0.048 NA
ATOM      4  C   UNL d   1     -40.486  15.059  18.280  0.00  0.00     0.204 A 
ATOM      5  N   UNL d   1     -40.981  14.693  17.731  0.00  0.00    -0.112 NA
ATOM      6  C   UNL d   1     -40.697  15.694  18.763  0.00  0.00     0.044 C 
ENDROOT
BRANCH   2   7
ATOM      7  N   UNL d   1     -39.116  14.882  18.727  0.00  0.00    -0.056 NA
BRANCH   7   8
ATOM      8  S   UNL d   1     -39.192  14.972  19.540  0.00  0.00     0.301 S 
ATOM      9  O   UNL d   1     -39.453  14.202  19.611  0.00  0.00    -0.197 OA
ATOM     10  O   UNL d   1     -38.928  15.751  19.463  0.00  0.00    -0.197 OA
BRANCH   8  11
ATOM     11  C   UNL d   1     -39.262  15.081  20.355  0.00  0.00     0.107 A 
ATOM     12  C   UNL d   1     -39.062  15.809  20.685  0.00  0.00     0.015 A 
ATOM     13  C   UNL d   1     -39.131  15.922  21.501  0.00  0.00     0.030 A 
ATOM     14  C   UNL d   1     -39.402  15.302  21.980  0.00  0.00     0.140 A 
ATOM     15  C   UNL d   1     -39.602  14.574  21.650  0.00  0.00     0.030 A 
ATOM     16  F   UNL d   1     -39.469  15.418  22.789  0.00  0.00    -0.204 F 
ATOM     17  C   UNL d   1     -39.533  14.460  20.834  0.00  0.00     0.015 A 
ENDBRANCH   8  11
ENDBRANCH   7   8
ENDBRANCH   2   7
BRANCH   1  18
ATOM     18  N   UNL d   1     -39.178  13.570  17.510  0.00  0.00    -0.056 N 
ATOM     19  N   UNL d   1     -38.970  12.884  17.918  0.00  0.00    -0.150 NA
ATOM     20  C   UNL d   1     -38.325  12.543  17.535  0.00  0.00     0.103 A 
ATOM     21  C   UNL d   1     -37.940  11.853  17.754  0.00  0.00     0.022 C 
ATOM     22  C   UNL d   1     -38.132  13.018  16.888  0.00  0.00     0.041 A 
ATOM     23  C   UNL d   1     -38.664  13.653  16.879  0.00  0.00     0.102 A 
ATOM     24  C   UNL d   1     -38.671  14.262  16.324  0.00  0.00     0.021 C 
ENDBRANCH   1  18
TORSDOF 4
ENDMDL
MODEL 5
REMARK VINA RESULT:      -6.2      1.042      2.088
REMARK  4 active torsions:
REMARK  status: ('A' for Active; 'I' for Inactive)
REMARK    1  A    between atoms: N_3  and  C_1 
REMARK    2  A    between atoms: N_5  and  N_2 
REMARK    3  A    between atoms: S_4  and  N_5 
REMARK    4  A    between atoms: C_13  and  S_4 
ROOT
ATOM      1  C   UNL d   1     -49.565  13.564  22.344  0.00  0.00     0.771 A 
ATOM      2  N   UNL d   1     -48.811  13.856  22.465  0.00  0.00    -0.026 N 
ATOM      3  N   UNL d   1     -49.859  13.910  21.654  0.00  0.00     0.048 NA
ATOM      4  C   UNL d   1     -48.630  14.375  21.864  0.00  0.00     0.204 A 
ATOM      5  N   UNL d   1     -49.279  14.413  21.356  0.00  0.00    -0.112 NA
ATOM      6  C   UNL d   1     -47.927  14.795  21.770  0.00  0.00     0.044 C 
ENDROOT
BRANCH   2   7
ATOM      7  N   UNL d   1     -48.306  13.664  23.087  0.00  0.00    -0.056 NA
BRANCH   7   8
ATOM      8  S   UNL d   1     -47.541  13.398  22.945  0.00  0.00     0.301 S 
ATOM      9  O   UNL d   1     -47.828  12.777  22.502  0.00  0.00    -0.197 OA
ATOM     10  O   UNL d   1     -47.256  14.030  23.396  0.00  0.00    -0.197 OA
BRANCH   8  11
ATOM     11  C   UNL d   1     -46.767  13.148  22.815  0.00  0.00     0.107 A 
ATOM     12  C   UNL d   1     -46.528  12.407  23.087  0.00  0.00     0.015 A 
ATOM     13  C   UNL d   1     -45.752  12.153  22.958  0.00  0.00     0.030 A 
ATOM     14  C   UNL d   1     -45.220  12.645  22.555  0.00  0.00     0.140 A 
ATOM     15  C   UNL d   1     -45.458  13.385  22.282  0.00  0.00     0.030 A 
ATOM     16  F   UNL d   1     -44.452  12.390  22.428  0.00  0.00    -0.204 F 
ATOM     17  C   UNL d   1     -46.234  13.640  22.411  0.00  0.00     0.015 A 
ENDBRANCH   8  11
ENDBRANCH   7   8
ENDBRANCH   2   7
BRANCH   1  18
ATOM     18  N   UNL d   1     -49.958  13.022  22.827  0.00  0.00    -0.056 N 
ATOM     19  N   UNL d   1     -49.776  12.222  22.909  0.00  0.00    -0.150 NA
ATOM     20  C   UNL d   1     -50.307  11.892  23.446  0.00  0.00     0.103 A 
ATOM     21  C   UNL d   1     -50.326  11.109  23.690  0.00  0.00     0.022 C 
ATOM     22  C   UNL d   1     -50.819  12.488  23.697  0.00  0.00     0.041 A 
ATOM     23  C   UNL d   1     -50.597  13.185  23.310  0.00  0.00     0.102 A 
ATOM     24  C   UNL d   1     -50.963  13.919  23.400  0.00  0.00     0.021 C 
ENDBRANCH   1  18
TORSDOF 4
ENDMDL
MODEL 6
REMARK VINA RESULT:      -5.9      9.201     10.357
REMARK  4 active torsions:
REMARK  status: ('A' for Active; 'I' for Inactive)
REMARK    1  A    between atoms: N_3  and  C_1 
REMARK    2  A    between atoms: N_5  and  N_2 
REMARK    3  A    between atoms: S_4  and  N_5 
REMARK    4  A    between atoms: C_13  and  S_4 
ROOT
ATOM      1  C   UNL d   1     -40.116  15.075  20.870  0.00  0.00     0.771 A 
ATOM      2  N   UNL d   1     -39.938  15.321  20.111  0.00  0.00    -0.026 N 
ATOM      3  N   UNL d   1     -40.920  15.217  20.997  0.00  0.00     0.048 NA
ATOM      4  C   UNL d   1     -40.615  15.613  19.764  0.00  0.00     0.204 A 
ATOM      5  N   UNL d   1     -41.229  15.551  20.310  0.00  0.00    -0.112 NA
ATOM      6  C   UNL d   1     -40.684  15.919  19.001  0.00  0.00     0.044 C 
ENDROOT
BRANCH   2   7
ATOM      7  N   UNL d   1     -39.200  15.285  19.746  0.00  0.00    -0.056 NA
BRANCH   7   8
ATOM      8  S   UNL d   1     -39.102  14.898  19.028  0.00  0.00     0.301 S 
ATOM      9  O   UNL d   1     -39.695  14.372  19.217  0.00  0.00    -0.197 OA
ATOM     10  O   UNL d   1     -38.501  15.434  18.840  0.00  0.00    -0.197 OA
BRANCH   8  11
ATOM     11  C   UNL d   1     -38.988  14.523  18.302  0.00  0.00     0.107 A 
ATOM     12  C   UNL d   1     -39.037  13.701  18.257  0.00  0.00     0.015 A 
ATOM     13  C   UNL d   1     -38.923  13.322  17.532  0.00  0.00     0.030 A 
ATOM     14  C   UNL d   1     -38.761  13.771  16.855  0.00  0.00     0.140 A 
ATOM     15  C   UNL d   1     -38.712  14.593  16.898  0.00  0.00     0.030 A 
ATOM     16  F   UNL d   1     -38.649  13.392  16.137  0.00  0.00    -0.204 F 
ATOM     17  C   UNL d   1     -38.826  14.973  17.624  0.00  0.00     0.015 A 
ENDBRANCH   8  11
ENDBRANCH   7   8
ENDBRANCH   2   7
BRANCH   1  18
ATOM     18  N   UNL d   1     -39.586  14.744  21.409  0.00  0.00    -0.056 N 
ATOM     19  N   UNL d   1     -39.312  13.967  21.408  0.00  0.00    -0.150 NA
ATOM     20  C   UNL d   1     -38.793  13.876  22.042  0.00  0.00     0.103 A 
ATOM     21  C   UNL d   1     -38.393  13.190  22.248  0.00  0.00     0.022 C 
ATOM     22  C   UNL d   1     -38.744  14.599  22.437  0.00  0.00     0.041 A 
ATOM     23  C   UNL d   1     -39.238  15.133  22.039  0.00  0.00     0.102 A 
ATOM     24  C   UNL d   1     -39.355  15.921  22.248  0.00  0.00     0.021 C 
ENDBRANCH   1  18
TORSDOF 4
ENDMDL
MODEL 7
REMARK VINA RESULT:      -5.4      8.930     10.702
REMARK  4 active torsions:
REMARK  status: ('A' for Active; 'I' for Inactive)
REMARK    1  A    between atoms: N_3  and  C_1 
REMARK    2  A    between atoms: N_5  and  N_2 
REMARK    3  A    between atoms: S_4  and  N_5 
REMARK    4  A    between atoms: C_13  and  S_4 
ROOT
ATOM      1  C   UNL d   1     -39.012  14.303  20.384  0.00  0.00     0.771 A 
ATOM      2  N   UNL d   1     -38.957  13.942  19.652  0.00  0.00    -0.026 N 
ATOM      3  N   UNL d   1     -38.380  14.036  20.843  0.00  0.00     0.048 NA
ATOM      4  C   UNL d   1     -38.303  13.456  19.648  0.00  0.00     0.204 A 
ATOM      5  N   UNL d   1     -37.940  13.510  20.386  0.00  0.00    -0.112 NA
ATOM      6  C   UNL d   1     -38.041  12.988  19.021  0.00  0.00     0.044 C 
ENDROOT
BRANCH   2   7
ATOM      7  N   UNL d   1     -39.471  14.044  19.016  0.00  0.00    -0.056 NA
BRANCH   7   8
ATOM      8  S   UNL d   1     -39.188  14.244  18.271  0.00  0.00     0.301 S 
ATOM      9  O   UNL d   1     -38.715  14.825  18.595  0.00  0.00    -0.197 OA
ATOM     10  O   UNL d   1     -39.669  13.654  17.948  0.00  0.00    -0.197 OA
BRANCH   8  11
ATOM     11  C   UNL d   1     -38.916  14.430  17.515  0.00  0.00     0.107 A 
ATOM     12  C   UNL d   1     -38.925  13.853  16.927  0.00  0.00     0.015 A 
ATOM     13  C   UNL d   1     -38.653  14.036  16.168  0.00  0.00     0.030 A 
ATOM     14  C   UNL d   1     -38.373  14.799  16.005  0.00  0.00     0.140 A 
ATOM     15  C   UNL d   1     -38.364  15.376  16.592  0.00  0.00     0.030 A 
ATOM     16  F   UNL d   1     -38.105  14.977  15.251  0.00  0.00    -0.204 F 
ATOM     17  C   UNL d   1     -38.636  15.194  17.352  0.00  0.00     0.015 A 
ENDBRANCH   8  11
ENDBRANCH   7   8
ENDBRANCH   2   7
BRANCH   1  18
ATOM     18  N   UNL d   1     -39.597  14.837  20.617  0.00  0.00    -0.056 N 
ATOM     19  N   UNL d   1     -40.410  14.739  20.526  0.00  0.00    -0.150 NA
ATOM     20  C   UNL d   1     -40.785  15.405  20.834  0.00  0.00     0.103 A 
ATOM     21  C   UNL d   1     -41.594  15.539  20.858  0.00  0.00     0.022 C 
ATOM     22  C   UNL d   1     -40.204  15.917  21.118  0.00  0.00     0.041 A 
ATOM     23  C   UNL d   1     -39.470  15.559  20.980  0.00  0.00     0.102 A 
ATOM     24  C   UNL d   1     -38.737  15.881  21.177  0.00  0.00     0.021 C 
ENDBRANCH   1  18
TORSDOF 4
ENDMDL
MODEL 8
REMARK VINA RESULT:      -5.0      1.862      3.909
REMARK  4 active torsions:
REMARK  status: ('A' for Active; 'I' for Inactive)
REMARK    1  A    between atoms: N_3  and  C_1 
REMARK    2  A    between atoms: N_5  and  N_2 
REMARK    3  A    between atoms: S_4  and  N_5 
REMARK    4  A    between atoms: C_13  and  S_4 
ROOT
ATOM      1  C   UNL d   1     -47.214  11.833  23.200  0.00  0.00     0.771 A 
ATOM      2  N   UNL d   1     -47.886  12.290  23.293  0.00  0.00    -0.026 N 
ATOM      3  N   UNL d   1     -47.421  11.049  23.359  0.00  0.00     0.048 NA
ATOM      4  C   UNL d   1     -48.506  11.806  23.506  0.00  0.00     0.204 A 
ATOM      5  N   UNL d   1     -48.223  11.032  23.548  0.00  0.00    -0.112 NA
ATOM      6  C   UNL d   1     -49.283  12.038  23.656  0.00  0.00     0.044 C 
ENDROOT
BRANCH   2   7
ATOM      7  N   UNL d   1     -47.940  13.106  23.192  0.00  0.00    -0.056 NA
BRANCH   7   8
ATOM      8  S   UNL d   1     -48.569  13.440  22.782  0.00  0.00     0.301 S 
ATOM      9  O   UNL d   1     -48.805  13.843  23.451  0.00  0.00    -0.197 OA
ATOM     10  O   UNL d   1     -48.326  13.030  22.107  0.00  0.00    -0.197 OA
BRANCH   8  11
ATOM     11  C   UNL d   1     -49.195  13.765  22.354  0.00  0.00     0.107 A 
ATOM     12  C   UNL d   1     -49.509  14.492  22.583  0.00  0.00     0.015 A 
ATOM     13  C   UNL d   1     -50.136  14.820  22.155  0.00  0.00     0.030 A 
ATOM     14  C   UNL d   1     -50.443  14.417  21.500  0.00  0.00     0.140 A 
ATOM     15  C   UNL d   1     -50.129  13.690  21.270  0.00  0.00     0.030 A 
ATOM     16  F   UNL d   1     -51.064  14.746  21.079  0.00  0.00    -0.204 F 
ATOM     17  C   UNL d   1     -49.501  13.361  21.697  0.00  0.00     0.015 A 
ENDBRANCH   8  11
ENDBRANCH   7   8
ENDBRANCH   2   7
BRANCH   1  18
ATOM     18  N   UNL d   1     -46.466  12.109  22.986  0.00  0.00    -0.056 N 
ATOM     19  N   UNL d   1     -46.306  12.779  22.534  0.00  0.00    -0.150 NA
ATOM     20  C   UNL d   1     -45.489  12.847  22.456  0.00  0.00     0.103 A 
ATOM     21  C   UNL d   1     -45.087  13.435  22.048  0.00  0.00     0.022 C 
ATOM     22  C   UNL d   1     -45.141  12.219  22.861  0.00  0.00     0.041 A 
ATOM     23  C   UNL d   1     -45.752  11.765  23.187  0.00  0.00     0.102 A 
ATOM     24  C   UNL d   1     -45.652  11.082  23.638  0.00  0.00     0.021 C 
ENDBRANCH   1  18
TORSDOF 4
ENDMDL
