MODEL 1
REMARK VINA RESULT:      68.0      0.000      0.000
REMARK  7 active torsions:
REMARK  status: ('A' for Active; 'I' for Inactive)
REMARK    1  A    between atoms: C_19  and  N_5 
REMARK    2  A    between atoms: C_12  and  C_6 
REMARK       I    between atoms: N_20  and  C_12 
REMARK    3  A    between atoms: C_21  and  C_19 
REMARK    4  A    between atoms: C_26  and  N_20 
REMARK    5  A    between atoms: C_23  and  C_26 
REMARK    6  A    between atoms: C_27  and  C_23 
REMARK    7  A    between atoms: O_24  and  C_27 
ROOT
ATOM      1  C   UNL d   1     -58.426 -98.962 -44.858  0.00  0.00     0.155 A 
ATOM      2  C   UNL d   1     -57.736 -99.068 -45.297  0.00  0.00     0.091 A 
ATOM      3  N   UNL d   1     -59.147 -98.858 -45.240  0.00  0.00    -0.210 NA
ATOM      4  N   UNL d   1     -58.478 -98.967 -46.510  0.00  0.00    -0.258 N 
ATOM      5  N   UNL d   1     -58.395 -98.961 -44.034  0.00  0.00    -0.274 N 
ATOM      6  C   UNL d   1     -56.984 -99.170 -44.076  0.00  0.00     0.094 A 
ATOM      7  C   UNL d   1     -57.756 -99.071 -46.126  0.00  0.00     0.269 A 
ATOM      8  C   UNL d   1     -57.677 -99.065 -43.641  0.00  0.00     0.175 A 
ATOM      9  C   UNL d   1     -59.180 -98.860 -46.067  0.00  0.00     0.152 A 
ATOM     10  C   UNL d   1     -57.005 -99.174 -44.906  0.00  0.00     0.016 A 
ATOM     11  C   UNL d   1     -58.511 -98.968 -47.336  0.00  0.00     0.084 A 
ATOM     12  C   UNL d   1     -59.898 -98.756 -46.453  0.00  0.00     0.038 A 
ATOM     13  N   UNL d   1     -57.646 -99.063 -42.812  0.00  0.00    -0.128 N 
ATOM     14  C   UNL d   1     -59.233 -98.864 -47.719  0.00  0.00     0.018 A 
ATOM     15  C   UNL d   1     -59.933 -98.757 -47.273  0.00  0.00     0.005 A 
ATOM     16  O   UNL d   1     -57.062 -99.177 -46.559  0.00  0.00    -0.266 OA
ATOM     17  C   UNL d   1     -59.276 -98.864 -48.544  0.00  0.00     0.002 C 
ENDROOT
BRANCH   6  18
ATOM     18  C   UNL d   1     -56.266 -99.274 -43.691  0.00  0.00     0.282 C 
ATOM     19  O   UNL d   1     -56.042 -98.767 -43.080  0.00  0.00    -0.265 OA
ATOM     20  N   UNL d   1     -55.763 -99.887 -43.915  0.00  0.00    -0.206 NA
BRANCH  20  21
ATOM     21  C   UNL d   1     -55.040-100.001 -43.536  0.00  0.00     0.104 C 
BRANCH  21  22
ATOM     22  C   UNL d   1     -54.738-100.758 -43.418  0.00  0.00     0.047 C 
BRANCH  22  23
ATOM     23  C   UNL d   1     -54.740-101.297 -44.043  0.00  0.00     0.118 C 
BRANCH  23  24
ATOM     24  O   UNL d   1     -55.280-101.924 -44.054  0.00  0.00    -0.326 OA
ATOM     25  C   UNL d   1     -55.515-102.261 -44.769  0.00  0.00     0.181 C 
ENDBRANCH  23  24
ENDBRANCH  22  23
ENDBRANCH  21  22
ENDBRANCH  20  21
ENDBRANCH   6  18
BRANCH   5  26
ATOM     26  C   UNL d   1     -59.085 -98.855 -43.595  0.00  0.00     0.083 C 
BRANCH  26  27
ATOM     27  C   UNL d   1     -59.114 -99.078 -42.799  0.00  0.00     0.019 C 
ATOM     28  C   UNL d   1     -59.628 -99.675 -42.553  0.00  0.00     0.002 C 
ENDBRANCH  26  27
ENDBRANCH   5  26
TORSDOF 7
ENDMDL
