MODEL 1
REMARK VINA RESULT:      -1.3      0.000      0.000
REMARK  4 active torsions:
REMARK  status: ('A' for Active; 'I' for Inactive)
REMARK    1  A    between atoms: C_12  and  C_2 
REMARK    2  A    between atoms: N_9  and  C_3 
REMARK       I    between atoms: C_7  and  N_8 
REMARK    3  A    between atoms: C_10  and  C_7 
REMARK    4  A    between atoms: N_8  and  N_9 
ROOT
ATOM      1  C   UNL d   1      32.962  21.454 -22.753  0.00  0.00     0.037 A 
ATOM      2  C   UNL d   1      32.825  20.847 -22.207  0.00  0.00     0.101 A 
ATOM      3  C   UNL d   1      32.964  19.859 -23.266  0.00  0.00     0.768 A 
ATOM      4  N   UNL d   1      32.828  20.065 -22.468  0.00  0.00    -0.058 NA
ATOM      5  N   UNL d   1      33.103  20.492 -23.813  0.00  0.00    -0.058 NA
ATOM      6  C   UNL d   1      33.101  21.270 -23.561  0.00  0.00     0.101 A 
ATOM      7  C   UNL d   1      32.967  22.248 -22.531  0.00  0.00     0.010 A 
ATOM      8  C   UNL d   1      33.241  21.890 -24.120  0.00  0.00     0.020 A 
ATOM      9  C   UNL d   1      33.100  22.852 -23.060  0.00  0.00     0.035 A 
ATOM     10  C   UNL d   1      33.236  22.662 -23.851  0.00  0.00     0.008 A 
ATOM     11 BR   UNL d   1      33.100  23.670 -22.805  0.00  0.00    -0.049 Br
ENDROOT
BRANCH   3  12
ATOM     12  N   UNL d   1      32.969  19.075 -23.536  0.00  0.00     0.049 NA
BRANCH  12  13
ATOM     13  N   UNL d   1      32.786  18.451 -23.035  0.00  0.00    -0.094 NA
ATOM     14  C   UNL d   1      32.512  17.757 -23.325  0.00  0.00     0.273 C 
ATOM     15  O   UNL d   1      32.336  17.147 -22.789  0.00  0.00    -0.269 OA
BRANCH  14  16
ATOM     16  C   UNL d   1      32.407  17.653 -24.132  0.00  0.00     0.075 C 
ATOM     17  C   UNL d   1      31.557  17.646 -24.020  0.00  0.00     0.009 C 
ATOM     18  C   UNL d   1      33.233  17.662 -24.217  0.00  0.00     0.009 C 
ATOM     19  C   UNL d   1      32.304  17.549 -24.939  0.00  0.00     0.009 C 
ENDBRANCH  14  16
ENDBRANCH  12  13
ENDBRANCH   3  12
BRANCH   2  20
ATOM     20  C   UNL d   1      32.688  21.001 -21.421  0.00  0.00     0.018 A 
ATOM     21  C   UNL d   1      33.241  20.843 -20.851  0.00  0.00     0.002 A 
ATOM     22  C   UNL d   1      33.102  20.997 -20.071  0.00  0.00     0.000 A 
ATOM     23  C   UNL d   1      32.377  21.324 -19.851  0.00  0.00     0.000 A 
ATOM     24  C   UNL d   1      31.833  21.483 -20.385  0.00  0.00     0.000 A 
ATOM     25  C   UNL d   1      31.960  21.330 -21.192  0.00  0.00     0.002 A 
ENDBRANCH   2  20
TORSDOF 4
ENDMDL
MODEL 2
REMARK VINA RESULT:      -0.8      0.876      2.325
REMARK  4 active torsions:
REMARK  status: ('A' for Active; 'I' for Inactive)
REMARK    1  A    between atoms: C_12  and  C_2 
REMARK    2  A    between atoms: N_9  and  C_3 
REMARK       I    between atoms: C_7  and  N_8 
REMARK    3  A    between atoms: C_10  and  C_7 
REMARK    4  A    between atoms: N_8  and  N_9 
ROOT
ATOM      1  C   UNL d   1      33.047  21.368 -21.756  0.00  0.00     0.037 A 
ATOM      2  C   UNL d   1      32.996  21.462 -22.577  0.00  0.00     0.101 A 
ATOM      3  C   UNL d   1      32.932  20.016 -22.738  0.00  0.00     0.768 A 
ATOM      4  N   UNL d   1      32.940  20.791 -23.053  0.00  0.00    -0.058 NA
ATOM      5  N   UNL d   1      32.984  19.938 -21.896  0.00  0.00    -0.058 NA
ATOM      6  C   UNL d   1      33.041  20.600 -21.418  0.00  0.00     0.101 A 
ATOM      7  C   UNL d   1      33.105  22.014 -21.247  0.00  0.00     0.010 A 
ATOM      8  C   UNL d   1      33.093  20.504 -20.578  0.00  0.00     0.020 A 
ATOM      9  C   UNL d   1      33.155  21.934 -20.438  0.00  0.00     0.035 A 
ATOM     10  C   UNL d   1      33.148  21.175 -20.115  0.00  0.00     0.008 A 
ATOM     11 BR   UNL d   1      33.214  22.621 -19.929  0.00  0.00    -0.049 Br
ENDROOT
BRANCH   3  12
ATOM     12  N   UNL d   1      32.875  19.337 -23.211  0.00  0.00     0.049 NA
BRANCH  12  13
ATOM     13  N   UNL d   1      32.882  18.586 -22.879  0.00  0.00    -0.094 NA
ATOM     14  C   UNL d   1      32.669  17.944 -23.308  0.00  0.00     0.273 C 
ATOM     15  O   UNL d   1      32.688  17.200 -22.941  0.00  0.00    -0.269 OA
BRANCH  14  16
ATOM     16  C   UNL d   1      32.439  18.023 -24.092  0.00  0.00     0.075 C 
ATOM     17  C   UNL d   1      31.617  18.025 -23.848  0.00  0.00     0.009 C 
ATOM     18  C   UNL d   1      33.241  18.018 -24.305  0.00  0.00     0.009 C 
ATOM     19  C   UNL d   1      32.209  18.102 -24.876  0.00  0.00     0.009 C 
ENDBRANCH  14  16
ENDBRANCH  12  13
ENDBRANCH   3  12
BRANCH   2  20
ATOM     20  C   UNL d   1      33.000  22.195 -22.927  0.00  0.00     0.018 A 
ATOM     21  C   UNL d   1      32.777  22.861 -22.525  0.00  0.00     0.002 A 
ATOM     22  C   UNL d   1      32.782  23.589 -22.875  0.00  0.00     0.000 A 
ATOM     23  C   UNL d   1      33.022  23.652 -23.662  0.00  0.00     0.000 A 
ATOM     24  C   UNL d   1      33.241  23.022 -24.064  0.00  0.00     0.000 A 
ATOM     25  C   UNL d   1      33.241  22.266 -23.718  0.00  0.00     0.002 A 
ENDBRANCH   2  20
TORSDOF 4
ENDMDL
