MODEL 1
REMARK VINA RESULT:       8.2      0.000      0.000
REMARK  2 active torsions:
REMARK  status: ('A' for Active; 'I' for Inactive)
REMARK    1  A    between atoms: C_7  and  C_5 
REMARK    2  A    between atoms: C_8  and  C_7 
ROOT
ATOM      1  C   UNL d   1     -50.837  24.765  33.306  0.00  0.00     0.046 C 
ENDROOT
BRANCH   1   2
ATOM      2  C   UNL d   1     -50.776  25.575  33.321  0.00  0.00     0.205 A 
ATOM      3  N   UNL d   1     -50.061  25.946  33.357  0.00  0.00    -0.120 NA
ATOM      4  N   UNL d   1     -50.202  26.762  33.364  0.00  0.00    -0.109 NA
ATOM      5  C   UNL d   1     -51.014  26.857  33.331  0.00  0.00     0.262 A 
ATOM      6  O   UNL d   1     -51.362  26.164  33.306  0.00  0.00    -0.260 OA
ATOM      7  S   UNL d   1     -51.421  27.598  33.326  0.00  0.00    -0.029 SA
ENDBRANCH   1   2
BRANCH   1   8
ATOM      8  C   UNL d   1     -51.603  24.398  33.355  0.00  0.00     0.004 A 
ATOM      9  C   UNL d   1     -51.700  23.579  33.367  0.00  0.00     0.000 A 
ATOM     10  C   UNL d   1     -52.448  23.236  33.415  0.00  0.00     0.000 A 
ATOM     11  C   UNL d   1     -53.103  23.738  33.452  0.00  0.00     0.000 A 
ATOM     12  C   UNL d   1     -53.027  24.557  33.443  0.00  0.00     0.000 A 
ATOM     13  C   UNL d   1     -52.236  24.890  33.392  0.00  0.00     0.000 A 
ENDBRANCH   1   8
TORSDOF 2
ENDMDL
