MODEL 1
REMARK VINA RESULT:       7.2      0.000      0.000
REMARK  6 active torsions:
REMARK  status: ('A' for Active; 'I' for Inactive)
REMARK    1  A    between atoms: C_2  and  S_1 
REMARK    2  A    between atoms: N_6  and  S_1 
REMARK    3  A    between atoms: C_14  and  N_6 
REMARK    4  A    between atoms: C_8  and  C_13 
REMARK    5  A    between atoms: C_13  and  C_15 
REMARK    6  A    between atoms: C_15  and  C_14 
ROOT
ATOM      1  S   UNL d   1      13.848  12.024  -2.404  0.00  0.00     0.291 S 
ATOM      2  O   UNL d   1      14.616  12.264  -2.624  0.00  0.00    -0.198 OA
ATOM      3  O   UNL d   1      13.085  11.785  -2.183  0.00  0.00    -0.198 OA
ENDROOT
BRANCH   1   4
ATOM      4  C   UNL d   1      13.556  12.265  -3.146  0.00  0.00     0.135 A 
ATOM      5  S   UNL d   1      13.453  11.796  -3.809  0.00  0.00    -0.073 SA
ATOM      6  C   UNL d   1      13.150  12.265  -4.420  0.00  0.00     0.036 A 
ATOM      7  C   UNL d   1      13.063  13.010  -4.153  0.00  0.00     0.008 A 
ATOM      8  C   UNL d   1      13.311  13.032  -3.358  0.00  0.00     0.020 A 
ENDBRANCH   1   4
BRANCH   1   9
ATOM      9  N   UNL d   1      14.139  11.780  -1.656  0.00  0.00    -0.156 NA
BRANCH   9  10
ATOM     10  C   UNL d   1      14.108  12.283  -1.001  0.00  0.00     0.112 C 
BRANCH  10  11
ATOM     11  C   UNL d   1      14.770  12.687  -0.743  0.00  0.00     0.028 C 
BRANCH  11  12
ATOM     12  C   UNL d   1      14.702  13.249  -0.145  0.00  0.00     0.072 C 
BRANCH  12  13
ATOM     13  C   UNL d   1      15.118  13.961  -0.178  0.00  0.00     0.211 C 
ATOM     14  O   UNL d   1      14.739  14.676  -0.370  0.00  0.00    -0.644 OA
ATOM     15  O   UNL d   1      15.925  13.979  -0.019  0.00  0.00    -0.644 OA
ENDBRANCH  12  13
ENDBRANCH  11  12
ENDBRANCH  10  11
ENDBRANCH   9  10
ENDBRANCH   1   9
TORSDOF 6
ENDMDL
