MODEL 1
REMARK VINA RESULT:      19.3      0.000      0.000
REMARK  4 active torsions:
REMARK  status: ('A' for Active; 'I' for Inactive)
REMARK    1  A    between atoms: C_3  and  C_1 
REMARK    2  A    between atoms: C_8  and  C_3 
REMARK    3  A    between atoms: O_6  and  C_8 
REMARK    4  A    between atoms: C_7  and  O_6 
ROOT
ATOM      1  C   UNL d   1      14.060  12.494  -1.944  0.00  0.00     0.223 C 
ATOM      2  O   UNL d   1      13.745  11.780  -1.672  0.00  0.00    -0.284 OA
ENDROOT
BRANCH   1   3
ATOM      3  C   UNL d   1      14.566  12.933  -1.463  0.00  0.00     0.080 A 
ATOM      4  C   UNL d   1      14.865  12.602  -0.766  0.00  0.00     0.202 A 
ATOM      5  C   UNL d   1      15.371  13.040  -0.285  0.00  0.00     0.084 A 
ATOM      6  O   UNL d   1      14.657  11.833  -0.552  0.00  0.00    -0.286 OA
ATOM      7  C   UNL d   1      15.576  13.813  -0.506  0.00  0.00     0.199 A 
ATOM      8  C   UNL d   1      15.280  14.140  -1.196  0.00  0.00     0.042 A 
ATOM      9  O   UNL d   1      16.092  14.259  -0.015  0.00  0.00    -0.286 OA
ATOM     10  C   UNL d   1      14.774  13.702  -1.677  0.00  0.00     0.010 A 
ENDBRANCH   1   3
BRANCH   1  11
ATOM     11  C   UNL d   1      13.865  12.769  -2.705  0.00  0.00     0.165 C 
BRANCH  11  12
ATOM     12  O   UNL d   1      13.152  12.533  -3.056  0.00  0.00    -0.301 OA
BRANCH  12  13
ATOM     13  C   UNL d   1      13.098  12.517  -3.883  0.00  0.00     0.106 A 
ATOM     14  C   UNL d   1      12.937  13.207  -4.301  0.00  0.00     0.057 A 
ATOM     15 BR   UNL d   1      12.830  13.913  -3.887  0.00  0.00    -0.047 Br
ATOM     16  C   UNL d   1      12.883  13.192  -5.123  0.00  0.00     0.009 A 
ATOM     17  C   UNL d   1      12.991  12.480  -5.531  0.00  0.00     0.001 A 
ATOM     18  C   UNL d   1      13.154  11.780  -5.109  0.00  0.00     0.002 A 
ATOM     19  C   UNL d   1      13.206  11.804  -4.287  0.00  0.00     0.025 A 
ENDBRANCH  12  13
ENDBRANCH  11  12
ENDBRANCH   1  11
TORSDOF 4
ENDMDL
