MODEL 1
REMARK VINA RESULT:      28.3      0.000      0.000
REMARK  3 active torsions:
REMARK  status: ('A' for Active; 'I' for Inactive)
REMARK    1  A    between atoms: C_7  and  N_1 
REMARK    2  A    between atoms: C_8  and  C_2 
REMARK    3  A    between atoms: N_4  and  C_9 
ROOT
ATOM      1  N   UNL d   1     -58.535 -98.801 -43.659  0.00  0.00    -0.211 N 
ATOM      2  C   UNL d   1     -59.210 -98.813 -44.137  0.00  0.00     0.105 A 
ATOM      3  N   UNL d   1     -58.784 -98.799 -42.866  0.00  0.00    -0.060 NA
ATOM      4  N   UNL d   1     -59.611 -98.808 -42.857  0.00  0.00    -0.127 NA
ATOM      5  C   UNL d   1     -59.868 -98.817 -43.644  0.00  0.00     0.143 A 
ENDROOT
BRANCH   1   6
ATOM      6  C   UNL d   1     -57.754 -98.794 -43.920  0.00  0.00     0.085 A 
ATOM      7  C   UNL d   1     -57.137 -98.797 -43.374  0.00  0.00     0.021 A 
ATOM      8  C   UNL d   1     -56.354 -98.790 -43.631  0.00  0.00     0.025 A 
ATOM      9  C   UNL d   1     -56.189 -98.779 -44.442  0.00  0.00     0.127 A 
ATOM     10  C   UNL d   1     -56.803 -98.775 -44.990  0.00  0.00     0.025 A 
ATOM     11  C   UNL d   1     -57.585 -98.783 -44.731  0.00  0.00     0.021 A 
BRANCH   9  12
ATOM     12  N   UNL d   1     -55.402 -98.771 -44.698  0.00  0.00    -0.114 N 
ATOM     13  O   UNL d   1     -54.792 -98.777 -44.143  0.00  0.00    -0.532 OA
ATOM     14  O   UNL d   1     -55.231 -98.758 -45.497  0.00  0.00    -0.532 OA
ENDBRANCH   9  12
ENDBRANCH   1   6
BRANCH   2  15
ATOM     15  C   UNL d   1     -59.219 -98.819 -44.962  0.00  0.00     0.019 A 
ATOM     16  C   UNL d   1     -58.512 -98.888 -45.382  0.00  0.00     0.002 A 
ATOM     17  C   UNL d   1     -58.519 -98.894 -46.203  0.00  0.00     0.011 A 
ATOM     18  C   UNL d   1     -59.239 -98.830 -46.616  0.00  0.00     0.058 A 
ATOM     19  C   UNL d   1     -59.951 -98.761 -46.191  0.00  0.00     0.011 A 
ATOM     20 CL   UNL d   1     -59.244 -98.837 -47.436  0.00  0.00    -0.082 Cl
ATOM     21  C   UNL d   1     -59.941 -98.755 -45.370  0.00  0.00     0.002 A 
ENDBRANCH   2  15
TORSDOF 3
ENDMDL
MODEL 2
REMARK VINA RESULT:      30.7      1.670      2.418
REMARK  3 active torsions:
REMARK  status: ('A' for Active; 'I' for Inactive)
REMARK    1  A    between atoms: C_7  and  N_1 
REMARK    2  A    between atoms: C_8  and  C_2 
REMARK    3  A    between atoms: N_4  and  C_9 
ROOT
ATOM      1  N   UNL d   1     -58.512 -98.803 -45.532  0.00  0.00    -0.211 N 
ATOM      2  C   UNL d   1     -59.193 -98.811 -45.063  0.00  0.00     0.105 A 
ATOM      3  N   UNL d   1     -58.750 -98.770 -46.327  0.00  0.00    -0.060 NA
ATOM      4  N   UNL d   1     -59.576 -98.757 -46.348  0.00  0.00    -0.127 NA
ATOM      5  C   UNL d   1     -59.844 -98.783 -45.565  0.00  0.00     0.143 A 
ENDROOT
BRANCH   1   6
ATOM      6  C   UNL d   1     -57.734 -98.825 -45.261  0.00  0.00     0.085 A 
ATOM      7  C   UNL d   1     -57.110 -98.770 -45.796  0.00  0.00     0.021 A 
ATOM      8  C   UNL d   1     -56.330 -98.791 -45.529  0.00  0.00     0.025 A 
ATOM      9  C   UNL d   1     -56.176 -98.868 -44.720  0.00  0.00     0.127 A 
ATOM     10  C   UNL d   1     -56.798 -98.922 -44.183  0.00  0.00     0.025 A 
ATOM     11  C   UNL d   1     -57.577 -98.901 -44.452  0.00  0.00     0.021 A 
BRANCH   9  12
ATOM     12  N   UNL d   1     -55.393 -98.889 -44.453  0.00  0.00    -0.114 N 
ATOM     13  O   UNL d   1     -54.777 -98.759 -44.987  0.00  0.00    -0.532 OA
ATOM     14  O   UNL d   1     -55.231 -99.037 -43.666  0.00  0.00    -0.532 OA
ENDBRANCH   9  12
ENDBRANCH   1   6
BRANCH   2  15
ATOM     15  C   UNL d   1     -59.214 -98.842 -44.239  0.00  0.00     0.019 A 
ATOM     16  C   UNL d   1     -58.516 -98.757 -43.805  0.00  0.00     0.002 A 
ATOM     17  C   UNL d   1     -58.534 -98.787 -42.985  0.00  0.00     0.011 A 
ATOM     18  C   UNL d   1     -59.255 -98.903 -42.586  0.00  0.00     0.058 A 
ATOM     19  C   UNL d   1     -59.957 -98.988 -43.025  0.00  0.00     0.011 A 
ATOM     20 CL   UNL d   1     -59.272 -98.933 -41.767  0.00  0.00    -0.082 Cl
ATOM     21  C   UNL d   1     -59.937 -98.958 -43.845  0.00  0.00     0.002 A 
ENDBRANCH   2  15
TORSDOF 3
ENDMDL
