MODEL 1
REMARK VINA RESULT:      67.2      0.000      0.000
REMARK  5 active torsions:
REMARK  status: ('A' for Active; 'I' for Inactive)
REMARK    1  A    between atoms: C_2  and  S_1 
REMARK    2  A    between atoms: N_4  and  S_1 
REMARK    3  A    between atoms: C_3  and  N_5 
REMARK    4  A    between atoms: O_26  and  C_14 
REMARK    5  A    between atoms: O_27  and  C_24 
ROOT
ATOM      1  N   UNL d   1      14.419  14.547  -2.330  0.00  0.00    -0.226 N 
ATOM      2  N   UNL d   1      13.819  13.510  -3.455  0.00  0.00    -0.319 N 
ATOM      3  C   UNL d   1      14.226  13.776  -2.116  0.00  0.00     0.110 A 
ATOM      4  C   UNL d   1      14.312  14.801  -3.103  0.00  0.00     0.110 A 
ATOM      5  C   UNL d   1      14.013  14.289  -3.671  0.00  0.00     0.096 A 
ATOM      6  C   UNL d   1      13.923  13.253  -2.684  0.00  0.00     0.096 A 
ENDROOT
BRANCH   1   7
ATOM      7  S   UNL d   1      14.720  15.067  -1.765  0.00  0.00     0.273 S 
ATOM      8  O   UNL d   1      15.379  15.188  -2.246  0.00  0.00    -0.200 OA
ATOM      9  O   UNL d   1      14.064  14.952  -1.278  0.00  0.00    -0.200 OA
BRANCH   7  10
ATOM     10  C   UNL d   1      15.041  15.591  -1.214  0.00  0.00     0.128 A 
ATOM     11  C   UNL d   1      14.943  16.396  -1.323  0.00  0.00     0.039 A 
ATOM     12  C   UNL d   1      15.260  16.929  -0.779  0.00  0.00     0.095 A 
ATOM     13  C   UNL d   1      15.677  16.647  -0.123  0.00  0.00     0.026 A 
ATOM     14  C   UNL d   1      15.775  15.831  -0.016  0.00  0.00     0.027 A 
ATOM     15  C   UNL d   1      15.455  15.303  -0.564  0.00  0.00     0.106 A 
BRANCH  12  16
ATOM     16  O   UNL d   1      15.164  17.738  -0.882  0.00  0.00    -0.328 OA
ATOM     17  C   UNL d   1      15.314  18.076  -1.623  0.00  0.00     0.181 C 
ENDBRANCH  12  16
BRANCH  15  18
ATOM     18  O   UNL d   1      15.549  14.492  -0.463  0.00  0.00    -0.327 OA
ATOM     19  C   UNL d   1      16.249  14.201  -0.134  0.00  0.00     0.181 C 
ENDBRANCH  15  18
ENDBRANCH   7  10
ENDBRANCH   1   7
BRANCH   2  20
ATOM     20  C   UNL d   1      13.518  12.999  -4.028  0.00  0.00     0.107 A 
ATOM     21  C   UNL d   1      13.753  13.234  -4.713  0.00  0.00    -0.002 A 
ATOM     22  C   UNL d   1      13.464  12.740  -5.272  0.00  0.00    -0.006 A 
ATOM     23  C   UNL d   1      13.047  12.193  -4.952  0.00  0.00    -0.022 A 
ATOM     24  C   UNL d   1      13.505  12.662  -6.210  0.00  0.00    -0.001 A 
ATOM     25  C   UNL d   1      12.777  11.903  -4.294  0.00  0.00     0.046 A 
ATOM     26  C   UNL d   1      13.072  12.408  -3.712  0.00  0.00     0.038 A 
ATOM     27  C   UNL d   1      12.779  11.780  -5.158  0.00  0.00    -0.022 A 
ATOM     28  C   UNL d   1      13.222  12.365  -5.479  0.00  0.00    -0.006 A 
ATOM     29  C   UNL d   1      13.532  12.893  -4.889  0.00  0.00    -0.002 A 
ENDBRANCH   2  20
TORSDOF 5
ENDMDL
MODEL 2
REMARK VINA RESULT:      67.7      1.497      5.154
REMARK  5 active torsions:
REMARK  status: ('A' for Active; 'I' for Inactive)
REMARK    1  A    between atoms: C_2  and  S_1 
REMARK    2  A    between atoms: N_4  and  S_1 
REMARK    3  A    between atoms: C_3  and  N_5 
REMARK    4  A    between atoms: O_26  and  C_14 
REMARK    5  A    between atoms: O_27  and  C_24 
ROOT
ATOM      1  N   UNL d   1      14.145  14.113  -2.954  0.00  0.00    -0.226 N 
ATOM      2  N   UNL d   1      14.735  15.278  -1.958  0.00  0.00    -0.319 N 
ATOM      3  C   UNL d   1      14.460  13.906  -2.223  0.00  0.00     0.110 A 
ATOM      4  C   UNL d   1      14.124  14.899  -3.190  0.00  0.00     0.110 A 
ATOM      5  C   UNL d   1      14.417  15.487  -2.697  0.00  0.00     0.096 A 
ATOM      6  C   UNL d   1      14.758  14.495  -1.720  0.00  0.00     0.096 A 
ENDROOT
BRANCH   1   7
ATOM      7  S   UNL d   1      13.849  13.527  -3.454  0.00  0.00     0.273 S 
ATOM      8  O   UNL d   1      13.445  14.110  -3.876  0.00  0.00    -0.200 OA
ATOM      9  O   UNL d   1      14.250  12.939  -3.037  0.00  0.00    -0.200 OA
BRANCH   7  10
ATOM     10  C   UNL d   1      13.540  12.959  -3.967  0.00  0.00     0.128 A 
ATOM     11  C   UNL d   1      13.700  13.013  -4.767  0.00  0.00     0.039 A 
ATOM     12  C   UNL d   1      13.397  12.451  -5.289  0.00  0.00     0.095 A 
ATOM     13  C   UNL d   1      12.930  11.832  -5.000  0.00  0.00     0.026 A 
ATOM     14  C   UNL d   1      12.771  11.780  -4.188  0.00  0.00     0.027 A 
ATOM     15  C   UNL d   1      13.077  12.346  -3.672  0.00  0.00     0.106 A 
BRANCH  12  16
ATOM     16  O   UNL d   1      13.553  12.500  -6.094  0.00  0.00    -0.328 OA
ATOM     17  C   UNL d   1      14.335  12.572  -6.354  0.00  0.00     0.181 C 
ENDBRANCH  12  16
BRANCH  15  18
ATOM     18  O   UNL d   1      12.922  12.300  -2.865  0.00  0.00    -0.327 OA
ATOM     19  C   UNL d   1      13.361  11.779  -2.396  0.00  0.00     0.181 C 
ENDBRANCH  15  18
ENDBRANCH   7  10
ENDBRANCH   1   7
BRANCH   2  20
ATOM     20  C   UNL d   1      15.029  15.872  -1.466  0.00  0.00     0.107 A 
ATOM     21  C   UNL d   1      14.986  16.538  -1.834  0.00  0.00    -0.002 A 
ATOM     22  C   UNL d   1      15.270  17.117  -1.361  0.00  0.00    -0.006 A 
ATOM     23  C   UNL d   1      15.493  16.829  -0.695  0.00  0.00    -0.022 A 
ATOM     24  C   UNL d   1      15.398  18.049  -1.413  0.00  0.00    -0.001 A 
ATOM     25  C   UNL d   1      15.563  16.193  -0.269  0.00  0.00     0.046 A 
ATOM     26  C   UNL d   1      15.272  15.591  -0.753  0.00  0.00     0.038 A 
ATOM     27  C   UNL d   1      15.705  17.055  -0.260  0.00  0.00    -0.022 A 
ATOM     28  C   UNL d   1      15.464  17.341  -0.968  0.00  0.00    -0.006 A 
ATOM     29  C   UNL d   1      15.162  16.730  -1.476  0.00  0.00    -0.002 A 
ENDBRANCH   2  20
TORSDOF 5
ENDMDL
MODEL 3
REMARK VINA RESULT:      68.7      2.856      4.715
REMARK  5 active torsions:
REMARK  status: ('A' for Active; 'I' for Inactive)
REMARK    1  A    between atoms: C_2  and  S_1 
REMARK    2  A    between atoms: N_4  and  S_1 
REMARK    3  A    between atoms: C_3  and  N_5 
REMARK    4  A    between atoms: O_26  and  C_14 
REMARK    5  A    between atoms: O_27  and  C_24 
ROOT
ATOM      1  N   UNL d   1      13.621  14.694  -4.243  0.00  0.00    -0.226 N 
ATOM      2  N   UNL d   1      13.701  16.139  -5.020  0.00  0.00    -0.319 N 
ATOM      3  C   UNL d   1      14.090  15.297  -3.940  0.00  0.00     0.110 A 
ATOM      4  C   UNL d   1      13.191  14.810  -4.933  0.00  0.00     0.110 A 
ATOM      5  C   UNL d   1      13.227  15.530  -5.327  0.00  0.00     0.096 A 
ATOM      6  C   UNL d   1      14.131  16.027  -4.332  0.00  0.00     0.096 A 
ENDROOT
BRANCH   1   7
ATOM      7  S   UNL d   1      13.580  13.968  -3.853  0.00  0.00     0.273 S 
ATOM      8  O   UNL d   1      14.376  14.048  -3.649  0.00  0.00    -0.200 OA
ATOM      9  O   UNL d   1      12.785  13.881  -4.053  0.00  0.00    -0.200 OA
BRANCH   7  10
ATOM     10  C   UNL d   1      13.564  13.245  -3.456  0.00  0.00     0.128 A 
ATOM     11  C   UNL d   1      13.772  13.217  -2.666  0.00  0.00     0.039 A 
ATOM     12  C   UNL d   1      13.759  12.499  -2.260  0.00  0.00     0.095 A 
ATOM     13  C   UNL d   1      13.535  11.808  -2.655  0.00  0.00     0.026 A 
ATOM     14  C   UNL d   1      13.325  11.840  -3.456  0.00  0.00     0.027 A 
ATOM     15  C   UNL d   1      13.340  12.561  -3.856  0.00  0.00     0.106 A 
BRANCH  12  16
ATOM     16  O   UNL d   1      13.967  12.464  -1.466  0.00  0.00    -0.328 OA
ATOM     17  C   UNL d   1      14.322  11.780  -1.166  0.00  0.00     0.181 C 
ENDBRANCH  12  16
BRANCH  15  18
ATOM     18  O   UNL d   1      13.133  12.600  -4.652  0.00  0.00    -0.327 OA
ATOM     19  C   UNL d   1      13.026  11.899  -5.078  0.00  0.00     0.181 C 
ENDBRANCH  15  18
ENDBRANCH   7  10
ENDBRANCH   1   7
BRANCH   2  20
ATOM     20  C   UNL d   1      13.734  16.861  -5.419  0.00  0.00     0.107 A 
ATOM     21  C   UNL d   1      14.340  17.250  -5.171  0.00  0.00    -0.002 A 
ATOM     22  C   UNL d   1      14.376  17.951  -5.555  0.00  0.00    -0.006 A 
ATOM     23  C   UNL d   1      13.800  18.014  -6.045  0.00  0.00    -0.022 A 
ATOM     24  C   UNL d   1      14.938  18.707  -5.558  0.00  0.00    -0.001 A 
ATOM     25  C   UNL d   1      13.175  17.676  -6.338  0.00  0.00     0.046 A 
ATOM     26  C   UNL d   1      13.132  16.952  -5.945  0.00  0.00     0.038 A 
ATOM     27  C   UNL d   1      13.658  18.401  -6.384  0.00  0.00    -0.022 A 
ATOM     28  C   UNL d   1      14.260  18.318  -5.862  0.00  0.00    -0.006 A 
ATOM     29  C   UNL d   1      14.227  17.574  -5.451  0.00  0.00    -0.002 A 
ENDBRANCH   2  20
TORSDOF 5
ENDMDL
