MODEL 1
REMARK VINA RESULT:      10.3      0.000      0.000
REMARK  2 active torsions:
REMARK  status: ('A' for Active; 'I' for Inactive)
REMARK    1  A    between atoms: N_9  and  C_2 
REMARK    2  A    between atoms: C_4  and  N_10 
ROOT
ATOM      1  C   UNL d   1     -42.624-122.555 -50.078  0.00  0.00     0.152 A 
ATOM      2  C   UNL d   1     -43.052-122.188 -50.681  0.00  0.00     0.174 A 
ATOM      3  C   UNL d   1     -42.894-122.517 -49.300  0.00  0.00     0.111 A 
ATOM      4  O   UNL d   1     -41.924-122.990 -50.084  0.00  0.00    -0.302 OA
ATOM      5  N   UNL d   1     -43.748-121.783 -50.507  0.00  0.00    -0.207 NA
ATOM      6  C   UNL d   1     -42.363-122.927 -48.824  0.00  0.00     0.043 A 
ATOM      7  N   UNL d   1     -43.591-122.112 -49.125  0.00  0.00    -0.225 NA
ATOM      8  C   UNL d   1     -41.761-123.221 -49.309  0.00  0.00     0.102 A 
ATOM      9  C   UNL d   1     -44.017-121.745 -49.729  0.00  0.00     0.164 A 
ATOM     10  C   UNL d   1     -42.346-123.073 -48.013  0.00  0.00     0.004 A 
ATOM     11  C   UNL d   1     -41.144-123.661 -48.981  0.00  0.00     0.025 A 
ATOM     12  C   UNL d   1     -44.714-121.340 -49.554  0.00  0.00     0.042 C 
ATOM     13  C   UNL d   1     -41.728-123.513 -47.685  0.00  0.00     0.000 A 
ATOM     14  C   UNL d   1     -41.127-123.807 -48.170  0.00  0.00     0.002 A 
ENDROOT
BRANCH   2  15
ATOM     15  N   UNL d   1     -42.780-122.227 -51.460  0.00  0.00    -0.285 N 
ATOM     16  C   UNL d   1     -42.879-122.921 -51.895  0.00  0.00     0.101 A 
ATOM     17  C   UNL d   1     -42.608-122.961 -52.674  0.00  0.00     0.117 A 
ATOM     18  N   UNL d   1     -42.238-122.307 -53.016  0.00  0.00    -0.135 N 
ATOM     19  C   UNL d   1     -42.140-121.615 -52.581  0.00  0.00     0.117 A 
ATOM     20  C   UNL d   1     -42.411-121.574 -51.802  0.00  0.00     0.101 A 
BRANCH  18  21
ATOM     21  C   UNL d   1     -41.968-122.348 -53.795  0.00  0.00     0.735 A 
ATOM     22  N   UNL d   1     -41.682-123.061 -54.095  0.00  0.00    -0.060 NA
ATOM     23  C   UNL d   1     -41.411-123.104 -54.872  0.00  0.00     0.101 A 
ATOM     24  C   UNL d   1     -41.125-123.817 -55.172  0.00  0.00     0.021 C 
ATOM     25  C   UNL d   1     -41.426-122.431 -55.351  0.00  0.00     0.040 A 
ATOM     26  C   UNL d   1     -41.712-121.718 -55.051  0.00  0.00     0.101 A 
ATOM     27  N   UNL d   1     -41.983-121.676 -54.273  0.00  0.00    -0.060 NA
ATOM     28  C   UNL d   1     -41.727-121.046 -55.529  0.00  0.00     0.021 C 
ENDBRANCH  18  21
ENDBRANCH   2  15
TORSDOF 2
ENDMDL
MODEL 2
REMARK VINA RESULT:      13.1      1.454      5.340
REMARK  2 active torsions:
REMARK  status: ('A' for Active; 'I' for Inactive)
REMARK    1  A    between atoms: N_9  and  C_2 
REMARK    2  A    between atoms: C_4  and  N_10 
ROOT
ATOM      1  C   UNL d   1     -41.675-121.800 -52.063  0.00  0.00     0.152 A 
ATOM      2  C   UNL d   1     -41.829-122.566 -51.797  0.00  0.00     0.174 A 
ATOM      3  C   UNL d   1     -41.565-121.658 -52.868  0.00  0.00     0.111 A 
ATOM      4  O   UNL d   1     -41.600-121.082 -51.665  0.00  0.00    -0.302 OA
ATOM      5  N   UNL d   1     -41.873-123.190 -52.335  0.00  0.00    -0.207 NA
ATOM      6  C   UNL d   1     -41.423-120.853 -52.969  0.00  0.00     0.043 A 
ATOM      7  N   UNL d   1     -41.609-122.281 -53.406  0.00  0.00    -0.225 NA
ATOM      8  C   UNL d   1     -41.444-120.496 -52.224  0.00  0.00     0.102 A 
ATOM      9  C   UNL d   1     -41.763-123.047 -53.139  0.00  0.00     0.164 A 
ATOM     10  C   UNL d   1     -41.276-120.398 -53.640  0.00  0.00     0.004 A 
ATOM     11  C   UNL d   1     -41.319-119.683 -52.152  0.00  0.00     0.025 A 
ATOM     12  C   UNL d   1     -41.807-123.670 -53.677  0.00  0.00     0.042 C 
ATOM     13  C   UNL d   1     -41.151-119.584 -53.568  0.00  0.00     0.000 A 
ATOM     14  C   UNL d   1     -41.172-119.227 -52.823  0.00  0.00     0.002 A 
ENDROOT
BRANCH   2  15
ATOM     15  N   UNL d   1     -41.938-122.707 -50.991  0.00  0.00    -0.285 N 
ATOM     16  C   UNL d   1     -42.661-122.524 -50.636  0.00  0.00     0.101 A 
ATOM     17  C   UNL d   1     -42.771-122.664 -49.830  0.00  0.00     0.117 A 
ATOM     18  N   UNL d   1     -42.160-122.988 -49.380  0.00  0.00    -0.135 N 
ATOM     19  C   UNL d   1     -41.439-123.170 -49.735  0.00  0.00     0.117 A 
ATOM     20  C   UNL d   1     -41.328-123.030 -50.541  0.00  0.00     0.101 A 
BRANCH  18  21
ATOM     21  C   UNL d   1     -42.271-123.128 -48.575  0.00  0.00     0.735 A 
ATOM     22  N   UNL d   1     -41.644-123.030 -48.048  0.00  0.00    -0.060 NA
ATOM     23  C   UNL d   1     -41.753-123.169 -47.244  0.00  0.00     0.101 A 
ATOM     24  C   UNL d   1     -41.125-123.071 -46.717  0.00  0.00     0.021 C 
ATOM     25  C   UNL d   1     -42.493-123.408 -46.963  0.00  0.00     0.040 A 
ATOM     26  C   UNL d   1     -43.120-123.506 -47.489  0.00  0.00     0.101 A 
ATOM     27  N   UNL d   1     -43.010-123.366 -48.295  0.00  0.00    -0.060 NA
ATOM     28  C   UNL d   1     -43.859-123.744 -47.210  0.00  0.00     0.021 C 
ENDBRANCH  18  21
ENDBRANCH   2  15
TORSDOF 2
ENDMDL
