MODEL 1
REMARK VINA RESULT:      -7.8      0.000      0.000
REMARK  7 active torsions:
REMARK  status: ('A' for Active; 'I' for Inactive)
REMARK    1  A    between atoms: S_2  and  C_1 
REMARK    2  A    between atoms: N_14  and  S_2 
REMARK    3  A    between atoms: C_9  and  C_18 
REMARK       I    between atoms: N_17  and  C_9 
REMARK    4  A    between atoms: C_13  and  C_23 
REMARK    5  A    between atoms: C_24  and  N_14 
REMARK    6  A    between atoms: C_23  and  N_17 
REMARK    7  A    between atoms: C_18  and  C_24 
ROOT
ATOM      1  S   UNL d   1      51.518  33.675  53.012  0.00  0.00     0.287 S 
ATOM      2  O   UNL d   1      51.087  33.163  53.494  0.00  0.00    -0.198 OA
ATOM      3  O   UNL d   1      51.949  34.187  52.529  0.00  0.00    -0.198 OA
ENDROOT
BRANCH   1   4
ATOM      4  C   UNL d   1      52.208  33.464  53.405  0.00  0.00     0.127 A 
ATOM      5  C   UNL d   1      52.613  32.779  53.193  0.00  0.00     0.142 A 
ATOM      6  C   UNL d   1      53.306  32.567  53.588  0.00  0.00     0.131 A 
ATOM      7  N   UNL d   1      52.464  32.207  52.623  0.00  0.00    -0.101 NA
ATOM      8  N   UNL d   1      53.583  31.865  53.260  0.00  0.00    -0.102 NA
ATOM      9  C   UNL d   1      53.595  33.041  54.194  0.00  0.00     0.023 A 
ATOM     10  O   UNL d   1      53.061  31.641  52.661  0.00  0.00    -0.106 OA
ATOM     11  C   UNL d   1      53.192  33.735  54.413  0.00  0.00     0.002 A 
ATOM     12  C   UNL d   1      52.499  33.946  54.018  0.00  0.00     0.015 A 
ENDBRANCH   1   4
BRANCH   1  13
ATOM     13  N   UNL d   1      50.822  33.888  52.615  0.00  0.00    -0.157 NA
BRANCH  13  14
ATOM     14  C   UNL d   1      50.334  34.478  52.922  0.00  0.00     0.117 C 
BRANCH  14  15
ATOM     15  C   UNL d   1      49.632  34.677  52.537  0.00  0.00     0.084 C 
BRANCH  15  16
ATOM     16  C   UNL d   1      49.137  35.260  52.852  0.00  0.00     0.281 C 
ATOM     17  N   UNL d   1      48.401  35.415  52.498  0.00  0.00    -0.206 NA
ATOM     18  O   UNL d   1      49.376  35.693  53.523  0.00  0.00    -0.265 OA
BRANCH  17  19
ATOM     19  C   UNL d   1      47.905  36.007  52.822  0.00  0.00     0.109 C 
BRANCH  19  20
ATOM     20  C   UNL d   1      47.145  36.131  52.519  0.00  0.00     0.049 A 
ATOM     21  S   UNL d   1      46.503  36.481  52.904  0.00  0.00    -0.085 SA
ATOM     22  C   UNL d   1      45.858  36.493  52.403  0.00  0.00     0.035 A 
ATOM     23  C   UNL d   1      46.091  36.145  51.689  0.00  0.00     0.007 A 
ATOM     24  C   UNL d   1      46.881  35.921  51.754  0.00  0.00     0.009 A 
ENDBRANCH  19  20
ENDBRANCH  17  19
ENDBRANCH  15  16
ENDBRANCH  14  15
ENDBRANCH  13  14
ENDBRANCH   1  13
TORSDOF 7
ENDMDL
MODEL 2
REMARK VINA RESULT:      -7.8      1.524      1.918
REMARK  7 active torsions:
REMARK  status: ('A' for Active; 'I' for Inactive)
REMARK    1  A    between atoms: S_2  and  C_1 
REMARK    2  A    between atoms: N_14  and  S_2 
REMARK    3  A    between atoms: C_9  and  C_18 
REMARK       I    between atoms: N_17  and  C_9 
REMARK    4  A    between atoms: C_13  and  C_23 
REMARK    5  A    between atoms: C_24  and  N_14 
REMARK    6  A    between atoms: C_23  and  N_17 
REMARK    7  A    between atoms: C_18  and  C_24 
ROOT
ATOM      1  S   UNL d   1      52.490  34.103  53.674  0.00  0.00     0.287 S 
ATOM      2  O   UNL d   1      52.884  34.635  53.182  0.00  0.00    -0.198 OA
ATOM      3  O   UNL d   1      52.096  33.571  54.166  0.00  0.00    -0.198 OA
ENDROOT
BRANCH   1   4
ATOM      4  C   UNL d   1      53.193  33.695  53.796  0.00  0.00     0.127 A 
ATOM      5  C   UNL d   1      53.712  33.935  54.389  0.00  0.00     0.142 A 
ATOM      6  C   UNL d   1      54.418  33.526  54.513  0.00  0.00     0.131 A 
ATOM      7  N   UNL d   1      53.679  34.547  54.935  0.00  0.00    -0.101 NA
ATOM      8  N   UNL d   1      54.818  33.887  55.134  0.00  0.00    -0.102 NA
ATOM      9  C   UNL d   1      54.606  32.877  54.043  0.00  0.00     0.023 A 
ATOM     10  O   UNL d   1      54.360  34.521  55.397  0.00  0.00    -0.106 OA
ATOM     11  C   UNL d   1      54.086  32.630  53.443  0.00  0.00     0.002 A 
ATOM     12  C   UNL d   1      53.380  33.039  53.320  0.00  0.00     0.015 A 
ENDBRANCH   1   4
BRANCH   1  13
ATOM     13  N   UNL d   1      51.781  34.514  53.550  0.00  0.00    -0.157 NA
BRANCH  13  14
ATOM     14  C   UNL d   1      51.244  34.251  52.982  0.00  0.00     0.117 C 
BRANCH  14  15
ATOM     15  C   UNL d   1      50.435  34.371  53.091  0.00  0.00     0.084 C 
BRANCH  15  16
ATOM     16  C   UNL d   1      49.948  34.528  52.440  0.00  0.00     0.281 C 
ATOM     17  N   UNL d   1      49.242  34.955  52.543  0.00  0.00    -0.206 NA
ATOM     18  O   UNL d   1      50.164  34.258  51.681  0.00  0.00    -0.265 OA
BRANCH  17  19
ATOM     19  C   UNL d   1      48.754  35.110  51.881  0.00  0.00     0.109 C 
BRANCH  19  20
ATOM     20  C   UNL d   1      48.041  35.521  51.970  0.00  0.00     0.049 A 
ATOM     21  S   UNL d   1      47.362  35.453  51.505  0.00  0.00    -0.085 SA
ATOM     22  C   UNL d   1      46.787  35.960  51.787  0.00  0.00     0.035 A 
ATOM     23  C   UNL d   1      47.103  36.356  52.441  0.00  0.00     0.007 A 
ATOM     24  C   UNL d   1      47.874  36.091  52.559  0.00  0.00     0.009 A 
ENDBRANCH  19  20
ENDBRANCH  17  19
ENDBRANCH  15  16
ENDBRANCH  14  15
ENDBRANCH  13  14
ENDBRANCH   1  13
TORSDOF 7
ENDMDL
MODEL 3
REMARK VINA RESULT:      -6.2      1.541      5.843
REMARK  7 active torsions:
REMARK  status: ('A' for Active; 'I' for Inactive)
REMARK    1  A    between atoms: S_2  and  C_1 
REMARK    2  A    between atoms: N_14  and  S_2 
REMARK    3  A    between atoms: C_9  and  C_18 
REMARK       I    between atoms: N_17  and  C_9 
REMARK    4  A    between atoms: C_13  and  C_23 
REMARK    5  A    between atoms: C_24  and  N_14 
REMARK    6  A    between atoms: C_23  and  N_17 
REMARK    7  A    between atoms: C_18  and  C_24 
ROOT
ATOM      1  S   UNL d   1      49.068  34.839  52.150  0.00  0.00     0.287 S 
ATOM      2  O   UNL d   1      48.954  34.613  52.935  0.00  0.00    -0.198 OA
ATOM      3  O   UNL d   1      49.181  35.064  51.364  0.00  0.00    -0.198 OA
ENDROOT
BRANCH   1   4
ATOM      4  C   UNL d   1      48.416  35.337  52.198  0.00  0.00     0.127 A 
ATOM      5  C   UNL d   1      47.769  35.223  51.701  0.00  0.00     0.142 A 
ATOM      6  C   UNL d   1      47.115  35.723  51.750  0.00  0.00     0.131 A 
ATOM      7  N   UNL d   1      47.618  34.669  51.114  0.00  0.00    -0.101 NA
ATOM      8  N   UNL d   1      46.562  35.477  51.193  0.00  0.00    -0.102 NA
ATOM      9  C   UNL d   1      47.107  36.338  52.296  0.00  0.00     0.023 A 
ATOM     10  O   UNL d   1      46.874  34.823  50.797  0.00  0.00    -0.106 OA
ATOM     11  C   UNL d   1      47.757  36.459  52.801  0.00  0.00     0.002 A 
ATOM     12  C   UNL d   1      48.411  35.959  52.752  0.00  0.00     0.015 A 
ENDBRANCH   1   4
BRANCH   1  13
ATOM     13  N   UNL d   1      49.725  34.336  52.100  0.00  0.00    -0.157 NA
BRANCH  13  14
ATOM     14  C   UNL d   1      50.401  34.493  52.546  0.00  0.00     0.117 C 
BRANCH  14  15
ATOM     15  C   UNL d   1      51.012  33.940  52.580  0.00  0.00     0.084 C 
BRANCH  15  16
ATOM     16  C   UNL d   1      51.768  34.172  52.826  0.00  0.00     0.281 C 
ATOM     17  N   UNL d   1      52.203  33.686  53.340  0.00  0.00    -0.206 NA
ATOM     18  O   UNL d   1      52.092  34.892  52.559  0.00  0.00    -0.265 OA
BRANCH  17  19
ATOM     19  C   UNL d   1      52.967  33.926  53.586  0.00  0.00     0.109 C 
BRANCH  19  20
ATOM     20  C   UNL d   1      53.420  33.445  54.085  0.00  0.00     0.049 A 
ATOM     21  S   UNL d   1      53.680  32.675  53.937  0.00  0.00    -0.085 SA
ATOM     22  C   UNL d   1      54.110  32.406  54.577  0.00  0.00     0.035 A 
ATOM     23  C   UNL d   1      54.125  33.012  55.140  0.00  0.00     0.007 A 
ATOM     24  C   UNL d   1      53.702  33.654  54.843  0.00  0.00     0.009 A 
ENDBRANCH  19  20
ENDBRANCH  17  19
ENDBRANCH  15  16
ENDBRANCH  14  15
ENDBRANCH  13  14
ENDBRANCH   1  13
TORSDOF 7
ENDMDL
MODEL 4
REMARK VINA RESULT:      -5.9      1.658      5.816
REMARK  7 active torsions:
REMARK  status: ('A' for Active; 'I' for Inactive)
REMARK    1  A    between atoms: S_2  and  C_1 
REMARK    2  A    between atoms: N_14  and  S_2 
REMARK    3  A    between atoms: C_9  and  C_18 
REMARK       I    between atoms: N_17  and  C_9 
REMARK    4  A    between atoms: C_13  and  C_23 
REMARK    5  A    between atoms: C_24  and  N_14 
REMARK    6  A    between atoms: C_23  and  N_17 
REMARK    7  A    between atoms: C_18  and  C_24 
ROOT
ATOM      1  S   UNL d   1      50.734  34.267  52.914  0.00  0.00     0.287 S 
ATOM      2  O   UNL d   1      51.171  34.873  52.565  0.00  0.00    -0.198 OA
ATOM      3  O   UNL d   1      50.297  33.661  53.264  0.00  0.00    -0.198 OA
ENDROOT
BRANCH   1   4
ATOM      4  C   UNL d   1      50.094  34.450  52.431  0.00  0.00     0.127 A 
ATOM      5  C   UNL d   1      49.501  34.952  52.702  0.00  0.00     0.142 A 
ATOM      6  C   UNL d   1      48.859  35.136  52.217  0.00  0.00     0.131 A 
ATOM      7  N   UNL d   1      49.398  35.348  53.415  0.00  0.00    -0.101 NA
ATOM      8  N   UNL d   1      48.362  35.644  52.632  0.00  0.00    -0.102 NA
ATOM      9  C   UNL d   1      48.810  34.816  51.461  0.00  0.00     0.023 A 
ATOM     10  O   UNL d   1      48.696  35.776  53.375  0.00  0.00    -0.106 OA
ATOM     11  C   UNL d   1      49.406  34.308  51.181  0.00  0.00     0.002 A 
ATOM     12  C   UNL d   1      50.047  34.125  51.666  0.00  0.00     0.015 A 
ENDBRANCH   1   4
BRANCH   1  13
ATOM     13  N   UNL d   1      51.379  34.083  53.402  0.00  0.00    -0.157 NA
BRANCH  13  14
ATOM     14  C   UNL d   1      51.989  33.607  53.118  0.00  0.00     0.117 C 
BRANCH  14  15
ATOM     15  C   UNL d   1      52.630  33.421  53.604  0.00  0.00     0.084 C 
BRANCH  15  16
ATOM     16  C   UNL d   1      53.156  32.822  53.385  0.00  0.00     0.281 C 
ATOM     17  N   UNL d   1      52.977  32.028  53.557  0.00  0.00    -0.206 NA
ATOM     18  O   UNL d   1      53.867  33.012  52.992  0.00  0.00    -0.265 OA
BRANCH  17  19
ATOM     19  C   UNL d   1      53.515  31.427  53.332  0.00  0.00     0.109 C 
BRANCH  19  20
ATOM     20  C   UNL d   1      53.336  30.630  53.468  0.00  0.00     0.049 A 
ATOM     21  S   UNL d   1      53.580  30.163  54.104  0.00  0.00    -0.085 SA
ATOM     22  C   UNL d   1      53.278  29.409  54.021  0.00  0.00     0.035 A 
ATOM     23  C   UNL d   1      52.834  29.395  53.322  0.00  0.00     0.007 A 
ATOM     24  C   UNL d   1      52.866  30.143  52.978  0.00  0.00     0.009 A 
ENDBRANCH  19  20
ENDBRANCH  17  19
ENDBRANCH  15  16
ENDBRANCH  14  15
ENDBRANCH  13  14
ENDBRANCH   1  13
TORSDOF 7
ENDMDL
MODEL 5
REMARK VINA RESULT:      -5.9      1.438      6.038
REMARK  7 active torsions:
REMARK  status: ('A' for Active; 'I' for Inactive)
REMARK    1  A    between atoms: S_2  and  C_1 
REMARK    2  A    between atoms: N_14  and  S_2 
REMARK    3  A    between atoms: C_9  and  C_18 
REMARK       I    between atoms: N_17  and  C_9 
REMARK    4  A    between atoms: C_13  and  C_23 
REMARK    5  A    between atoms: C_24  and  N_14 
REMARK    6  A    between atoms: C_23  and  N_17 
REMARK    7  A    between atoms: C_18  and  C_24 
ROOT
ATOM      1  S   UNL d   1      48.550  35.677  53.124  0.00  0.00     0.287 S 
ATOM      2  O   UNL d   1      48.372  34.905  52.891  0.00  0.00    -0.198 OA
ATOM      3  O   UNL d   1      48.727  36.448  53.357  0.00  0.00    -0.198 OA
ENDROOT
BRANCH   1   4
ATOM      4  C   UNL d   1      47.822  35.930  52.839  0.00  0.00     0.127 A 
ATOM      5  C   UNL d   1      47.198  36.066  53.360  0.00  0.00     0.142 A 
ATOM      6  C   UNL d   1      46.467  36.321  53.074  0.00  0.00     0.131 A 
ATOM      7  N   UNL d   1      47.139  35.998  54.176  0.00  0.00    -0.101 NA
ATOM      8  N   UNL d   1      45.959  36.409  53.715  0.00  0.00    -0.102 NA
ATOM      9  C   UNL d   1      46.359  36.439  52.268  0.00  0.00     0.023 A 
ATOM     10  O   UNL d   1      46.374  36.209  54.399  0.00  0.00    -0.106 OA
ATOM     11  C   UNL d   1      46.984  36.304  51.737  0.00  0.00     0.002 A 
ATOM     12  C   UNL d   1      47.715  36.049  52.022  0.00  0.00     0.015 A 
ENDBRANCH   1   4
BRANCH   1  13
ATOM     13  N   UNL d   1      49.284  35.421  53.411  0.00  0.00    -0.157 NA
BRANCH  13  14
ATOM     14  C   UNL d   1      49.744  34.900  52.967  0.00  0.00     0.117 C 
BRANCH  14  15
ATOM     15  C   UNL d   1      50.387  34.516  53.314  0.00  0.00     0.084 C 
BRANCH  15  16
ATOM     16  C   UNL d   1      50.976  34.183  52.838  0.00  0.00     0.281 C 
ATOM     17  N   UNL d   1      51.519  33.645  53.166  0.00  0.00    -0.206 NA
ATOM     18  O   UNL d   1      51.027  34.385  52.031  0.00  0.00    -0.265 OA
BRANCH  17  19
ATOM     19  C   UNL d   1      52.113  33.311  52.679  0.00  0.00     0.109 C 
BRANCH  19  20
ATOM     20  C   UNL d   1      52.664  32.779  52.993  0.00  0.00     0.049 A 
ATOM     21  S   UNL d   1      53.350  32.959  53.417  0.00  0.00    -0.085 SA
ATOM     22  C   UNL d   1      53.733  32.267  53.621  0.00  0.00     0.035 A 
ATOM     23  C   UNL d   1      53.285  31.637  53.325  0.00  0.00     0.007 A 
ATOM     24  C   UNL d   1      52.627  31.946  52.937  0.00  0.00     0.009 A 
ENDBRANCH  19  20
ENDBRANCH  17  19
ENDBRANCH  15  16
ENDBRANCH  14  15
ENDBRANCH  13  14
ENDBRANCH   1  13
TORSDOF 7
ENDMDL
MODEL 6
REMARK VINA RESULT:      -5.6      3.916      5.992
REMARK  7 active torsions:
REMARK  status: ('A' for Active; 'I' for Inactive)
REMARK    1  A    between atoms: S_2  and  C_1 
REMARK    2  A    between atoms: N_14  and  S_2 
REMARK    3  A    between atoms: C_9  and  C_18 
REMARK       I    between atoms: N_17  and  C_9 
REMARK    4  A    between atoms: C_13  and  C_23 
REMARK    5  A    between atoms: C_24  and  N_14 
REMARK    6  A    between atoms: C_23  and  N_17 
REMARK    7  A    between atoms: C_18  and  C_24 
ROOT
ATOM      1  S   UNL d   1      52.940  33.445  53.655  0.00  0.00     0.287 S 
ATOM      2  O   UNL d   1      53.590  33.551  53.158  0.00  0.00    -0.198 OA
ATOM      3  O   UNL d   1      52.291  33.339  54.152  0.00  0.00    -0.198 OA
ENDROOT
BRANCH   1   4
ATOM      4  C   UNL d   1      53.269  33.969  54.196  0.00  0.00     0.127 A 
ATOM      5  C   UNL d   1      53.003  34.748  54.232  0.00  0.00     0.142 A 
ATOM      6  C   UNL d   1      53.333  35.274  54.776  0.00  0.00     0.131 A 
ATOM      7  N   UNL d   1      52.430  35.153  53.807  0.00  0.00    -0.101 NA
ATOM      8  N   UNL d   1      52.962  36.003  54.685  0.00  0.00    -0.102 NA
ATOM      9  C   UNL d   1      53.929  35.022  55.284  0.00  0.00     0.023 A 
ATOM     10  O   UNL d   1      52.401  35.929  54.084  0.00  0.00    -0.106 OA
ATOM     11  C   UNL d   1      54.201  34.237  55.252  0.00  0.00     0.002 A 
ATOM     12  C   UNL d   1      53.872  33.711  54.709  0.00  0.00     0.015 A 
ENDBRANCH   1   4
BRANCH   1  13
ATOM     13  N   UNL d   1      52.609  32.917  53.109  0.00  0.00    -0.157 NA
BRANCH  13  14
ATOM     14  C   UNL d   1      52.929  32.163  53.016  0.00  0.00     0.117 C 
BRANCH  14  15
ATOM     15  C   UNL d   1      52.451  31.537  52.770  0.00  0.00     0.084 C 
BRANCH  15  16
ATOM     16  C   UNL d   1      52.744  30.763  52.777  0.00  0.00     0.281 C 
ATOM     17  N   UNL d   1      52.807  30.350  53.495  0.00  0.00    -0.206 NA
ATOM     18  O   UNL d   1      52.976  30.398  52.064  0.00  0.00    -0.265 OA
BRANCH  17  19
ATOM     19  C   UNL d   1      53.105  29.567  53.495  0.00  0.00     0.109 C 
BRANCH  19  20
ATOM     20  C   UNL d   1      53.243  29.169  54.208  0.00  0.00     0.049 A 
ATOM     21  S   UNL d   1      52.948  29.362  54.955  0.00  0.00    -0.085 SA
ATOM     22  C   UNL d   1      53.222  28.823  55.504  0.00  0.00     0.035 A 
ATOM     23  C   UNL d   1      53.698  28.279  55.101  0.00  0.00     0.007 A 
ATOM     24  C   UNL d   1      53.715  28.486  54.304  0.00  0.00     0.009 A 
ENDBRANCH  19  20
ENDBRANCH  17  19
ENDBRANCH  15  16
ENDBRANCH  14  15
ENDBRANCH  13  14
ENDBRANCH   1  13
TORSDOF 7
ENDMDL
MODEL 7
REMARK VINA RESULT:      -5.2     10.284     11.224
REMARK  7 active torsions:
REMARK  status: ('A' for Active; 'I' for Inactive)
REMARK    1  A    between atoms: S_2  and  C_1 
REMARK    2  A    between atoms: N_14  and  S_2 
REMARK    3  A    between atoms: C_9  and  C_18 
REMARK       I    between atoms: N_17  and  C_9 
REMARK    4  A    between atoms: C_13  and  C_23 
REMARK    5  A    between atoms: C_24  and  N_14 
REMARK    6  A    between atoms: C_23  and  N_17 
REMARK    7  A    between atoms: C_18  and  C_24 
ROOT
ATOM      1  S   UNL d   1      45.018  27.906  57.104  0.00  0.00     0.287 S 
ATOM      2  O   UNL d   1      45.722  28.024  56.690  0.00  0.00    -0.198 OA
ATOM      3  O   UNL d   1      44.314  27.787  57.517  0.00  0.00    -0.198 OA
ENDROOT
BRANCH   1   4
ATOM      4  C   UNL d   1      44.869  28.714  57.083  0.00  0.00     0.127 A 
ATOM      5  C   UNL d   1      45.072  29.189  57.724  0.00  0.00     0.142 A 
ATOM      6  C   UNL d   1      44.923  30.000  57.703  0.00  0.00     0.131 A 
ATOM      7  N   UNL d   1      45.421  29.017  58.447  0.00  0.00    -0.101 NA
ATOM      8  N   UNL d   1      45.181  30.326  58.413  0.00  0.00    -0.102 NA
ATOM      9  C   UNL d   1      44.571  30.337  57.040  0.00  0.00     0.023 A 
ATOM     10  O   UNL d   1      45.491  29.717  58.875  0.00  0.00    -0.106 OA
ATOM     11  C   UNL d   1      44.365  29.863  56.389  0.00  0.00     0.002 A 
ATOM     12  C   UNL d   1      44.514  29.052  56.411  0.00  0.00     0.015 A 
ENDBRANCH   1   4
BRANCH   1  13
ATOM     13  N   UNL d   1      45.168  27.091  57.125  0.00  0.00    -0.157 NA
BRANCH  13  14
ATOM     14  C   UNL d   1      44.827  26.592  56.563  0.00  0.00     0.117 C 
BRANCH  14  15
ATOM     15  C   UNL d   1      44.876  25.773  56.652  0.00  0.00     0.084 C 
BRANCH  15  16
ATOM     16  C   UNL d   1      44.725  25.277  56.008  0.00  0.00     0.281 C 
ATOM     17  N   UNL d   1      44.981  24.486  56.024  0.00  0.00    -0.206 NA
ATOM     18  O   UNL d   1      44.315  25.568  55.342  0.00  0.00    -0.265 OA
BRANCH  17  19
ATOM     19  C   UNL d   1      44.825  23.989  55.369  0.00  0.00     0.109 C 
BRANCH  19  20
ATOM     20  C   UNL d   1      45.106  23.210  55.354  0.00  0.00     0.049 A 
ATOM     21  S   UNL d   1      45.379  22.789  54.698  0.00  0.00    -0.085 SA
ATOM     22  C   UNL d   1      45.605  22.039  54.931  0.00  0.00     0.035 A 
ATOM     23  C   UNL d   1      45.475  21.982  55.746  0.00  0.00     0.007 A 
ATOM     24  C   UNL d   1      45.168  22.699  56.012  0.00  0.00     0.009 A 
ENDBRANCH  19  20
ENDBRANCH  17  19
ENDBRANCH  15  16
ENDBRANCH  14  15
ENDBRANCH  13  14
ENDBRANCH   1  13
TORSDOF 7
ENDMDL
MODEL 8
REMARK VINA RESULT:      -4.9      2.608      3.984
REMARK  7 active torsions:
REMARK  status: ('A' for Active; 'I' for Inactive)
REMARK    1  A    between atoms: S_2  and  C_1 
REMARK    2  A    between atoms: N_14  and  S_2 
REMARK    3  A    between atoms: C_9  and  C_18 
REMARK       I    between atoms: N_17  and  C_9 
REMARK    4  A    between atoms: C_13  and  C_23 
REMARK    5  A    between atoms: C_24  and  N_14 
REMARK    6  A    between atoms: C_23  and  N_17 
REMARK    7  A    between atoms: C_18  and  C_24 
ROOT
ATOM      1  S   UNL d   1      53.581  31.396  53.994  0.00  0.00     0.287 S 
ATOM      2  O   UNL d   1      54.302  31.325  53.600  0.00  0.00    -0.198 OA
ATOM      3  O   UNL d   1      52.860  31.468  54.388  0.00  0.00    -0.198 OA
ENDROOT
BRANCH   1   4
ATOM      4  C   UNL d   1      53.329  30.688  53.662  0.00  0.00     0.127 A 
ATOM      5  C   UNL d   1      53.316  30.000  54.115  0.00  0.00     0.142 A 
ATOM      6  C   UNL d   1      53.063  29.289  53.782  0.00  0.00     0.131 A 
ATOM      7  N   UNL d   1      53.518  29.853  54.897  0.00  0.00    -0.101 NA
ATOM      8  N   UNL d   1      53.110  28.704  54.359  0.00  0.00    -0.102 NA
ATOM      9  C   UNL d   1      52.824  29.264  52.995  0.00  0.00     0.023 A 
ATOM     10  O   UNL d   1      53.392  29.054  55.052  0.00  0.00    -0.106 OA
ATOM     11  C   UNL d   1      52.834  29.955  52.533  0.00  0.00     0.002 A 
ATOM     12  C   UNL d   1      53.087  30.666  52.866  0.00  0.00     0.015 A 
ENDBRANCH   1   4
BRANCH   1  13
ATOM     13  N   UNL d   1      53.835  32.111  54.329  0.00  0.00    -0.157 NA
BRANCH  13  14
ATOM     14  C   UNL d   1      53.686  32.824  53.944  0.00  0.00     0.117 C 
BRANCH  14  15
ATOM     15  C   UNL d   1      53.619  33.523  54.377  0.00  0.00     0.084 C 
BRANCH  15  16
ATOM     16  C   UNL d   1      53.176  34.155  54.079  0.00  0.00     0.281 C 
ATOM     17  N   UNL d   1      52.479  34.009  53.651  0.00  0.00    -0.206 NA
ATOM     18  O   UNL d   1      53.428  34.940  54.208  0.00  0.00    -0.265 OA
BRANCH  17  19
ATOM     19  C   UNL d   1      52.036  34.653  53.352  0.00  0.00     0.109 C 
BRANCH  19  20
ATOM     20  C   UNL d   1      51.332  34.523  52.936  0.00  0.00     0.049 A 
ATOM     21  S   UNL d   1      50.562  34.546  53.236  0.00  0.00    -0.085 SA
ATOM     22  C   UNL d   1      50.032  34.385  52.636  0.00  0.00     0.035 A 
ATOM     23  C   UNL d   1      50.469  34.259  51.945  0.00  0.00     0.007 A 
ATOM     24  C   UNL d   1      51.269  34.342  52.123  0.00  0.00     0.009 A 
ENDBRANCH  19  20
ENDBRANCH  17  19
ENDBRANCH  15  16
ENDBRANCH  14  15
ENDBRANCH  13  14
ENDBRANCH   1  13
TORSDOF 7
ENDMDL
