MODEL 1
REMARK VINA RESULT:     101.3      0.000      0.000
REMARK  7 active torsions:
REMARK  status: ('A' for Active; 'I' for Inactive)
REMARK       I    between atoms: C_5  and  N_1 
REMARK    1  A    between atoms: C_11  and  C_3 
REMARK    2  A    between atoms: C_12  and  C_5 
REMARK    3  A    between atoms: N_7  and  C_12 
REMARK    4  A    between atoms: C_13  and  C_8 
REMARK    5  A    between atoms: C_29  and  N_10 
REMARK    6  A    between atoms: O_28  and  C_16 
REMARK    7  A    between atoms: O_30  and  C_23 
ROOT
ATOM      1  N   UNL d   1      60.295  48.838  50.934  0.00  0.00    -0.193 N 
ATOM      2  N   UNL d   1      60.875  48.879  51.505  0.00  0.00    -0.162 NA
ATOM      3  C   UNL d   1      60.582  49.283  52.158  0.00  0.00     0.109 A 
ATOM      4  C   UNL d   1      60.356  48.481  50.193  0.00  0.00     0.298 C 
ATOM      5  C   UNL d   1      59.623  49.221  51.223  0.00  0.00     0.088 A 
ATOM      6  C   UNL d   1      59.805  49.495  51.983  0.00  0.00     0.041 A 
ATOM      7  O   UNL d   1      59.714  48.492  49.685  0.00  0.00    -0.264 OA
ENDROOT
BRANCH   4   8
ATOM      8  C   UNL d   1      61.051  48.121  49.974  0.00  0.00     0.146 C 
BRANCH   8   9
ATOM      9  N   UNL d   1      61.113  47.303  50.000  0.00  0.00    -0.262 N 
ATOM     10  C   UNL d   1      61.778  46.931  49.700  0.00  0.00     0.322 A 
ATOM     11  C   UNL d   1      61.841  46.109  49.726  0.00  0.00     0.322 A 
ATOM     12  O   UNL d   1      62.388  47.380  49.370  0.00  0.00    -0.261 OA
ATOM     13  O   UNL d   1      62.513  45.736  49.423  0.00  0.00    -0.261 OA
ATOM     14  N   UNL d   1      61.238  45.659  50.053  0.00  0.00    -0.267 N 
ATOM     15  C   UNL d   1      60.569  46.032  50.356  0.00  0.00     0.102 A 
ATOM     16  C   UNL d   1      60.506  46.854  50.329  0.00  0.00     0.102 A 
BRANCH  14  17
ATOM     17  C   UNL d   1      61.301  44.837  50.080  0.00  0.00     0.083 C 
ATOM     18  C   UNL d   1      60.810  44.402  50.583  0.00  0.00     0.021 C 
ENDBRANCH  14  17
ENDBRANCH   8   9
ENDBRANCH   4   8
BRANCH   5  19
ATOM     19  C   UNL d   1      58.910  49.315  50.840  0.00  0.00     0.020 A 
ATOM     20  C   UNL d   1      58.209  49.155  51.234  0.00  0.00     0.028 A 
ATOM     21  C   UNL d   1      57.487  49.254  50.838  0.00  0.00     0.116 A 
ATOM     22  C   UNL d   1      57.475  49.508  50.062  0.00  0.00     0.116 A 
ATOM     23  C   UNL d   1      58.184  49.668  49.669  0.00  0.00     0.026 A 
ATOM     24  C   UNL d   1      58.903  49.569  50.065  0.00  0.00     0.004 A 
BRANCH  21  25
ATOM     25  O   UNL d   1      56.789  49.094  51.233  0.00  0.00    -0.326 OA
ATOM     26  C   UNL d   1      56.297  49.699  51.474  0.00  0.00     0.181 C 
ENDBRANCH  21  25
BRANCH  22  27
ATOM     27  O   UNL d   1      56.767  49.604  49.675  0.00  0.00    -0.326 OA
ATOM     28  C   UNL d   1      56.751  49.682  48.862  0.00  0.00     0.181 C 
ENDBRANCH  22  27
ENDBRANCH   5  19
BRANCH   3  29
ATOM     29  C   UNL d   1      60.989  49.446  52.855  0.00  0.00     0.049 A 
ATOM     30  S   UNL d   1      61.793  49.524  52.939  0.00  0.00    -0.085 SA
ATOM     31  C   UNL d   1      61.969  49.685  53.726  0.00  0.00     0.035 A 
ATOM     32  C   UNL d   1      61.247  49.706  54.136  0.00  0.00     0.007 A 
ATOM     33  C   UNL d   1      60.635  49.557  53.597  0.00  0.00     0.009 A 
ENDBRANCH   3  29
TORSDOF 7
ENDMDL
