MODEL 1
REMARK VINA RESULT:      26.3      0.000      0.000
REMARK  1 active torsions:
REMARK  status: ('A' for Active; 'I' for Inactive)
REMARK    1  A    between atoms: C_7  and  C_2 
ROOT
ATOM      1  C   UNL d   1     -58.615 -98.759 -44.033  0.00  0.00     0.074 A 
ATOM      2  C   UNL d   1     -58.081 -98.758 -44.661  0.00  0.00     0.088 A 
ATOM      3  C   UNL d   1     -59.425 -98.759 -44.181  0.00  0.00     0.088 A 
ATOM      4  C   UNL d   1     -59.168 -98.757 -45.587  0.00  0.00     0.221 A 
ATOM      5  N   UNL d   1     -59.703 -98.758 -44.958  0.00  0.00    -0.217 NA
ATOM      6  N   UNL d   1     -58.357 -98.757 -45.438  0.00  0.00    -0.217 NA
ATOM      7  C   UNL d   1     -58.337 -98.760 -43.264  0.00  0.00     0.199 A 
ATOM      8  S   UNL d   1     -59.445 -98.757 -46.364  0.00  0.00    -0.037 SA
ATOM      9  O   UNL d   1     -57.525 -98.760 -43.115  0.00  0.00    -0.286 OA
ATOM     10  C   UNL d   1     -59.959 -98.759 -43.561  0.00  0.00     0.019 A 
ATOM     11  C   UNL d   1     -58.872 -98.760 -42.627  0.00  0.00     0.042 A 
ATOM     12  C   UNL d   1     -59.683 -98.760 -42.775  0.00  0.00     0.005 A 
ENDROOT
BRANCH   2  13
ATOM     13  C   UNL d   1     -57.269 -98.758 -44.512  0.00  0.00     0.021 A 
ATOM     14  C   UNL d   1     -56.735 -98.761 -45.141  0.00  0.00     0.043 A 
ATOM     15  C   UNL d   1     -55.929 -98.761 -44.993  0.00  0.00     0.196 A 
ATOM     16  O   UNL d   1     -55.394 -98.764 -45.622  0.00  0.00    -0.287 OA
ATOM     17  C   UNL d   1     -55.651 -98.758 -44.216  0.00  0.00     0.042 A 
ATOM     18  C   UNL d   1     -56.186 -98.755 -43.588  0.00  0.00     0.003 A 
ATOM     19  C   UNL d   1     -56.993 -98.755 -43.736  0.00  0.00     0.002 A 
ENDBRANCH   2  13
TORSDOF 1
ENDMDL
MODEL 2
REMARK VINA RESULT:      27.5      1.391      2.034
REMARK  1 active torsions:
REMARK  status: ('A' for Active; 'I' for Inactive)
REMARK    1  A    between atoms: C_7  and  C_2 
ROOT
ATOM      1  C   UNL d   1     -58.583 -98.759 -44.659  0.00  0.00     0.074 A 
ATOM      2  C   UNL d   1     -58.016 -98.758 -44.062  0.00  0.00     0.088 A 
ATOM      3  C   UNL d   1     -59.384 -98.760 -44.467  0.00  0.00     0.088 A 
ATOM      4  C   UNL d   1     -59.050 -98.759 -43.077  0.00  0.00     0.221 A 
ATOM      5  N   UNL d   1     -59.619 -98.759 -43.676  0.00  0.00    -0.217 NA
ATOM      6  N   UNL d   1     -58.249 -98.758 -43.270  0.00  0.00    -0.217 NA
ATOM      7  C   UNL d   1     -58.348 -98.760 -45.442  0.00  0.00     0.199 A 
ATOM      8  S   UNL d   1     -59.284 -98.758 -42.286  0.00  0.00    -0.037 SA
ATOM      9  O   UNL d   1     -57.546 -98.759 -45.635  0.00  0.00    -0.286 OA
ATOM     10  C   UNL d   1     -59.951 -98.761 -45.057  0.00  0.00     0.019 A 
ATOM     11  C   UNL d   1     -58.918 -98.760 -46.049  0.00  0.00     0.042 A 
ATOM     12  C   UNL d   1     -59.719 -98.761 -45.856  0.00  0.00     0.005 A 
ENDROOT
BRANCH   2  13
ATOM     13  C   UNL d   1     -57.214 -98.758 -44.255  0.00  0.00     0.021 A 
ATOM     14  C   UNL d   1     -56.646 -98.759 -43.656  0.00  0.00     0.043 A 
ATOM     15  C   UNL d   1     -55.849 -98.759 -43.848  0.00  0.00     0.196 A 
ATOM     16  O   UNL d   1     -55.280 -98.760 -43.249  0.00  0.00    -0.287 OA
ATOM     17  C   UNL d   1     -55.614 -98.757 -44.639  0.00  0.00     0.042 A 
ATOM     18  C   UNL d   1     -56.183 -98.756 -45.237  0.00  0.00     0.003 A 
ATOM     19  C   UNL d   1     -56.980 -98.756 -45.045  0.00  0.00     0.002 A 
ENDBRANCH   2  13
TORSDOF 1
ENDMDL
