MODEL 1
REMARK VINA RESULT:      -4.5      0.000      0.000
REMARK  5 active torsions:
REMARK  status: ('A' for Active; 'I' for Inactive)
REMARK       I    between atoms: N_2  and  C_1 
REMARK    1  A    between atoms: C_8  and  C_1 
REMARK    2  A    between atoms: C_4  and  N_2 
REMARK    3  A    between atoms: C_3  and  C_4 
REMARK    4  A    between atoms: C_5  and  C_3 
REMARK    5  A    between atoms: N_6  and  C_3 
ROOT
ATOM      1  C   UNL d   1      58.974  -0.605  29.403  0.00  0.00     0.088 C 
ENDROOT
BRANCH   1   2
ATOM      2  C   UNL d   1      58.292  -0.220  29.653  0.00  0.00     0.101 C 
ATOM      3  C   UNL d   1      57.884   0.262  29.135  0.00  0.00     0.022 C 
BRANCH   2   4
ATOM      4  N   UNL d   1      58.029  -0.325  30.424  0.00  0.00    -0.206 NA
ATOM      5  C   UNL d   1      57.398   0.130  30.709  0.00  0.00     0.279 C 
ATOM      6  O   UNL d   1      57.042   0.682  30.217  0.00  0.00    -0.265 OA
BRANCH   5   7
ATOM      7  C   UNL d   1      57.134   0.025  31.480  0.00  0.00     0.058 A 
ATOM      8  C   UNL d   1      56.754  -0.677  31.706  0.00  0.00     0.005 A 
ATOM      9  C   UNL d   1      56.489  -0.780  32.485  0.00  0.00     0.000 A 
ATOM     10  C   UNL d   1      56.117  -1.473  32.698  0.00  0.00     0.000 C 
ATOM     11  C   UNL d   1      56.609  -0.171  33.035  0.00  0.00     0.000 A 
ATOM     12  C   UNL d   1      56.988   0.533  32.817  0.00  0.00     0.000 A 
ATOM     13  C   UNL d   1      57.247   0.625  32.043  0.00  0.00     0.005 A 
ENDBRANCH   5   7
ENDBRANCH   2   4
ENDBRANCH   1   2
BRANCH   1  14
ATOM     14  C   UNL d   1      58.944  -1.398  29.188  0.00  0.00     0.047 A 
ATOM     15  S   UNL d   1      58.647  -1.707  28.482  0.00  0.00    -0.085 SA
ATOM     16  C   UNL d   1      58.728  -2.525  28.504  0.00  0.00     0.035 A 
ATOM     17  C   UNL d   1      59.076  -2.737  29.222  0.00  0.00     0.007 A 
ATOM     18  C   UNL d   1      59.213  -2.039  29.652  0.00  0.00     0.009 A 
ENDBRANCH   1  14
BRANCH   1  19
ATOM     19  N   UNL d   1      59.693  -0.197  29.365  0.00  0.00    -0.299 N 
ATOM     20  C   UNL d   1      59.887   0.228  28.696  0.00  0.00     0.107 A 
ATOM     21  C   UNL d   1      60.599   0.635  28.650  0.00  0.00     0.142 A 
ATOM     22  O   UNL d   1      61.133   0.620  29.286  0.00  0.00    -0.300 OA
ATOM     23  C   UNL d   1      60.933   0.186  29.965  0.00  0.00     0.142 A 
ATOM     24  C   UNL d   1      60.216  -0.220  30.003  0.00  0.00     0.107 A 
ENDBRANCH   1  19
TORSDOF 5
ENDMDL
MODEL 2
REMARK VINA RESULT:      -3.8      1.097      2.067
REMARK  5 active torsions:
REMARK  status: ('A' for Active; 'I' for Inactive)
REMARK       I    between atoms: N_2  and  C_1 
REMARK    1  A    between atoms: C_8  and  C_1 
REMARK    2  A    between atoms: C_4  and  N_2 
REMARK    3  A    between atoms: C_3  and  C_4 
REMARK    4  A    between atoms: C_5  and  C_3 
REMARK    5  A    between atoms: N_6  and  C_3 
ROOT
ATOM      1  C   UNL d   1      59.219  -0.697  29.368  0.00  0.00     0.088 C 
ENDROOT
BRANCH   1   2
ATOM      2  C   UNL d   1      58.519  -0.307  29.554  0.00  0.00     0.101 C 
ATOM      3  C   UNL d   1      58.142   0.144  28.987  0.00  0.00     0.022 C 
BRANCH   2   4
ATOM      4  N   UNL d   1      58.207  -0.377  30.310  0.00  0.00    -0.206 NA
ATOM      5  C   UNL d   1      57.584   0.115  30.546  0.00  0.00     0.279 C 
ATOM      6  O   UNL d   1      57.284   0.669  30.019  0.00  0.00    -0.265 OA
BRANCH   5   7
ATOM      7  C   UNL d   1      57.271   0.046  31.302  0.00  0.00     0.058 A 
ATOM      8  C   UNL d   1      56.901  -0.656  31.544  0.00  0.00     0.005 A 
ATOM      9  C   UNL d   1      56.586  -0.723  32.309  0.00  0.00     0.000 A 
ATOM     10  C   UNL d   1      56.224  -1.416  32.539  0.00  0.00     0.000 C 
ATOM     11  C   UNL d   1      56.647  -0.079  32.827  0.00  0.00     0.000 A 
ATOM     12  C   UNL d   1      57.015   0.625  32.592  0.00  0.00     0.000 A 
ATOM     13  C   UNL d   1      57.324   0.682  31.834  0.00  0.00     0.005 A 
ENDBRANCH   5   7
ENDBRANCH   2   4
ENDBRANCH   1   2
BRANCH   1  14
ATOM     14  C   UNL d   1      59.924  -0.277  29.317  0.00  0.00     0.047 A 
ATOM     15  S   UNL d   1      60.169   0.201  28.688  0.00  0.00    -0.085 SA
ATOM     16  C   UNL d   1      60.907   0.512  28.873  0.00  0.00     0.035 A 
ATOM     17  C   UNL d   1      61.132   0.234  29.618  0.00  0.00     0.007 A 
ATOM     18  C   UNL d   1      60.522  -0.258  29.898  0.00  0.00     0.009 A 
ENDBRANCH   1  14
BRANCH   1  19
ATOM     19  N   UNL d   1      59.218  -1.513  29.230  0.00  0.00    -0.299 N 
ATOM     20  C   UNL d   1      59.633  -2.012  29.725  0.00  0.00     0.107 A 
ATOM     21  C   UNL d   1      59.638  -2.823  29.596  0.00  0.00     0.142 A 
ATOM     22  O   UNL d   1      59.219  -3.148  28.957  0.00  0.00    -0.300 OA
ATOM     23  C   UNL d   1      58.797  -2.638  28.455  0.00  0.00     0.142 A 
ATOM     24  C   UNL d   1      58.798  -1.825  28.592  0.00  0.00     0.107 A 
ENDBRANCH   1  19
TORSDOF 5
ENDMDL
