MODEL 1
REMARK VINA RESULT:      88.0      0.000      0.000
REMARK  3 active torsions:
REMARK  status: ('A' for Active; 'I' for Inactive)
REMARK    1  A    between atoms: C_2  and  S_1 
REMARK    2  A    between atoms: N_3  and  S_1 
REMARK    3  A    between atoms: C_8  and  N_3 
ROOT
ATOM      1  S   UNL d   1      61.626  47.075  49.985  0.00  0.00     0.327 S 
ATOM      2  O   UNL d   1      62.159  47.008  50.616  0.00  0.00    -0.186 OA
ATOM      3  O   UNL d   1      61.095  47.142  49.356  0.00  0.00    -0.186 OA
ENDROOT
BRANCH   1   4
ATOM      4  C   UNL d   1      62.001  46.450  49.601  0.00  0.00     0.116 A 
ATOM      5  C   UNL d   1      61.648  45.707  49.581  0.00  0.00     0.013 A 
ATOM      6  C   UNL d   1      62.027  45.074  49.193  0.00  0.00     0.001 A 
ATOM      7  C   UNL d   1      60.916  45.578  49.942  0.00  0.00     0.001 A 
ATOM      8  C   UNL d   1      61.673  44.330  49.173  0.00  0.00     0.000 A 
ATOM      9  C   UNL d   1      62.757  45.190  48.830  0.00  0.00     0.000 A 
ATOM     10  C   UNL d   1      60.944  44.214  49.536  0.00  0.00     0.000 A 
ATOM     11  C   UNL d   1      60.561  44.835  49.922  0.00  0.00     0.000 A 
ATOM     12  C   UNL d   1      63.114  45.937  48.849  0.00  0.00     0.001 A 
ATOM     13  C   UNL d   1      62.734  46.569  49.237  0.00  0.00     0.014 A 
ENDBRANCH   1   4
BRANCH   1  14
ATOM     14  N   UNL d   1      61.250  47.701  50.368  0.00  0.00    -0.318 NA
BRANCH  14  15
ATOM     15  C   UNL d   1      60.874  48.328  50.752  0.00  0.00     0.141 A 
ATOM     16  C   UNL d   1      60.183  48.641  50.452  0.00  0.00     0.028 A 
ATOM     17  C   UNL d   1      59.811  49.261  50.832  0.00  0.00     0.101 A 
ATOM     18  C   UNL d   1      59.223  49.256  50.253  0.00  0.00     0.029 C 
ATOM     19  C   UNL d   1      59.124  49.703  50.692  0.00  0.00     0.029 C 
ATOM     20  N   UNL d   1      60.132  49.574  51.521  0.00  0.00    -0.295 NA
ATOM     21  C   UNL d   1      60.830  49.262  51.828  0.00  0.00     0.101 A 
ATOM     22  C   UNL d   1      61.206  48.636  51.444  0.00  0.00     0.028 A 
ATOM     23  C   UNL d   1      61.422  49.259  52.402  0.00  0.00     0.029 C 
ATOM     24  C   UNL d   1      60.984  49.705  52.509  0.00  0.00     0.029 C 
ENDBRANCH  14  15
ENDBRANCH   1  14
TORSDOF 3
ENDMDL
MODEL 2
REMARK VINA RESULT:      90.2      0.639      1.495
REMARK  3 active torsions:
REMARK  status: ('A' for Active; 'I' for Inactive)
REMARK    1  A    between atoms: C_2  and  S_1 
REMARK    2  A    between atoms: N_3  and  S_1 
REMARK    3  A    between atoms: C_8  and  N_3 
ROOT
ATOM      1  S   UNL d   1      61.388  46.775  50.151  0.00  0.00     0.327 S 
ATOM      2  O   UNL d   1      61.748  47.212  49.545  0.00  0.00    -0.186 OA
ATOM      3  O   UNL d   1      61.031  46.340  50.754  0.00  0.00    -0.186 OA
ENDROOT
BRANCH   1   4
ATOM      4  C   UNL d   1      61.688  46.079  49.827  0.00  0.00     0.116 A 
ATOM      5  C   UNL d   1      61.500  45.352  50.163  0.00  0.00     0.013 A 
ATOM      6  C   UNL d   1      61.803  44.649  49.835  0.00  0.00     0.001 A 
ATOM      7  C   UNL d   1      61.010  45.310  50.828  0.00  0.00     0.001 A 
ATOM      8  C   UNL d   1      61.614  43.921  50.173  0.00  0.00     0.000 A 
ATOM      9  C   UNL d   1      62.291  44.679  49.173  0.00  0.00     0.000 A 
ATOM     10  C   UNL d   1      61.126  43.892  50.835  0.00  0.00     0.000 A 
ATOM     11  C   UNL d   1      60.822  44.583  51.166  0.00  0.00     0.000 A 
ATOM     12  C   UNL d   1      62.481  45.409  48.833  0.00  0.00     0.001 A 
ATOM     13  C   UNL d   1      62.178  46.112  49.161  0.00  0.00     0.014 A 
ENDBRANCH   1   4
BRANCH   1  14
ATOM     14  N   UNL d   1      61.088  47.472  50.476  0.00  0.00    -0.318 NA
BRANCH  14  15
ATOM     15  C   UNL d   1      60.788  48.168  50.801  0.00  0.00     0.141 A 
ATOM     16  C   UNL d   1      61.159  48.520  51.438  0.00  0.00     0.028 A 
ATOM     17  C   UNL d   1      60.862  49.209  51.760  0.00  0.00     0.101 A 
ATOM     18  C   UNL d   1      61.473  49.209  52.313  0.00  0.00     0.029 C 
ATOM     19  C   UNL d   1      61.084  49.704  52.385  0.00  0.00     0.029 C 
ATOM     20  N   UNL d   1      60.186  49.554  51.442  0.00  0.00    -0.295 NA
ATOM     21  C   UNL d   1      59.808  49.204  50.800  0.00  0.00     0.101 A 
ATOM     22  C   UNL d   1      60.108  48.507  50.475  0.00  0.00     0.028 A 
ATOM     23  C   UNL d   1      59.201  49.196  50.242  0.00  0.00     0.029 C 
ATOM     24  C   UNL d   1      59.163  49.694  50.634  0.00  0.00     0.029 C 
ENDBRANCH  14  15
ENDBRANCH   1  14
TORSDOF 3
ENDMDL
