MODEL 1
REMARK VINA RESULT:      14.8      0.000      0.000
REMARK  1 active torsions:
REMARK  status: ('A' for Active; 'I' for Inactive)
REMARK    1  A    between atoms: C_4  and  N_1 
ROOT
ATOM      1  N   UNL d   1     -58.602 -98.767 -44.101  0.00  0.00    -0.240 N 
ATOM      2  C   UNL d   1     -58.924 -98.765 -43.338  0.00  0.00     0.267 A 
ATOM      3  C   UNL d   1     -59.235 -98.774 -44.638  0.00  0.00     0.267 A 
ATOM      4  C   UNL d   1     -59.935 -98.776 -44.206  0.00  0.00     0.066 A 
ATOM      5  C   UNL d   1     -59.748 -98.770 -43.403  0.00  0.00     0.066 A 
ATOM      6  O   UNL d   1     -58.490 -98.758 -42.630  0.00  0.00    -0.267 OA
ATOM      7  O   UNL d   1     -59.162 -98.778 -45.460  0.00  0.00    -0.267 OA
ENDROOT
BRANCH   1   8
ATOM      8  C   UNL d   1     -57.799 -98.764 -44.293  0.00  0.00     0.097 A 
ATOM      9  C   UNL d   1     -57.569 -98.759 -45.084  0.00  0.00     0.156 A 
ATOM     10  F   UNL d   1     -58.141 -98.758 -45.682  0.00  0.00    -0.203 F 
ATOM     11  C   UNL d   1     -56.768 -98.755 -45.282  0.00  0.00     0.031 A 
ATOM     12  C   UNL d   1     -56.203 -98.756 -44.678  0.00  0.00     0.002 A 
ATOM     13  C   UNL d   1     -56.438 -98.761 -43.886  0.00  0.00     0.002 A 
ATOM     14  C   UNL d   1     -57.241 -98.765 -43.698  0.00  0.00     0.020 A 
ENDBRANCH   1   8
TORSDOF 1
ENDMDL
