MODEL 1
REMARK VINA RESULT:      91.2      0.000      0.000
REMARK  5 active torsions:
REMARK  status: ('A' for Active; 'I' for Inactive)
REMARK    1  A    between atoms: C_12  and  C_1 
REMARK    2  A    between atoms: N_7  and  C_2 
REMARK    3  A    between atoms: C_3  and  C_6 
REMARK       I    between atoms: C_6  and  N_7 
REMARK    4  A    between atoms: O_18  and  C_12 
REMARK    5  A    between atoms: C_23  and  O_18 
ROOT
ATOM      1  C   UNL d   1      61.359  48.434  50.740  0.00  0.00     0.111 A 
ATOM      2  C   UNL d   1      60.710  48.800  51.009  0.00  0.00     0.096 A 
ATOM      3  S   UNL d   1      61.940  48.476  51.351  0.00  0.00    -0.080 SA
ATOM      4  C   UNL d   1      60.834  49.081  51.768  0.00  0.00     0.024 A 
ATOM      5  C   UNL d   1      61.604  48.877  51.980  0.00  0.00     0.031 A 
ATOM      6  C   UNL d   1      60.349  49.496  52.295  0.00  0.00     0.002 A 
ATOM      7  C   UNL d   1      61.903  49.083  52.721  0.00  0.00     0.006 A 
ATOM      8  C   UNL d   1      60.646  49.704  53.039  0.00  0.00     0.000 A 
ATOM      9  C   UNL d   1      61.416  49.501  53.252  0.00  0.00     0.001 A 
ENDROOT
BRANCH   2  10
ATOM     10  N   UNL d   1      60.005  48.872  50.553  0.00  0.00    -0.207 NA
ATOM     11  C   UNL d   1      59.280  48.963  50.935  0.00  0.00     0.284 C 
ATOM     12  O   UNL d   1      59.287  48.978  51.808  0.00  0.00    -0.265 OA
BRANCH  11  13
ATOM     13  C   UNL d   1      58.623  49.029  50.449  0.00  0.00     0.121 A 
ATOM     14  C   UNL d   1      58.057  48.432  50.479  0.00  0.00     0.204 A 
ATOM     15  C   UNL d   1      57.377  48.463  50.001  0.00  0.00     0.062 A 
ATOM     16  O   UNL d   1      58.174  47.776  51.007  0.00  0.00    -0.286 OA
ATOM     17  C   UNL d   1      56.824  47.862  50.042  0.00  0.00     0.005 A 
ATOM     18  C   UNL d   1      57.270  49.107  49.488  0.00  0.00     0.103 A 
ATOM     19  C   UNL d   1      56.153  47.909  49.560  0.00  0.00     0.000 A 
ATOM     20  C   UNL d   1      56.034  48.540  49.047  0.00  0.00     0.002 A 
ATOM     21  C   UNL d   1      56.588  49.129  49.014  0.00  0.00     0.025 A 
ATOM     22  O   UNL d   1      57.830  49.707  49.452  0.00  0.00    -0.305 OA
ATOM     23  C   UNL d   1      58.509  49.674  49.930  0.00  0.00     0.131 A 
ENDBRANCH  11  13
ENDBRANCH   2  10
BRANCH   1  24
ATOM     24  C   UNL d   1      61.431  48.082  49.992  0.00  0.00     0.308 C 
ATOM     25  O   UNL d   1      61.306  48.511  49.310  0.00  0.00    -0.258 OA
BRANCH  24  26
ATOM     26  O   UNL d   1      61.625  47.312  49.988  0.00  0.00    -0.271 OA
BRANCH  26  27
ATOM     27  C   UNL d   1      61.551  46.764  49.285  0.00  0.00     0.126 C 
ATOM     28  C   UNL d   1      61.813  46.006  49.332  0.00  0.00     0.029 C 
ENDBRANCH  26  27
ENDBRANCH  24  26
ENDBRANCH   1  24
TORSDOF 5
ENDMDL
