MODEL 1
REMARK VINA RESULT:      24.6      0.000      0.000
REMARK  5 active torsions:
REMARK  status: ('A' for Active; 'I' for Inactive)
REMARK    1  A    between atoms: N_2  and  S_1 
REMARK    2  A    between atoms: C_3  and  S_1 
REMARK    3  A    between atoms: C_6  and  C_4 
REMARK    4  A    between atoms: O_15  and  C_6 
REMARK    5  A    between atoms: C_18  and  O_15 
ROOT
ATOM      1  N   UNL d   1      59.000  49.675  50.514  0.00  0.00    -0.229 N 
ATOM      2  C   UNL d   1      60.152  49.681  51.345  0.00  0.00     0.082 A 
ATOM      3  C   UNL d   1      59.333  49.687  51.260  0.00  0.00     0.097 A 
ATOM      4  C   UNL d   1      59.480  49.656  49.844  0.00  0.00     0.092 A 
ATOM      5  C   UNL d   1      60.639  49.662  50.685  0.00  0.00     0.008 A 
ATOM      6  C   UNL d   1      60.302  49.649  49.932  0.00  0.00     0.020 A 
ENDROOT
BRANCH   1   7
ATOM      7  S   UNL d   1      58.180  49.682  50.429  0.00  0.00     0.277 S 
ATOM      8  O   UNL d   1      58.266  49.693  49.609  0.00  0.00    -0.199 OA
ATOM      9  O   UNL d   1      58.095  49.671  51.250  0.00  0.00    -0.199 OA
BRANCH   7  10
ATOM     10  C   UNL d   1      57.359  49.689  50.343  0.00  0.00     0.133 A 
ATOM     11  S   UNL d   1      56.653  49.705  50.753  0.00  0.00    -0.074 SA
ATOM     12  C   UNL d   1      56.033  49.700  50.205  0.00  0.00     0.036 A 
ATOM     13  C   UNL d   1      56.375  49.680  49.450  0.00  0.00     0.008 A 
ATOM     14  C   UNL d   1      57.195  49.673  49.535  0.00  0.00     0.020 A 
ENDBRANCH   7  10
ENDBRANCH   1   7
BRANCH   2  15
ATOM     15  C   UNL d   1      60.485  49.693  52.104  0.00  0.00     0.302 C 
ATOM     16  O   UNL d   1      60.004  49.693  52.772  0.00  0.00    -0.259 OA
BRANCH  15  17
ATOM     17  O   UNL d   1      61.306  49.706  52.189  0.00  0.00    -0.271 OA
BRANCH  17  18
ATOM     18  C   UNL d   1      61.652  49.439  52.883  0.00  0.00     0.126 C 
ATOM     19  C   UNL d   1      62.468  49.316  52.918  0.00  0.00     0.029 C 
ENDBRANCH  17  18
ENDBRANCH  15  17
ENDBRANCH   2  15
TORSDOF 5
ENDMDL
