MODEL 1
REMARK VINA RESULT:      43.0      0.000      0.000
REMARK  5 active torsions:
REMARK  status: ('A' for Active; 'I' for Inactive)
REMARK    1  A    between atoms: C_5  and  C_1 
REMARK    2  A    between atoms: O_8  and  C_2 
REMARK    3  A    between atoms: C_20  and  O_8 
REMARK    4  A    between atoms: C_11  and  O_14 
REMARK    5  A    between atoms: O_14  and  C_13 
ROOT
ATOM      1  C   UNL d   1      13.721  12.968  -3.642  0.00  0.00     0.197 A 
ATOM      2  C   UNL d   1      13.981  12.829  -2.870  0.00  0.00     0.165 A 
ATOM      3  O   UNL d   1      13.769  13.714  -3.951  0.00  0.00    -0.301 OA
ATOM      4  C   UNL d   1      14.288  13.443  -2.415  0.00  0.00     0.222 A 
ATOM      5  C   UNL d   1      14.073  14.333  -3.504  0.00  0.00     0.105 A 
ATOM      6  C   UNL d   1      14.333  14.193  -2.732  0.00  0.00     0.064 A 
ATOM      7  C   UNL d   1      14.121  15.092  -3.819  0.00  0.00     0.050 A 
ATOM      8  C   UNL d   1      14.641  14.818  -2.281  0.00  0.00     0.007 A 
ATOM      9  O   UNL d   1      14.546  13.305  -1.650  0.00  0.00    -0.284 OA
ATOM     10  C   UNL d   1      14.421  15.700  -3.379  0.00  0.00     0.105 A 
ATOM     11  C   UNL d   1      14.681  15.563  -2.608  0.00  0.00     0.025 A 
ENDROOT
BRANCH   2  12
ATOM     12  O   UNL d   1      13.942  12.067  -2.531  0.00  0.00    -0.302 OA
BRANCH  12  13
ATOM     13  C   UNL d   1      13.906  11.971  -1.715  0.00  0.00     0.100 A 
ATOM     14  C   UNL d   1      13.184  11.875  -1.338  0.00  0.00     0.025 A 
ATOM     15  C   UNL d   1      13.151  11.779  -0.520  0.00  0.00     0.002 A 
ATOM     16  C   UNL d   1      13.850  11.779  -0.077  0.00  0.00     0.000 A 
ATOM     17  C   UNL d   1      14.586  11.876  -0.452  0.00  0.00     0.002 A 
ATOM     18  C   UNL d   1      14.615  11.972  -1.273  0.00  0.00     0.025 A 
ENDBRANCH  12  13
ENDBRANCH   2  12
BRANCH   1  19
ATOM     19  C   UNL d   1      13.417  12.364  -4.096  0.00  0.00     0.442 C 
ATOM     20  F   UNL d   1      13.156  11.785  -4.607  0.00  0.00    -0.164 F 
ATOM     21  F   UNL d   1      12.836  11.779  -3.778  0.00  0.00    -0.164 F 
ATOM     22  F   UNL d   1      13.672  12.339  -4.819  0.00  0.00    -0.164 F 
ENDBRANCH   1  19
BRANCH  10  23
ATOM     23  O   UNL d   1      14.466  16.487  -3.717  0.00  0.00    -0.273 OA
BRANCH  23  24
ATOM     24  C   UNL d   1      15.003  16.634  -4.327  0.00  0.00     0.300 C 
ATOM     25  O   UNL d   1      15.793  16.880  -4.149  0.00  0.00    -0.259 OA
ATOM     26  C   UNL d   1      14.768  16.541  -5.102  0.00  0.00     0.074 C 
ENDBRANCH  23  24
ENDBRANCH  10  23
TORSDOF 5
ENDMDL
MODEL 2
REMARK VINA RESULT:      44.7      1.976      2.945
REMARK  5 active torsions:
REMARK  status: ('A' for Active; 'I' for Inactive)
REMARK    1  A    between atoms: C_5  and  C_1 
REMARK    2  A    between atoms: O_8  and  C_2 
REMARK    3  A    between atoms: C_20  and  O_8 
REMARK    4  A    between atoms: C_11  and  O_14 
REMARK    5  A    between atoms: O_14  and  C_13 
ROOT
ATOM      1  C   UNL d   1      14.270  13.054  -0.958  0.00  0.00     0.197 A 
ATOM      2  C   UNL d   1      14.299  13.016  -1.783  0.00  0.00     0.165 A 
ATOM      3  O   UNL d   1      14.481  13.738  -0.583  0.00  0.00    -0.301 OA
ATOM      4  C   UNL d   1      14.540  13.669  -2.225  0.00  0.00     0.222 A 
ATOM      5  C   UNL d   1      14.722  14.395  -1.014  0.00  0.00     0.105 A 
ATOM      6  C   UNL d   1      14.751  14.356  -1.839  0.00  0.00     0.064 A 
ATOM      7  C   UNL d   1      14.937  15.091  -0.631  0.00  0.00     0.050 A 
ATOM      8  C   UNL d   1      14.995  15.019  -2.275  0.00  0.00     0.007 A 
ATOM      9  O   UNL d   1      14.568  13.631  -3.042  0.00  0.00    -0.284 OA
ATOM     10  C   UNL d   1      15.174  15.736  -1.056  0.00  0.00     0.105 A 
ATOM     11  C   UNL d   1      15.203  15.701  -1.879  0.00  0.00     0.025 A 
ENDROOT
BRANCH   2  12
ATOM     12  O   UNL d   1      14.086  12.320  -2.192  0.00  0.00    -0.302 OA
BRANCH  12  13
ATOM     13  C   UNL d   1      13.692  12.359  -2.914  0.00  0.00     0.100 A 
ATOM     14  C   UNL d   1      13.810  11.782  -3.484  0.00  0.00     0.025 A 
ATOM     15  C   UNL d   1      13.414  11.824  -4.206  0.00  0.00     0.002 A 
ATOM     16  C   UNL d   1      12.896  12.451  -4.357  0.00  0.00     0.000 A 
ATOM     17  C   UNL d   1      12.772  13.041  -3.783  0.00  0.00     0.002 A 
ATOM     18  C   UNL d   1      13.171  12.995  -3.060  0.00  0.00     0.025 A 
ENDBRANCH  12  13
ENDBRANCH   2  12
BRANCH   1  19
ATOM     19  C   UNL d   1      14.033  12.411  -0.519  0.00  0.00     0.442 C 
ATOM     20  F   UNL d   1      13.723  11.780  -0.104  0.00  0.00    -0.164 F 
ATOM     21  F   UNL d   1      14.598  11.929  -0.040  0.00  0.00    -0.164 F 
ATOM     22  F   UNL d   1      13.283  12.253  -0.551  0.00  0.00    -0.164 F 
ENDBRANCH   1  19
BRANCH  10  23
ATOM     23  O   UNL d   1      15.395  16.457  -0.646  0.00  0.00    -0.273 OA
BRANCH  23  24
ATOM     24  C   UNL d   1      15.388  17.173  -1.057  0.00  0.00     0.300 C 
ATOM     25  O   UNL d   1      16.075  17.668  -1.060  0.00  0.00    -0.259 OA
ATOM     26  C   UNL d   1      14.717  17.401  -1.459  0.00  0.00     0.074 C 
ENDBRANCH  23  24
ENDBRANCH  10  23
TORSDOF 5
ENDMDL
