MODEL 1
REMARK VINA RESULT:      -8.1      0.000      0.000
REMARK  3 active torsions:
REMARK  status: ('A' for Active; 'I' for Inactive)
REMARK    1  A    between atoms: C_11  and  C_3 
REMARK    2  A    between atoms: O_13  and  C_10 
REMARK    3  A    between atoms: C_21  and  O_13 
ROOT
ATOM      1  C   UNL d   1     -47.419  13.319  22.200  0.00  0.00     0.203 A 
ATOM      2  C   UNL d   1     -48.118  13.749  22.278  0.00  0.00     0.101 A 
ATOM      3  C   UNL d   1     -46.763  13.520  22.654  0.00  0.00     0.064 A 
ATOM      4  C   UNL d   1     -48.159  14.379  22.809  0.00  0.00     0.108 A 
ATOM      5  C   UNL d   1     -48.775  13.548  21.824  0.00  0.00     0.203 A 
ATOM      6  C   UNL d   1     -46.804  14.150  23.185  0.00  0.00     0.126 A 
ATOM      7  O   UNL d   1     -47.501  14.580  23.263  0.00  0.00    -0.305 OA
ATOM      8  C   UNL d   1     -48.857  14.809  22.887  0.00  0.00     0.050 A 
ATOM      9  C   UNL d   1     -49.477  13.979  21.901  0.00  0.00     0.067 A 
ATOM     10  C   UNL d   1     -49.518  14.609  22.432  0.00  0.00     0.105 A 
ATOM     11  O   UNL d   1     -47.378  12.690  21.669  0.00  0.00    -0.286 OA
ATOM     12  O   UNL d   1     -48.734  12.919  21.293  0.00  0.00    -0.286 OA
ENDROOT
BRANCH   3  13
ATOM     13  C   UNL d   1     -46.064  13.090  22.576  0.00  0.00     0.005 A 
ATOM     14  C   UNL d   1     -45.472  13.344  22.046  0.00  0.00     0.003 A 
ATOM     15  C   UNL d   1     -44.774  12.914  21.968  0.00  0.00     0.042 A 
ATOM     16  C   UNL d   1     -44.656  12.227  22.417  0.00  0.00     0.196 A 
ATOM     17  C   UNL d   1     -45.249  11.975  22.947  0.00  0.00     0.042 A 
ATOM     18  O   UNL d   1     -43.958  11.798  22.339  0.00  0.00    -0.287 OA
ATOM     19  C   UNL d   1     -45.947  12.403  23.025  0.00  0.00     0.003 A 
ENDBRANCH   3  13
BRANCH  10  20
ATOM     20  O   UNL d   1     -50.224  15.040  22.508  0.00  0.00    -0.307 OA
BRANCH  20  21
ATOM     21  C   UNL d   1     -50.604  15.099  23.235  0.00  0.00     0.100 C 
ATOM     22  C   UNL d   1     -50.527  15.785  23.689  0.00  0.00     0.027 C 
ATOM     23  C   UNL d   1     -51.064  14.474  23.514  0.00  0.00     0.027 C 
ENDBRANCH  20  21
ENDBRANCH  10  20
TORSDOF 3
ENDMDL
MODEL 2
REMARK VINA RESULT:      -7.0      1.199      4.651
REMARK  3 active torsions:
REMARK  status: ('A' for Active; 'I' for Inactive)
REMARK    1  A    between atoms: C_11  and  C_3 
REMARK    2  A    between atoms: O_13  and  C_10 
REMARK    3  A    between atoms: C_21  and  O_13 
ROOT
ATOM      1  C   UNL d   1     -48.008  12.815  23.024  0.00  0.00     0.203 A 
ATOM      2  C   UNL d   1     -47.269  12.492  23.192  0.00  0.00     0.101 A 
ATOM      3  C   UNL d   1     -48.061  13.567  22.694  0.00  0.00     0.064 A 
ATOM      4  C   UNL d   1     -46.584  12.922  23.029  0.00  0.00     0.108 A 
ATOM      5  C   UNL d   1     -47.216  11.740  23.522  0.00  0.00     0.203 A 
ATOM      6  C   UNL d   1     -47.376  13.997  22.531  0.00  0.00     0.126 A 
ATOM      7  O   UNL d   1     -46.637  13.675  22.699  0.00  0.00    -0.305 OA
ATOM      8  C   UNL d   1     -45.845  12.600  23.196  0.00  0.00     0.050 A 
ATOM      9  C   UNL d   1     -46.474  11.414  23.690  0.00  0.00     0.067 A 
ATOM     10  C   UNL d   1     -45.789  11.844  23.528  0.00  0.00     0.105 A 
ATOM     11  O   UNL d   1     -48.693  12.386  23.187  0.00  0.00    -0.286 OA
ATOM     12  O   UNL d   1     -47.901  11.311  23.684  0.00  0.00    -0.286 OA
ENDROOT
BRANCH   3  13
ATOM     13  C   UNL d   1     -48.801  13.890  22.527  0.00  0.00     0.005 A 
ATOM     14  C   UNL d   1     -49.126  14.475  23.024  0.00  0.00     0.003 A 
ATOM     15  C   UNL d   1     -49.865  14.797  22.856  0.00  0.00     0.042 A 
ATOM     16  C   UNL d   1     -50.289  14.541  22.192  0.00  0.00     0.196 A 
ATOM     17  C   UNL d   1     -49.963  13.956  21.695  0.00  0.00     0.042 A 
ATOM     18  O   UNL d   1     -51.028  14.864  22.025  0.00  0.00    -0.287 OA
ATOM     19  C   UNL d   1     -49.225  13.634  21.862  0.00  0.00     0.003 A 
ENDBRANCH   3  13
BRANCH  10  20
ATOM     20  O   UNL d   1     -45.045  11.515  23.698  0.00  0.00    -0.307 OA
BRANCH  20  21
ATOM     21  C   UNL d   1     -44.687  10.993  23.173  0.00  0.00     0.100 C 
ATOM     22  C   UNL d   1     -44.747  10.178  23.292  0.00  0.00     0.027 C 
ATOM     23  C   UNL d   1     -44.266  11.281  22.525  0.00  0.00     0.027 C 
ENDBRANCH  20  21
ENDBRANCH  10  20
TORSDOF 3
ENDMDL
MODEL 3
REMARK VINA RESULT:      -7.0      1.488      1.815
REMARK  3 active torsions:
REMARK  status: ('A' for Active; 'I' for Inactive)
REMARK    1  A    between atoms: C_11  and  C_3 
REMARK    2  A    between atoms: O_13  and  C_10 
REMARK    3  A    between atoms: C_21  and  O_13 
ROOT
ATOM      1  C   UNL d   1     -47.867  11.862  23.062  0.00  0.00     0.203 A 
ATOM      2  C   UNL d   1     -48.587  12.262  23.033  0.00  0.00     0.101 A 
ATOM      3  C   UNL d   1     -47.179  12.273  23.251  0.00  0.00     0.064 A 
ATOM      4  C   UNL d   1     -48.618  13.071  23.191  0.00  0.00     0.108 A 
ATOM      5  C   UNL d   1     -49.276  11.852  22.845  0.00  0.00     0.203 A 
ATOM      6  C   UNL d   1     -47.209  13.082  23.409  0.00  0.00     0.126 A 
ATOM      7  O   UNL d   1     -47.928  13.482  23.379  0.00  0.00    -0.305 OA
ATOM      8  C   UNL d   1     -49.336  13.471  23.161  0.00  0.00     0.050 A 
ATOM      9  C   UNL d   1     -49.999  12.252  22.814  0.00  0.00     0.067 A 
ATOM     10  C   UNL d   1     -50.030  13.061  22.972  0.00  0.00     0.105 A 
ATOM     11  O   UNL d   1     -47.837  11.054  22.905  0.00  0.00    -0.286 OA
ATOM     12  O   UNL d   1     -49.245  11.044  22.687  0.00  0.00    -0.286 OA
ENDROOT
BRANCH   3  13
ATOM     13  C   UNL d   1     -46.459  11.873  23.280  0.00  0.00     0.005 A 
ATOM     14  C   UNL d   1     -46.403  11.136  23.668  0.00  0.00     0.003 A 
ATOM     15  C   UNL d   1     -45.684  10.737  23.698  0.00  0.00     0.042 A 
ATOM     16  C   UNL d   1     -45.011  11.065  23.342  0.00  0.00     0.196 A 
ATOM     17  C   UNL d   1     -45.068  11.801  22.954  0.00  0.00     0.042 A 
ATOM     18  O   UNL d   1     -44.292  10.665  23.372  0.00  0.00    -0.287 OA
ATOM     19  C   UNL d   1     -45.786  12.201  22.924  0.00  0.00     0.003 A 
ENDBRANCH   3  13
BRANCH  10  20
ATOM     20  O   UNL d   1     -50.757  13.461  22.941  0.00  0.00    -0.307 OA
BRANCH  20  21
ATOM     21  C   UNL d   1     -50.920  13.991  22.333  0.00  0.00     0.100 C 
ATOM     22  C   UNL d   1     -51.064  13.714  21.569  0.00  0.00     0.027 C 
ATOM     23  C   UNL d   1     -50.939  14.802  22.485  0.00  0.00     0.027 C 
ENDBRANCH  20  21
ENDBRANCH  10  20
TORSDOF 3
ENDMDL
MODEL 4
REMARK VINA RESULT:      -6.3      7.965      9.790
REMARK  3 active torsions:
REMARK  status: ('A' for Active; 'I' for Inactive)
REMARK    1  A    between atoms: C_11  and  C_3 
REMARK    2  A    between atoms: O_13  and  C_10 
REMARK    3  A    between atoms: C_21  and  O_13 
ROOT
ATOM      1  C   UNL d   1     -39.482  14.216  17.863  0.00  0.00     0.203 A 
ATOM      2  C   UNL d   1     -39.685  14.443  18.628  0.00  0.00     0.101 A 
ATOM      3  C   UNL d   1     -38.757  14.445  17.547  0.00  0.00     0.064 A 
ATOM      4  C   UNL d   1     -39.164  14.898  19.077  0.00  0.00     0.108 A 
ATOM      5  C   UNL d   1     -40.410  14.214  18.944  0.00  0.00     0.203 A 
ATOM      6  C   UNL d   1     -38.235  14.900  17.996  0.00  0.00     0.126 A 
ATOM      7  O   UNL d   1     -38.438  15.127  18.761  0.00  0.00    -0.305 OA
ATOM      8  C   UNL d   1     -39.366  15.125  19.842  0.00  0.00     0.050 A 
ATOM      9  C   UNL d   1     -40.616  14.441  19.712  0.00  0.00     0.067 A 
ATOM     10  C   UNL d   1     -40.094  14.896  20.161  0.00  0.00     0.105 A 
ATOM     11  O   UNL d   1     -40.003  13.762  17.414  0.00  0.00    -0.286 OA
ATOM     12  O   UNL d   1     -40.931  13.760  18.495  0.00  0.00    -0.286 OA
ENDROOT
BRANCH   3  13
ATOM     13  C   UNL d   1     -38.554  14.219  16.781  0.00  0.00     0.005 A 
ATOM     14  C   UNL d   1     -38.157  13.497  16.648  0.00  0.00     0.003 A 
ATOM     15  C   UNL d   1     -37.954  13.271  15.883  0.00  0.00     0.042 A 
ATOM     16  C   UNL d   1     -38.143  13.760  15.241  0.00  0.00     0.196 A 
ATOM     17  C   UNL d   1     -38.540  14.481  15.375  0.00  0.00     0.042 A 
ATOM     18  O   UNL d   1     -37.940  13.533  14.476  0.00  0.00    -0.287 OA
ATOM     19  C   UNL d   1     -38.743  14.708  16.139  0.00  0.00     0.003 A 
ENDBRANCH   3  13
BRANCH  10  20
ATOM     20  O   UNL d   1     -40.303  15.122  20.933  0.00  0.00    -0.307 OA
BRANCH  20  21
ATOM     21  C   UNL d   1     -39.841  14.898  21.576  0.00  0.00     0.100 C 
ATOM     22  C   UNL d   1     -39.830  14.111  21.825  0.00  0.00     0.027 C 
ATOM     23  C   UNL d   1     -39.387  15.460  21.975  0.00  0.00     0.027 C 
ENDBRANCH  20  21
ENDBRANCH  10  20
TORSDOF 3
ENDMDL
MODEL 5
REMARK VINA RESULT:      -5.7      8.655      9.844
REMARK  3 active torsions:
REMARK  status: ('A' for Active; 'I' for Inactive)
REMARK    1  A    between atoms: C_11  and  C_3 
REMARK    2  A    between atoms: O_13  and  C_10 
REMARK    3  A    between atoms: C_21  and  O_13 
ROOT
ATOM      1  C   UNL d   1     -39.479  14.878  19.773  0.00  0.00     0.203 A 
ATOM      2  C   UNL d   1     -39.442  14.871  18.950  0.00  0.00     0.101 A 
ATOM      3  C   UNL d   1     -38.943  15.330  20.203  0.00  0.00     0.064 A 
ATOM      4  C   UNL d   1     -38.868  15.316  18.559  0.00  0.00     0.108 A 
ATOM      5  C   UNL d   1     -39.978  14.419  18.519  0.00  0.00     0.203 A 
ATOM      6  C   UNL d   1     -38.369  15.775  19.812  0.00  0.00     0.126 A 
ATOM      7  O   UNL d   1     -38.331  15.769  18.990  0.00  0.00    -0.305 OA
ATOM      8  C   UNL d   1     -38.830  15.310  17.736  0.00  0.00     0.050 A 
ATOM      9  C   UNL d   1     -39.942  14.411  17.693  0.00  0.00     0.067 A 
ATOM     10  C   UNL d   1     -39.368  14.856  17.302  0.00  0.00     0.105 A 
ATOM     11  O   UNL d   1     -40.053  14.434  20.164  0.00  0.00    -0.286 OA
ATOM     12  O   UNL d   1     -40.552  13.975  18.910  0.00  0.00    -0.286 OA
ENDROOT
BRANCH   3  13
ATOM     13  C   UNL d   1     -38.981  15.337  21.027  0.00  0.00     0.005 A 
ATOM     14  C   UNL d   1     -38.570  14.762  21.471  0.00  0.00     0.003 A 
ATOM     15  C   UNL d   1     -38.608  14.769  22.293  0.00  0.00     0.042 A 
ATOM     16  C   UNL d   1     -39.055  15.348  22.684  0.00  0.00     0.196 A 
ATOM     17  C   UNL d   1     -39.465  15.922  22.239  0.00  0.00     0.042 A 
ATOM     18  O   UNL d   1     -39.092  15.354  23.506  0.00  0.00    -0.287 OA
ATOM     19  C   UNL d   1     -39.427  15.916  21.417  0.00  0.00     0.003 A 
ENDBRANCH   3  13
BRANCH  10  20
ATOM     20  O   UNL d   1     -39.333  14.847  16.471  0.00  0.00    -0.307 OA
BRANCH  20  21
ATOM     21  C   UNL d   1     -38.678  14.537  16.082  0.00  0.00     0.100 C 
ATOM     22  C   UNL d   1     -38.577  13.720  16.026  0.00  0.00     0.027 C 
ATOM     23  C   UNL d   1     -38.119  15.043  15.746  0.00  0.00     0.027 C 
ENDBRANCH  20  21
ENDBRANCH  10  20
TORSDOF 3
ENDMDL
