MODEL 1
REMARK VINA RESULT:      19.8      0.000      0.000
REMARK  4 active torsions:
REMARK  status: ('A' for Active; 'I' for Inactive)
REMARK    1  A    between atoms: N_4  and  C_1 
REMARK       I    between atoms: C_6  and  N_4 
REMARK    2  A    between atoms: C_10  and  C_6 
REMARK    3  A    between atoms: C_8  and  C_11 
REMARK    4  A    between atoms: C_11  and  C_10 
ROOT
ATOM      1  N   UNL d   1      58.458  49.654  50.821  0.00  0.00    -0.187 NA
ATOM      2  C   UNL d   1      59.031  49.676  50.226  0.00  0.00     0.281 C 
ATOM      3  O   UNL d   1      58.837  49.689  49.406  0.00  0.00    -0.265 OA
ENDROOT
BRANCH   2   4
ATOM      4  C   UNL d   1      59.869  49.688  50.450  0.00  0.00     0.063 C 
BRANCH   4   5
ATOM      5  C   UNL d   1      60.138  49.125  51.016  0.00  0.00     0.011 C 
BRANCH   5   6
ATOM      6  C   UNL d   1      60.739  49.338  51.512  0.00  0.00     0.030 A 
ATOM      7  S   UNL d   1      60.664  49.497  52.268  0.00  0.00    -0.086 SA
ATOM      8  C   UNL d   1      61.390  49.695  52.607  0.00  0.00     0.035 A 
ATOM      9  C   UNL d   1      61.939  49.654  52.026  0.00  0.00     0.007 A 
ATOM     10  C   UNL d   1      61.563  49.433  51.327  0.00  0.00     0.007 A 
ENDBRANCH   5   6
ENDBRANCH   4   5
ENDBRANCH   2   4
BRANCH   1  11
ATOM     11  C   UNL d   1      57.662  49.642  50.608  0.00  0.00     0.194 A 
ATOM     12  N   UNL d   1      56.975  49.658  51.044  0.00  0.00    -0.107 NA
ATOM     13  O   UNL d   1      56.359  49.636  50.543  0.00  0.00    -0.210 OA
ATOM     14  C   UNL d   1      56.616  49.604  49.749  0.00  0.00     0.128 A 
ATOM     15  C   UNL d   1      57.431  49.609  49.796  0.00  0.00     0.068 A 
ATOM     16  C   UNL d   1      56.183  49.575  49.047  0.00  0.00     0.029 C 
ENDBRANCH   1  11
TORSDOF 4
ENDMDL
MODEL 2
REMARK VINA RESULT:      21.2      1.605      4.297
REMARK  4 active torsions:
REMARK  status: ('A' for Active; 'I' for Inactive)
REMARK    1  A    between atoms: N_4  and  C_1 
REMARK       I    between atoms: C_6  and  N_4 
REMARK    2  A    between atoms: C_10  and  C_6 
REMARK    3  A    between atoms: C_8  and  C_11 
REMARK    4  A    between atoms: C_11  and  C_10 
ROOT
ATOM      1  N   UNL d   1      59.332  49.561  51.213  0.00  0.00    -0.187 NA
ATOM      2  C   UNL d   1      58.836  49.598  50.553  0.00  0.00     0.281 C 
ATOM      3  O   UNL d   1      59.123  49.534  49.763  0.00  0.00    -0.265 OA
ENDROOT
BRANCH   2   4
ATOM      4  C   UNL d   1      57.984  49.708  50.673  0.00  0.00     0.063 C 
BRANCH   4   5
ATOM      5  C   UNL d   1      57.477  49.045  50.560  0.00  0.00     0.011 C 
BRANCH   5   6
ATOM      6  C   UNL d   1      56.970  49.053  49.931  0.00  0.00     0.030 A 
ATOM      7  S   UNL d   1      56.908  48.494  49.396  0.00  0.00    -0.086 SA
ATOM      8  C   UNL d   1      56.337  48.681  48.831  0.00  0.00     0.035 A 
ATOM      9  C   UNL d   1      56.033  49.394  49.031  0.00  0.00     0.007 A 
ATOM     10  C   UNL d   1      56.410  49.654  49.716  0.00  0.00     0.007 A 
ENDBRANCH   5   6
ENDBRANCH   4   5
ENDBRANCH   2   4
BRANCH   1  11
ATOM     11  C   UNL d   1      60.141  49.457  51.099  0.00  0.00     0.194 A 
ATOM     12  N   UNL d   1      60.579  49.207  50.460  0.00  0.00    -0.107 NA
ATOM     13  O   UNL d   1      61.346  49.213  50.663  0.00  0.00    -0.210 OA
ATOM     14  C   UNL d   1      61.448  49.470  51.451  0.00  0.00     0.128 A 
ATOM     15  C   UNL d   1      60.692  49.621  51.718  0.00  0.00     0.068 A 
ATOM     16  C   UNL d   1      62.135  49.565  51.899  0.00  0.00     0.029 C 
ENDBRANCH   1  11
TORSDOF 4
ENDMDL
