MODEL 1
REMARK VINA RESULT:      54.5      0.000      0.000
REMARK  4 active torsions:
REMARK  status: ('A' for Active; 'I' for Inactive)
REMARK    1  A    between atoms: C_2  and  S_1 
REMARK    2  A    between atoms: N_11  and  S_1 
REMARK    3  A    between atoms: C_7  and  C_19 
REMARK    4  A    between atoms: C_19  and  N_11 
ROOT
ATOM      1  C   UNL d   1      59.734  49.073  50.497  0.00  0.00     0.133 C 
ENDROOT
BRANCH   1   2
ATOM      2  C   UNL d   1      60.309  49.195  51.084  0.00  0.00     0.120 A 
ATOM      3  N   UNL d   1      60.154  49.273  51.874  0.00  0.00    -0.225 NA
ATOM      4  C   UNL d   1      60.884  49.387  52.269  0.00  0.00     0.148 A 
ATOM      5  C   UNL d   1      61.072  49.498  53.064  0.00  0.00     0.037 A 
ATOM      6  N   UNL d   1      61.480  49.376  51.701  0.00  0.00    -0.288 N 
ATOM      7  C   UNL d   1      61.857  49.597  53.292  0.00  0.00     0.004 A 
ATOM      8  C   UNL d   1      62.037  49.707  54.089  0.00  0.00     0.000 C 
ATOM      9  C   UNL d   1      62.453  49.586  52.725  0.00  0.00     0.019 A 
ATOM     10  C   UNL d   1      62.265  49.475  51.929  0.00  0.00     0.082 A 
ATOM     11  C   UNL d   1      61.125  49.256  50.959  0.00  0.00     0.102 A 
ENDBRANCH   1   2
BRANCH   1  12
ATOM     12  N   UNL d   1      59.227  49.688  50.284  0.00  0.00    -0.155 NA
BRANCH  12  13
ATOM     13  S   UNL d   1      58.432  49.525  50.118  0.00  0.00     0.291 S 
ATOM     14  O   UNL d   1      58.231  49.708  50.906  0.00  0.00    -0.198 OA
ATOM     15  O   UNL d   1      58.639  49.343  49.330  0.00  0.00    -0.198 OA
BRANCH  13  16
ATOM     16  C   UNL d   1      57.641  49.362  49.949  0.00  0.00     0.135 A 
ATOM     17  S   UNL d   1      57.363  48.903  49.334  0.00  0.00    -0.062 SA
ATOM     18  C   UNL d   1      56.540  48.884  49.368  0.00  0.00     0.088 A 
ATOM     19 CL   UNL d   1      56.042  48.484  48.850  0.00  0.00    -0.075 Cl
ATOM     20  C   UNL d   1      56.307  49.345  50.022  0.00  0.00     0.019 A 
ATOM     21  C   UNL d   1      56.987  49.639  50.379  0.00  0.00     0.021 A 
ENDBRANCH  13  16
ENDBRANCH  12  13
ENDBRANCH   1  12
TORSDOF 4
ENDMDL
