MODEL 1
REMARK VINA RESULT:     285.9      0.000      0.000
REMARK  7 active torsions:
REMARK  status: ('A' for Active; 'I' for Inactive)
REMARK    1  A    between atoms: C_7  and  C_1 
REMARK    2  A    between atoms: C_9  and  N_2 
REMARK    3  A    between atoms: C_15  and  C_7 
REMARK    4  A    between atoms: C_8  and  C_9 
REMARK       I    between atoms: N_14  and  C_8 
REMARK    5  A    between atoms: C_20  and  N_14 
REMARK    6  A    between atoms: C_33  and  C_27 
REMARK    7  A    between atoms: C_34  and  C_32 
ROOT
ATOM      1  C   UNL d   1     -56.775-100.645 -41.661  0.00  0.00     0.095 A 
ATOM      2  N   UNL d   1     -56.070-101.208 -40.546  0.00  0.00    -0.300 N 
ATOM      3  C   UNL d   1     -57.504-100.934 -41.325  0.00  0.00     0.202 A 
ATOM      4  C   UNL d   1     -56.065-100.780 -41.275  0.00  0.00     0.087 A 
ATOM      5  C   UNL d   1     -57.482-101.352 -40.607  0.00  0.00     0.055 A 
ATOM      6  C   UNL d   1     -56.778-101.494 -40.213  0.00  0.00     0.067 A 
ATOM      7  C   UNL d   1     -56.786-101.914 -39.497  0.00  0.00     0.018 A 
ATOM      8  C   UNL d   1     -58.196-101.645 -40.263  0.00  0.00     0.005 A 
ATOM      9  O   UNL d   1     -58.206-100.801 -41.707  0.00  0.00    -0.286 OA
ATOM     10  C   UNL d   1     -58.190-102.060 -39.553  0.00  0.00     0.000 A 
ATOM     11  C   UNL d   1     -57.483-102.195 -39.169  0.00  0.00     0.002 A 
ENDROOT
BRANCH   2  12
ATOM     12  C   UNL d   1     -55.365-101.342 -40.163  0.00  0.00     0.144 C 
BRANCH  12  13
ATOM     13  C   UNL d   1     -55.354-101.452 -39.346  0.00  0.00     0.297 C 
ATOM     14  N   UNL d   1     -55.978-101.187 -38.887  0.00  0.00    -0.207 NA
ATOM     15  O   UNL d   1     -54.712-101.830 -38.991  0.00  0.00    -0.264 OA
BRANCH  14  16
ATOM     16  C   UNL d   1     -55.967-101.297 -38.070  0.00  0.00     0.087 A 
ATOM     17  C   UNL d   1     -56.120-102.035 -37.763  0.00  0.00     0.045 A 
ATOM     18  C   UNL d   1     -56.109-102.148 -36.948  0.00  0.00     0.121 A 
ATOM     19  O   UNL d   1     -56.243-102.834 -36.489  0.00  0.00    -0.299 OA
ATOM     20  C   UNL d   1     -55.943-101.512 -36.447  0.00  0.00     0.119 A 
ATOM     21  C   UNL d   1     -56.159-102.620 -35.686  0.00  0.00     0.304 A 
ATOM     22  O   UNL d   1     -55.973-101.800 -35.659  0.00  0.00    -0.300 OA
ATOM     23  C   UNL d   1     -55.790-100.773 -36.754  0.00  0.00     0.028 A 
ATOM     24  C   UNL d   1     -55.802-100.663 -37.571  0.00  0.00     0.021 A 
ENDBRANCH  14  16
ENDBRANCH  12  13
ENDBRANCH   2  12
BRANCH   1  25
ATOM     25  C   UNL d   1     -56.782-100.230 -42.371  0.00  0.00     0.200 C 
ATOM     26  O   UNL d   1     -56.871 -99.417 -42.366  0.00  0.00    -0.286 OA
BRANCH  25  27
ATOM     27  C   UNL d   1     -56.699-100.627 -43.086  0.00  0.00     0.039 A 
ATOM     28  C   UNL d   1     -56.004-100.550 -43.541  0.00  0.00     0.003 A 
ATOM     29  C   UNL d   1     -55.914-100.950 -44.266  0.00  0.00     0.000 A 
ATOM     30  C   UNL d   1     -56.521-101.429 -44.538  0.00  0.00     0.000 A 
ATOM     31  C   UNL d   1     -57.216-101.499 -44.071  0.00  0.00     0.000 A 
ATOM     32  C   UNL d   1     -57.309-101.101 -43.347  0.00  0.00     0.003 A 
BRANCH  30  33
ATOM     33  C   UNL d   1     -56.431-101.830 -45.264  0.00  0.00     0.000 C 
ATOM     34  C   UNL d   1     -55.770-102.293 -45.373  0.00  0.00     0.000 C 
ENDBRANCH  30  33
ENDBRANCH  25  27
ENDBRANCH   1  25
BRANCH  10  35
ATOM     35  C   UNL d   1     -58.902-102.338 -39.234  0.00  0.00     0.000 C 
ATOM     36  C   UNL d   1     -59.010-102.348 -38.405  0.00  0.00     0.000 C 
ENDBRANCH  10  35
TORSDOF 7
ENDMDL
