MODEL 1
REMARK VINA RESULT:      -3.0      0.000      0.000
REMARK  2 active torsions:
REMARK  status: ('A' for Active; 'I' for Inactive)
REMARK    1  A    between atoms: C_5  and  C_1 
REMARK    2  A    between atoms: C_10  and  N_4 
ROOT
ATOM      1  N   UNL d   1      32.198  17.971 -23.680  0.00  0.00    -0.273 N 
ATOM      2  C   UNL d   1      32.777  19.016 -23.065  0.00  0.00     0.057 A 
ATOM      3  C   UNL d   1      32.887  18.170 -24.100  0.00  0.00     0.265 A 
ATOM      4  C   UNL d   1      32.135  18.491 -23.048  0.00  0.00     0.086 A 
ATOM      5  C   UNL d   1      33.241  18.810 -23.722  0.00  0.00     0.066 A 
ATOM      6  O   UNL d   1      33.161  17.785 -24.779  0.00  0.00    -0.267 OA
ENDROOT
BRANCH   2   7
ATOM      7  C   UNL d   1      32.884  19.606 -22.511  0.00  0.00     0.149 A 
ATOM      8  N   UNL d   1      32.937  19.557 -21.719  0.00  0.00    -0.227 NA
ATOM      9  C   UNL d   1      33.044  20.318 -21.410  0.00  0.00     0.099 A 
ATOM     10  C   UNL d   1      33.131  20.585 -20.644  0.00  0.00     0.021 A 
ATOM     11  C   UNL d   1      33.055  20.836 -22.039  0.00  0.00     0.083 A 
ATOM     12  C   UNL d   1      33.230  21.400 -20.515  0.00  0.00     0.002 A 
ATOM     13  C   UNL d   1      33.241  21.918 -21.144  0.00  0.00     0.002 A 
ATOM     14  C   UNL d   1      33.152  21.638 -21.921  0.00  0.00     0.019 A 
ATOM     15  N   UNL d   1      32.954  20.390 -22.729  0.00  0.00    -0.288 N 
ATOM     16  C   UNL d   1      32.929  20.685 -23.511  0.00  0.00     0.101 C 
ENDBRANCH   2   7
BRANCH   1  17
ATOM     17  C   UNL d   1      31.706  17.365 -23.893  0.00  0.00     0.067 A 
ATOM     18  C   UNL d   1      31.039  17.520 -24.339  0.00  0.00     0.018 A 
ATOM     19  C   UNL d   1      30.525  16.909 -24.565  0.00  0.00     0.001 A 
ATOM     20  C   UNL d   1      29.868  17.079 -25.007  0.00  0.00     0.000 C 
ATOM     21  C   UNL d   1      30.697  16.125 -24.332  0.00  0.00     0.000 A 
ATOM     22  C   UNL d   1      31.364  15.970 -23.887  0.00  0.00     0.002 A 
ATOM     23  C   UNL d   1      30.179  15.491 -24.558  0.00  0.00     0.000 C 
ATOM     24  C   UNL d   1      31.871  16.590 -23.665  0.00  0.00     0.018 A 
ENDBRANCH   1  17
TORSDOF 2
ENDMDL
MODEL 2
REMARK VINA RESULT:      -2.9      0.737      1.227
REMARK  2 active torsions:
REMARK  status: ('A' for Active; 'I' for Inactive)
REMARK    1  A    between atoms: C_5  and  C_1 
REMARK    2  A    between atoms: C_10  and  N_4 
ROOT
ATOM      1  N   UNL d   1      32.599  18.481 -23.401  0.00  0.00    -0.273 N 
ATOM      2  C   UNL d   1      32.950  19.603 -22.751  0.00  0.00     0.057 A 
ATOM      3  C   UNL d   1      33.026  18.963 -23.926  0.00  0.00     0.265 A 
ATOM      4  C   UNL d   1      32.555  18.876 -22.683  0.00  0.00     0.086 A 
ATOM      5  C   UNL d   1      33.241  19.649 -23.527  0.00  0.00     0.066 A 
ATOM      6  O   UNL d   1      33.201  18.774 -24.713  0.00  0.00    -0.267 OA
ENDROOT
BRANCH   2   7
ATOM      7  C   UNL d   1      33.011  20.135 -22.135  0.00  0.00     0.149 A 
ATOM      8  N   UNL d   1      33.117  20.003 -21.357  0.00  0.00    -0.227 NA
ATOM      9  C   UNL d   1      33.141  20.731 -20.963  0.00  0.00     0.099 A 
ATOM     10  C   UNL d   1      33.238  20.918 -20.174  0.00  0.00     0.021 A 
ATOM     11  C   UNL d   1      33.046  21.314 -21.524  0.00  0.00     0.083 A 
ATOM     12  C   UNL d   1      33.236  21.718 -19.952  0.00  0.00     0.002 A 
ATOM     13  C   UNL d   1      33.141  22.302 -20.512  0.00  0.00     0.002 A 
ATOM     14  C   UNL d   1      33.043  22.103 -21.313  0.00  0.00     0.019 A 
ATOM     15  N   UNL d   1      32.964  20.940 -22.258  0.00  0.00    -0.288 N 
ATOM     16  C   UNL d   1      32.853  21.317 -22.996  0.00  0.00     0.101 C 
ENDBRANCH   2   7
BRANCH   1  17
ATOM     17  C   UNL d   1      32.299  17.757 -23.604  0.00  0.00     0.067 A 
ATOM     18  C   UNL d   1      32.752  17.086 -23.501  0.00  0.00     0.018 A 
ATOM     19  C   UNL d   1      32.458  16.337 -23.705  0.00  0.00     0.001 A 
ATOM     20  C   UNL d   1      32.919  15.680 -23.596  0.00  0.00     0.000 C 
ATOM     21  C   UNL d   1      31.687  16.274 -24.020  0.00  0.00     0.000 A 
ATOM     22  C   UNL d   1      31.234  16.946 -24.124  0.00  0.00     0.002 A 
ATOM     23  C   UNL d   1      31.374  15.513 -24.233  0.00  0.00     0.000 C 
ATOM     24  C   UNL d   1      31.538  17.691 -23.916  0.00  0.00     0.018 A 
ENDBRANCH   1  17
TORSDOF 2
ENDMDL
MODEL 3
REMARK VINA RESULT:      -2.1      1.387      4.929
REMARK  2 active torsions:
REMARK  status: ('A' for Active; 'I' for Inactive)
REMARK    1  A    between atoms: C_5  and  C_1 
REMARK    2  A    between atoms: C_10  and  N_4 
ROOT
ATOM      1  N   UNL d   1      32.872  20.720 -22.005  0.00  0.00    -0.273 N 
ATOM      2  C   UNL d   1      32.904  19.598 -22.743  0.00  0.00     0.057 A 
ATOM      3  C   UNL d   1      33.081  20.926 -22.782  0.00  0.00     0.265 A 
ATOM      4  C   UNL d   1      32.765  19.907 -21.986  0.00  0.00     0.086 A 
ATOM      5  C   UNL d   1      33.101  20.238 -23.233  0.00  0.00     0.066 A 
ATOM      6  O   UNL d   1      33.241  21.695 -23.046  0.00  0.00    -0.267 OA
ENDROOT
BRANCH   2   7
ATOM      7  C   UNL d   1      32.845  18.802 -22.917  0.00  0.00     0.149 A 
ATOM      8  N   UNL d   1      33.189  18.178 -22.565  0.00  0.00    -0.227 NA
ATOM      9  C   UNL d   1      32.949  17.486 -22.951  0.00  0.00     0.099 A 
ATOM     10  C   UNL d   1      33.130  16.701 -22.822  0.00  0.00     0.021 A 
ATOM     11  C   UNL d   1      32.445  17.707 -23.553  0.00  0.00     0.083 A 
ATOM     12  C   UNL d   1      32.791  16.127 -23.318  0.00  0.00     0.002 A 
ATOM     13  C   UNL d   1      32.288  16.347 -23.920  0.00  0.00     0.002 A 
ATOM     14  C   UNL d   1      32.108  17.149 -24.044  0.00  0.00     0.019 A 
ATOM     15  N   UNL d   1      32.380  18.532 -23.531  0.00  0.00    -0.288 N 
ATOM     16  C   UNL d   1      31.922  19.007 -24.045  0.00  0.00     0.101 C 
ENDBRANCH   2   7
BRANCH   1  17
ATOM     17  C   UNL d   1      32.799  21.259 -21.406  0.00  0.00     0.067 A 
ATOM     18  C   UNL d   1      32.284  21.887 -21.485  0.00  0.00     0.018 A 
ATOM     19  C   UNL d   1      32.198  22.448 -20.879  0.00  0.00     0.001 A 
ATOM     20  C   UNL d   1      31.682  23.066 -20.973  0.00  0.00     0.000 C 
ATOM     21  C   UNL d   1      32.647  22.364 -20.180  0.00  0.00     0.000 A 
ATOM     22  C   UNL d   1      33.163  21.736 -20.101  0.00  0.00     0.002 A 
ATOM     23  C   UNL d   1      32.568  22.932 -19.552  0.00  0.00     0.000 C 
ATOM     24  C   UNL d   1      33.241  21.180 -20.714  0.00  0.00     0.018 A 
ENDBRANCH   1  17
TORSDOF 2
ENDMDL
MODEL 4
REMARK VINA RESULT:      -1.7      1.192      4.865
REMARK  2 active torsions:
REMARK  status: ('A' for Active; 'I' for Inactive)
REMARK    1  A    between atoms: C_5  and  C_1 
REMARK    2  A    between atoms: C_10  and  N_4 
ROOT
ATOM      1  N   UNL d   1      33.035  20.194 -22.684  0.00  0.00    -0.273 N 
ATOM      2  C   UNL d   1      32.961  18.994 -23.284  0.00  0.00     0.057 A 
ATOM      3  C   UNL d   1      33.125  20.307 -23.502  0.00  0.00     0.265 A 
ATOM      4  C   UNL d   1      32.935  19.390 -22.555  0.00  0.00     0.086 A 
ATOM      5  C   UNL d   1      33.079  19.571 -23.869  0.00  0.00     0.066 A 
ATOM      6  O   UNL d   1      33.240  21.037 -23.874  0.00  0.00    -0.267 OA
ENDROOT
BRANCH   2   7
ATOM      7  C   UNL d   1      32.879  18.185 -23.354  0.00  0.00     0.149 A 
ATOM      8  N   UNL d   1      33.223  17.601 -22.938  0.00  0.00    -0.227 NA
ATOM      9  C   UNL d   1      32.955  16.873 -23.225  0.00  0.00     0.099 A 
ATOM     10  C   UNL d   1      33.126  16.106 -23.005  0.00  0.00     0.021 A 
ATOM     11  C   UNL d   1      32.434  17.028 -23.832  0.00  0.00     0.083 A 
ATOM     12  C   UNL d   1      32.757  15.482 -23.412  0.00  0.00     0.002 A 
ATOM     13  C   UNL d   1      32.236  15.638 -24.019  0.00  0.00     0.002 A 
ATOM     14  C   UNL d   1      32.067  16.422 -24.237  0.00  0.00     0.019 A 
ATOM     15  N   UNL d   1      32.386  17.851 -23.912  0.00  0.00    -0.288 N 
ATOM     16  C   UNL d   1      31.919  18.269 -24.466  0.00  0.00     0.101 C 
ENDBRANCH   2   7
BRANCH   1  17
ATOM     17  C   UNL d   1      33.050  20.799 -22.147  0.00  0.00     0.067 A 
ATOM     18  C   UNL d   1      33.132  20.634 -21.351  0.00  0.00     0.018 A 
ATOM     19  C   UNL d   1      33.149  21.244 -20.788  0.00  0.00     0.001 A 
ATOM     20  C   UNL d   1      33.230  21.064 -20.003  0.00  0.00     0.000 C 
ATOM     21  C   UNL d   1      33.082  22.037 -21.044  0.00  0.00     0.000 A 
ATOM     22  C   UNL d   1      33.001  22.201 -21.840  0.00  0.00     0.002 A 
ATOM     23  C   UNL d   1      33.099  22.670 -20.478  0.00  0.00     0.000 C 
ATOM     24  C   UNL d   1      32.985  21.582 -22.395  0.00  0.00     0.018 A 
ENDBRANCH   1  17
TORSDOF 2
ENDMDL
MODEL 5
REMARK VINA RESULT:      -1.5      2.277      5.665
REMARK  2 active torsions:
REMARK  status: ('A' for Active; 'I' for Inactive)
REMARK    1  A    between atoms: C_5  and  C_1 
REMARK    2  A    between atoms: C_10  and  N_4 
ROOT
ATOM      1  N   UNL d   1      32.985  22.106 -20.899  0.00  0.00    -0.273 N 
ATOM      2  C   UNL d   1      33.126  21.176 -21.858  0.00  0.00     0.057 A 
ATOM      3  C   UNL d   1      33.155  22.494 -21.615  0.00  0.00     0.265 A 
ATOM      4  C   UNL d   1      32.968  21.301 -21.053  0.00  0.00     0.086 A 
ATOM      5  C   UNL d   1      33.241  21.923 -22.201  0.00  0.00     0.066 A 
ATOM      6  O   UNL d   1      33.224  23.313 -21.710  0.00  0.00    -0.267 OA
ENDROOT
BRANCH   2   7
ATOM      7  C   UNL d   1      33.150  20.433 -22.197  0.00  0.00     0.149 A 
ATOM      8  N   UNL d   1      33.189  19.718 -21.851  0.00  0.00    -0.227 NA
ATOM      9  C   UNL d   1      33.201  19.136 -22.439  0.00  0.00     0.099 A 
ATOM     10  C   UNL d   1      33.237  18.321 -22.397  0.00  0.00     0.021 A 
ATOM     11  C   UNL d   1      33.168  19.518 -23.159  0.00  0.00     0.083 A 
ATOM     12  C   UNL d   1      33.240  17.885 -23.104  0.00  0.00     0.002 A 
ATOM     13  C   UNL d   1      33.208  18.267 -23.824  0.00  0.00     0.002 A 
ATOM     14  C   UNL d   1      33.171  19.096 -23.858  0.00  0.00     0.019 A 
ATOM     15  N   UNL d   1      33.137  20.330 -23.006  0.00  0.00    -0.288 N 
ATOM     16  C   UNL d   1      33.097  20.941 -23.577  0.00  0.00     0.101 C 
ENDBRANCH   2   7
BRANCH   1  17
ATOM     17  C   UNL d   1      32.865  22.495 -20.200  0.00  0.00     0.067 A 
ATOM     18  C   UNL d   1      33.104  22.153 -19.498  0.00  0.00     0.018 A 
ATOM     19  C   UNL d   1      32.989  22.539 -18.773  0.00  0.00     0.001 A 
ATOM     20  C   UNL d   1      33.231  22.187 -18.086  0.00  0.00     0.000 C 
ATOM     21  C   UNL d   1      32.621  23.290 -18.766  0.00  0.00     0.000 A 
ATOM     22  C   UNL d   1      32.382  23.633 -19.468  0.00  0.00     0.002 A 
ATOM     23  C   UNL d   1      32.497  23.696 -18.030  0.00  0.00     0.000 C 
ATOM     24  C   UNL d   1      32.504  23.236 -20.189  0.00  0.00     0.018 A 
ENDBRANCH   1  17
TORSDOF 2
ENDMDL
MODEL 6
REMARK VINA RESULT:      -1.4      1.371      2.221
REMARK  2 active torsions:
REMARK  status: ('A' for Active; 'I' for Inactive)
REMARK    1  A    between atoms: C_5  and  C_1 
REMARK    2  A    between atoms: C_10  and  N_4 
ROOT
ATOM      1  N   UNL d   1      32.984  19.629 -23.064  0.00  0.00    -0.273 N 
ATOM      2  C   UNL d   1      33.101  20.735 -22.311  0.00  0.00     0.057 A 
ATOM      3  C   UNL d   1      33.157  20.268 -23.566  0.00  0.00     0.265 A 
ATOM      4  C   UNL d   1      32.950  19.919 -22.298  0.00  0.00     0.086 A 
ATOM      5  C   UNL d   1      33.229  20.945 -23.104  0.00  0.00     0.066 A 
ATOM      6  O   UNL d   1      33.241  20.221 -24.389  0.00  0.00    -0.267 OA
ENDROOT
BRANCH   2   7
ATOM      7  C   UNL d   1      33.110  21.197 -21.638  0.00  0.00     0.149 A 
ATOM      8  N   UNL d   1      33.207  20.985 -20.877  0.00  0.00    -0.227 NA
ATOM      9  C   UNL d   1      33.172  21.663 -20.404  0.00  0.00     0.099 A 
ATOM     10  C   UNL d   1      33.236  21.765 -19.596  0.00  0.00     0.021 A 
ATOM     11  C   UNL d   1      33.049  22.298 -20.899  0.00  0.00     0.083 A 
ATOM     12  C   UNL d   1      33.174  22.533 -19.286  0.00  0.00     0.002 A 
ATOM     13  C   UNL d   1      33.051  23.169 -19.781  0.00  0.00     0.002 A 
ATOM     14  C   UNL d   1      32.987  23.056 -20.601  0.00  0.00     0.019 A 
ATOM     15  N   UNL d   1      33.011  22.006 -21.672  0.00  0.00    -0.288 N 
ATOM     16  C   UNL d   1      32.891  22.456 -22.367  0.00  0.00     0.101 C 
ENDBRANCH   2   7
BRANCH   1  17
ATOM     17  C   UNL d   1      32.875  18.872 -23.329  0.00  0.00     0.067 A 
ATOM     18  C   UNL d   1      33.076  18.241 -22.851  0.00  0.00     0.018 A 
ATOM     19  C   UNL d   1      32.970  17.459 -23.108  0.00  0.00     0.001 A 
ATOM     20  C   UNL d   1      33.175  16.845 -22.622  0.00  0.00     0.000 C 
ATOM     21  C   UNL d   1      32.653  17.320 -23.868  0.00  0.00     0.000 A 
ATOM     22  C   UNL d   1      32.451  17.951 -24.346  0.00  0.00     0.002 A 
ATOM     23  C   UNL d   1      32.540  16.524 -24.143  0.00  0.00     0.000 C 
ATOM     24  C   UNL d   1      32.562  18.730 -24.079  0.00  0.00     0.018 A 
ENDBRANCH   1  17
TORSDOF 2
ENDMDL
