MODEL 1
REMARK VINA RESULT:      -4.7      0.000      0.000
REMARK  10 active torsions:
REMARK  status: ('A' for Active; 'I' for Inactive)
REMARK    1  A    between atoms: C_16  and  N_1 
REMARK    2  A    between atoms: S_10  and  C_2 
REMARK    3  A    between atoms: N_8  and  C_9 
REMARK    4  A    between atoms: C_18  and  S_10 
REMARK    5  A    between atoms: C_12  and  C_18 
REMARK       I    between atoms: N_19  and  C_12 
REMARK    6  A    between atoms: C_27  and  C_16 
REMARK    7  A    between atoms: C_25  and  N_19 
REMARK    8  A    between atoms: O_22  and  C_26 
REMARK    9  A    between atoms: C_26  and  C_25 
REMARK   10  A    between atoms: C_29  and  C_27 
ROOT
ATOM      1  N   UNL d   1     -46.570  12.829  23.060  0.00  0.00    -0.253 N 
ATOM      2  C   UNL d   1     -46.052  13.298  22.609  0.00  0.00     0.182 A 
ATOM      3  C   UNL d   1     -47.336  13.082  23.211  0.00  0.00     0.268 A 
ATOM      4  C   UNL d   1     -47.581  13.811  22.905  0.00  0.00     0.076 A 
ATOM      5  N   UNL d   1     -46.302  14.017  22.311  0.00  0.00    -0.222 NA
ATOM      6  C   UNL d   1     -47.068  14.276  22.459  0.00  0.00     0.088 A 
ATOM      7  C   UNL d   1     -48.343  14.057  23.059  0.00  0.00     0.024 A 
ATOM      8  C   UNL d   1     -48.607  14.790  22.759  0.00  0.00     0.065 A 
ATOM      9  O   UNL d   1     -47.849  12.617  23.657  0.00  0.00    -0.267 OA
ATOM     10  C   UNL d   1     -47.321  14.998  22.160  0.00  0.00     0.021 A 
ATOM     11  C   UNL d   1     -48.080  15.251  22.309  0.00  0.00     0.019 A 
ENDROOT
BRANCH   2  12
ATOM     12  S   UNL d   1     -45.275  13.027  22.463  0.00  0.00    -0.044 SA
BRANCH  12  13
ATOM     13  C   UNL d   1     -44.840  13.357  21.846  0.00  0.00     0.101 C 
BRANCH  13  14
ATOM     14  C   UNL d   1     -44.080  13.081  21.667  0.00  0.00     0.286 C 
ATOM     15  O   UNL d   1     -43.915  12.283  21.667  0.00  0.00    -0.265 OA
ATOM     16  N   UNL d   1     -43.475  13.614  21.485  0.00  0.00    -0.204 NA
BRANCH  16  17
ATOM     17  C   UNL d   1     -42.703  13.340  21.303  0.00  0.00     0.129 C 
BRANCH  17  18
ATOM     18  C   UNL d   1     -42.081  13.858  21.346  0.00  0.00     0.137 C 
BRANCH  18  19
ATOM     19  O   UNL d   1     -41.616  13.987  20.679  0.00  0.00    -0.325 OA
ATOM     20  C   UNL d   1     -40.834  14.224  20.765  0.00  0.00     0.182 C 
ENDBRANCH  18  19
ENDBRANCH  17  18
ENDBRANCH  16  17
ENDBRANCH  13  14
ENDBRANCH  12  13
ENDBRANCH   2  12
BRANCH   1  21
ATOM     21  C   UNL d   1     -46.306  12.094  23.360  0.00  0.00     0.085 C 
BRANCH  21  22
ATOM     22  C   UNL d   1     -46.790  11.441  23.307  0.00  0.00     0.019 C 
BRANCH  22  23
ATOM     23  C   UNL d   1     -46.588  10.745  23.695  0.00  0.00     0.002 C 
ATOM     24  C   UNL d   1     -46.573  10.024  23.280  0.00  0.00     0.000 C 
ENDBRANCH  22  23
ENDBRANCH  21  22
ENDBRANCH   1  21
BRANCH   8  25
ATOM     25  N   UNL d   1     -49.374  15.049  22.907  0.00  0.00    -0.300 N 
ATOM     26  C   UNL d   1     -49.495  15.664  23.448  0.00  0.00     0.107 A 
ATOM     27  C   UNL d   1     -50.269  15.922  23.594  0.00  0.00     0.142 A 
ATOM     28  O   UNL d   1     -50.914  15.569  23.204  0.00  0.00    -0.300 OA
ATOM     29  C   UNL d   1     -50.780  14.955  22.666  0.00  0.00     0.142 A 
ATOM     30  C   UNL d   1     -50.013  14.687  22.510  0.00  0.00     0.107 A 
ENDBRANCH   8  25
TORSDOF 10
ENDMDL
MODEL 2
REMARK VINA RESULT:      -4.5      3.110      8.478
REMARK  10 active torsions:
REMARK  status: ('A' for Active; 'I' for Inactive)
REMARK    1  A    between atoms: C_16  and  N_1 
REMARK    2  A    between atoms: S_10  and  C_2 
REMARK    3  A    between atoms: N_8  and  C_9 
REMARK    4  A    between atoms: C_18  and  S_10 
REMARK    5  A    between atoms: C_12  and  C_18 
REMARK       I    between atoms: N_19  and  C_12 
REMARK    6  A    between atoms: C_27  and  C_16 
REMARK    7  A    between atoms: C_25  and  N_19 
REMARK    8  A    between atoms: O_22  and  C_26 
REMARK    9  A    between atoms: C_26  and  C_25 
REMARK   10  A    between atoms: C_29  and  C_27 
ROOT
ATOM      1  N   UNL d   1     -40.262  14.225  20.543  0.00  0.00    -0.253 N 
ATOM      2  C   UNL d   1     -41.009  13.941  20.313  0.00  0.00     0.182 A 
ATOM      3  C   UNL d   1     -39.717  14.468  19.980  0.00  0.00     0.268 A 
ATOM      4  C   UNL d   1     -39.925  14.423  19.180  0.00  0.00     0.076 A 
ATOM      5  N   UNL d   1     -41.206  13.900  19.520  0.00  0.00    -0.222 NA
ATOM      6  C   UNL d   1     -40.665  14.141  18.952  0.00  0.00     0.088 A 
ATOM      7  C   UNL d   1     -39.379  14.665  18.626  0.00  0.00     0.024 A 
ATOM      8  C   UNL d   1     -39.572  14.627  17.814  0.00  0.00     0.065 A 
ATOM      9  O   UNL d   1     -38.977  14.750  20.209  0.00  0.00    -0.267 OA
ATOM     10  C   UNL d   1     -40.861  14.100  18.155  0.00  0.00     0.021 A 
ATOM     11  C   UNL d   1     -40.322  14.340  17.594  0.00  0.00     0.019 A 
ENDROOT
BRANCH   2  12
ATOM     12  S   UNL d   1     -41.555  13.697  20.897  0.00  0.00    -0.044 SA
BRANCH  12  13
ATOM     13  C   UNL d   1     -42.281  13.382  20.668  0.00  0.00     0.101 C 
BRANCH  13  14
ATOM     14  C   UNL d   1     -42.764  12.990  21.213  0.00  0.00     0.286 C 
ATOM     15  O   UNL d   1     -42.471  12.380  21.668  0.00  0.00    -0.265 OA
ATOM     16  N   UNL d   1     -43.555  13.211  21.305  0.00  0.00    -0.204 NA
BRANCH  16  17
ATOM     17  C   UNL d   1     -44.050  12.817  21.857  0.00  0.00     0.129 C 
BRANCH  17  18
ATOM     18  C   UNL d   1     -44.840  12.999  21.877  0.00  0.00     0.137 C 
BRANCH  18  19
ATOM     19  O   UNL d   1     -45.273  12.842  22.559  0.00  0.00    -0.325 OA
ATOM     20  C   UNL d   1     -45.864  13.360  22.797  0.00  0.00     0.182 C 
ENDBRANCH  18  19
ENDBRANCH  17  18
ENDBRANCH  16  17
ENDBRANCH  13  14
ENDBRANCH  12  13
ENDBRANCH   2  12
BRANCH   1  21
ATOM     21  C   UNL d   1     -40.069  14.264  21.356  0.00  0.00     0.085 C 
BRANCH  21  22
ATOM     22  C   UNL d   1     -39.441  13.829  21.641  0.00  0.00     0.019 C 
BRANCH  22  23
ATOM     23  C   UNL d   1     -39.198  13.918  22.420  0.00  0.00     0.002 C 
ATOM     24  C   UNL d   1     -38.808  13.295  22.809  0.00  0.00     0.000 C 
ENDBRANCH  22  23
ENDBRANCH  21  22
ENDBRANCH   1  21
BRANCH   8  25
ATOM     25  N   UNL d   1     -39.029  14.868  17.244  0.00  0.00    -0.300 N 
ATOM     26  C   UNL d   1     -38.876  15.677  17.150  0.00  0.00     0.107 A 
ATOM     27  C   UNL d   1     -38.329  15.915  16.576  0.00  0.00     0.142 A 
ATOM     28  O   UNL d   1     -37.940  15.354  16.101  0.00  0.00    -0.300 OA
ATOM     29  C   UNL d   1     -38.101  14.548  16.205  0.00  0.00     0.142 A 
ATOM     30  C   UNL d   1     -38.645  14.295  16.775  0.00  0.00     0.107 A 
ENDBRANCH   8  25
TORSDOF 10
ENDMDL
MODEL 3
REMARK VINA RESULT:      -4.0      1.442      1.837
REMARK  10 active torsions:
REMARK  status: ('A' for Active; 'I' for Inactive)
REMARK    1  A    between atoms: C_16  and  N_1 
REMARK    2  A    between atoms: S_10  and  C_2 
REMARK    3  A    between atoms: N_8  and  C_9 
REMARK    4  A    between atoms: C_18  and  S_10 
REMARK    5  A    between atoms: C_12  and  C_18 
REMARK       I    between atoms: N_19  and  C_12 
REMARK    6  A    between atoms: C_27  and  C_16 
REMARK    7  A    between atoms: C_25  and  N_19 
REMARK    8  A    between atoms: O_22  and  C_26 
REMARK    9  A    between atoms: C_26  and  C_25 
REMARK   10  A    between atoms: C_29  and  C_27 
ROOT
ATOM      1  N   UNL d   1     -45.141  12.036  22.846  0.00  0.00    -0.253 N 
ATOM      2  C   UNL d   1     -44.911  12.563  22.245  0.00  0.00     0.182 A 
ATOM      3  C   UNL d   1     -45.919  12.012  23.102  0.00  0.00     0.268 A 
ATOM      4  C   UNL d   1     -46.470  12.521  22.752  0.00  0.00     0.076 A 
ATOM      5  N   UNL d   1     -45.461  13.063  21.904  0.00  0.00    -0.222 NA
ATOM      6  C   UNL d   1     -46.242  13.044  22.156  0.00  0.00     0.088 A 
ATOM      7  C   UNL d   1     -47.242  12.492  23.012  0.00  0.00     0.024 A 
ATOM      8  C   UNL d   1     -47.811  12.999  22.669  0.00  0.00     0.065 A 
ATOM      9  O   UNL d   1     -46.147  11.490  23.698  0.00  0.00    -0.267 OA
ATOM     10  C   UNL d   1     -46.796  13.545  21.815  0.00  0.00     0.021 A 
ATOM     11  C   UNL d   1     -47.569  13.522  22.068  0.00  0.00     0.019 A 
ENDROOT
BRANCH   2  12
ATOM     12  S   UNL d   1     -44.114  12.577  21.993  0.00  0.00    -0.044 SA
BRANCH  12  13
ATOM     13  C   UNL d   1     -43.845  13.206  21.533  0.00  0.00     0.101 C 
BRANCH  13  14
ATOM     14  C   UNL d   1     -43.086  13.196  21.203  0.00  0.00     0.286 C 
ATOM     15  O   UNL d   1     -42.848  12.582  20.722  0.00  0.00    -0.265 OA
ATOM     16  N   UNL d   1     -42.555  13.811  21.357  0.00  0.00    -0.204 NA
BRANCH  16  17
ATOM     17  C   UNL d   1     -41.784  13.806  21.025  0.00  0.00     0.129 C 
BRANCH  17  18
ATOM     18  C   UNL d   1     -41.404  14.511  20.903  0.00  0.00     0.137 C 
BRANCH  18  19
ATOM     19  O   UNL d   1     -40.595  14.563  21.041  0.00  0.00    -0.325 OA
ATOM     20  C   UNL d   1     -40.085  14.748  20.424  0.00  0.00     0.182 C 
ENDBRANCH  18  19
ENDBRANCH  17  18
ENDBRANCH  16  17
ENDBRANCH  13  14
ENDBRANCH  12  13
ENDBRANCH   2  12
BRANCH   1  21
ATOM     21  C   UNL d   1     -44.571  11.529  23.189  0.00  0.00     0.085 C 
BRANCH  21  22
ATOM     22  C   UNL d   1     -44.752  10.742  23.304  0.00  0.00     0.019 C 
BRANCH  22  23
ATOM     23  C   UNL d   1     -44.174  10.222  23.570  0.00  0.00     0.002 C 
ATOM     24  C   UNL d   1     -44.362   9.421  23.698  0.00  0.00     0.000 C 
ENDBRANCH  22  23
ENDBRANCH  21  22
ENDBRANCH   1  21
BRANCH   8  25
ATOM     25  N   UNL d   1     -48.593  12.980  22.922  0.00  0.00    -0.300 N 
ATOM     26  C   UNL d   1     -48.920  13.654  23.274  0.00  0.00     0.107 A 
ATOM     27  C   UNL d   1     -49.709  13.629  23.528  0.00  0.00     0.142 A 
ATOM     28  O   UNL d   1     -50.165  12.940  23.431  0.00  0.00    -0.300 OA
ATOM     29  C   UNL d   1     -49.826  12.272  23.078  0.00  0.00     0.142 A 
ATOM     30  C   UNL d   1     -49.040  12.282  22.820  0.00  0.00     0.107 A 
ENDBRANCH   8  25
TORSDOF 10
ENDMDL
