MODEL 1
REMARK VINA RESULT:      66.0      0.000      0.000
REMARK  5 active torsions:
REMARK  status: ('A' for Active; 'I' for Inactive)
REMARK    1  A    between atoms: C_12  and  S_1 
REMARK    2  A    between atoms: N_13  and  S_1 
REMARK    3  A    between atoms: C_2  and  N_6 
REMARK    4  A    between atoms: C_5  and  C_3 
REMARK       I    between atoms: N_6  and  C_8 
REMARK    5  A    between atoms: C_8  and  C_18 
ROOT
ATOM      1  N   UNL d   1     -49.298  27.676  33.769  0.00  0.00    -0.183 NA
ATOM      2  C   UNL d   1     -48.953  27.849  34.492  0.00  0.00     0.281 C 
ATOM      3  O   UNL d   1     -48.905  27.260  35.074  0.00  0.00    -0.265 OA
ENDROOT
BRANCH   1   4
ATOM      4  C   UNL d   1     -49.595  26.927  33.617  0.00  0.00     0.197 A 
ATOM      5  N   UNL d   1     -50.388  26.704  33.649  0.00  0.00    -0.218 NA
ATOM      6  C   UNL d   1     -50.434  25.902  33.457  0.00  0.00     0.113 A 
ATOM      7  C   UNL d   1     -49.670  25.628  33.306  0.00  0.00     0.059 A 
ATOM      8  S   UNL d   1     -49.156  26.262  33.406  0.00  0.00    -0.046 SA
BRANCH   6   9
ATOM      9  C   UNL d   1     -51.121  25.453  33.422  0.00  0.00     0.118 A 
ATOM     10  O   UNL d   1     -51.872  25.681  33.398  0.00  0.00    -0.306 OA
ATOM     11  C   UNL d   1     -52.410  25.105  33.366  0.00  0.00     0.100 A 
ATOM     12  C   UNL d   1     -53.237  25.053  33.334  0.00  0.00     0.025 A 
ATOM     13  C   UNL d   1     -51.954  24.404  33.370  0.00  0.00     0.025 A 
ATOM     14  C   UNL d   1     -53.606  24.319  33.306  0.00  0.00     0.002 A 
ATOM     15  C   UNL d   1     -53.157  23.613  33.309  0.00  0.00     0.000 A 
ATOM     16  C   UNL d   1     -52.332  23.668  33.342  0.00  0.00     0.002 A 
ATOM     17  C   UNL d   1     -51.161  24.627  33.405  0.00  0.00     0.028 A 
ENDBRANCH   6   9
ENDBRANCH   1   4
BRANCH   2  18
ATOM     18  C   UNL d   1     -48.653  28.602  34.645  0.00  0.00     0.058 A 
ATOM     19  C   UNL d   1     -47.955  28.690  35.075  0.00  0.00     0.005 A 
ATOM     20  C   UNL d   1     -47.662  29.437  35.224  0.00  0.00     0.013 A 
ATOM     21  C   UNL d   1     -48.066  30.110  34.944  0.00  0.00     0.104 A 
ATOM     22  C   UNL d   1     -48.766  30.010  34.515  0.00  0.00     0.013 A 
ATOM     23  C   UNL d   1     -49.055  29.263  34.367  0.00  0.00     0.005 A 
BRANCH  21  24
ATOM     24  S   UNL d   1     -47.767  30.868  35.097  0.00  0.00     0.271 S 
ATOM     25  O   UNL d   1     -48.348  31.190  34.616  0.00  0.00    -0.200 OA
ATOM     26  O   UNL d   1     -47.182  30.543  35.581  0.00  0.00    -0.200 OA
BRANCH  24  27
ATOM     27  N   UNL d   1     -47.471  31.620  35.248  0.00  0.00    -0.226 N 
ATOM     28  C   UNL d   1     -47.780  32.268  34.850  0.00  0.00     0.111 C 
ATOM     29  C   UNL d   1     -46.869  31.722  35.795  0.00  0.00     0.111 C 
ENDBRANCH  24  27
ENDBRANCH  21  24
ENDBRANCH   2  18
TORSDOF 5
ENDMDL
