MODEL 1
REMARK VINA RESULT:      -1.8      0.000      0.000
REMARK  5 active torsions:
REMARK  status: ('A' for Active; 'I' for Inactive)
REMARK    1  A    between atoms: C_8  and  C_1 
REMARK    2  A    between atoms: N_4  and  C_2 
REMARK       I    between atoms: C_6  and  N_4 
REMARK    3  A    between atoms: C_9  and  C_6 
REMARK    4  A    between atoms: O_20  and  C_15 
REMARK    5  A    between atoms: C_21  and  O_20 
ROOT
ATOM      1  C   UNL d   1     -43.356-122.677 -49.291  0.00  0.00     0.177 A 
ATOM      2  C   UNL d   1     -42.660-123.009 -49.586  0.00  0.00     0.114 A 
ATOM      3  O   UNL d   1     -43.331-122.712 -48.457  0.00  0.00    -0.301 OA
ATOM      4  C   UNL d   1     -42.199-123.251 -48.947  0.00  0.00     0.043 A 
ATOM      5  C   UNL d   1     -42.624-123.063 -48.238  0.00  0.00     0.102 A 
ATOM      6  C   UNL d   1     -41.464-123.612 -48.901  0.00  0.00     0.004 A 
ATOM      7  C   UNL d   1     -42.292-123.245 -47.512  0.00  0.00     0.025 A 
ATOM      8  C   UNL d   1     -41.126-123.797 -48.166  0.00  0.00     0.000 A 
ATOM      9  C   UNL d   1     -41.531-123.618 -47.477  0.00  0.00     0.002 A 
ENDROOT
BRANCH   2  10
ATOM     10  N   UNL d   1     -42.473-123.078 -50.410  0.00  0.00    -0.206 NA
ATOM     11  C   UNL d   1     -41.855-122.629 -50.727  0.00  0.00     0.279 C 
ATOM     12  O   UNL d   1     -41.416-122.116 -50.260  0.00  0.00    -0.265 OA
BRANCH  11  13
ATOM     13  C   UNL d   1     -41.673-122.697 -51.531  0.00  0.00     0.058 A 
ATOM     14  C   UNL d   1     -41.468-122.033 -51.947  0.00  0.00     0.007 A 
ATOM     15  C   UNL d   1     -41.282-122.102 -52.768  0.00  0.00     0.025 A 
ATOM     16  C   UNL d   1     -41.313-122.838 -53.128  0.00  0.00     0.100 A 
ATOM     17  C   UNL d   1     -41.523-123.525 -52.704  0.00  0.00     0.025 A 
ATOM     18  C   UNL d   1     -41.709-123.457 -51.882  0.00  0.00     0.007 A 
BRANCH  16  19
ATOM     19  O   UNL d   1     -41.127-122.906 -53.949  0.00  0.00    -0.305 OA
BRANCH  19  20
ATOM     20  C   UNL d   1     -41.693-122.717 -54.517  0.00  0.00     0.123 C 
ATOM     21  C   UNL d   1     -41.460-122.488 -55.267  0.00  0.00     0.029 C 
ENDBRANCH  19  20
ENDBRANCH  16  19
ENDBRANCH  11  13
ENDBRANCH   2  10
BRANCH   1  22
ATOM     22  C   UNL d   1     -43.954-122.372 -49.768  0.00  0.00     0.321 C 
ATOM     23  O   UNL d   1     -44.542-122.885 -50.080  0.00  0.00    -0.261 OA
ATOM     24  N   UNL d   1     -43.981-121.554 -49.945  0.00  0.00    -0.101 N 
ENDBRANCH   1  22
TORSDOF 5
ENDMDL
MODEL 2
REMARK VINA RESULT:       0.8      1.311      4.731
REMARK  5 active torsions:
REMARK  status: ('A' for Active; 'I' for Inactive)
REMARK    1  A    between atoms: C_8  and  C_1 
REMARK    2  A    between atoms: N_4  and  C_2 
REMARK       I    between atoms: C_6  and  N_4 
REMARK    3  A    between atoms: C_9  and  C_6 
REMARK    4  A    between atoms: O_20  and  C_15 
REMARK    5  A    between atoms: C_21  and  O_20 
ROOT
ATOM      1  C   UNL d   1     -41.496-121.407 -52.874  0.00  0.00     0.177 A 
ATOM      2  C   UNL d   1     -41.373-122.183 -52.622  0.00  0.00     0.114 A 
ATOM      3  O   UNL d   1     -41.530-121.402 -53.708  0.00  0.00    -0.301 OA
ATOM      4  C   UNL d   1     -41.329-122.666 -53.289  0.00  0.00     0.043 A 
ATOM      5  C   UNL d   1     -41.428-122.172 -53.970  0.00  0.00     0.102 A 
ATOM      6  C   UNL d   1     -41.214-123.473 -53.379  0.00  0.00     0.004 A 
ATOM      7  C   UNL d   1     -41.408-122.511 -54.716  0.00  0.00     0.025 A 
ATOM      8  C   UNL d   1     -41.194-123.817 -54.135  0.00  0.00     0.000 A 
ATOM      9  C   UNL d   1     -41.289-123.346 -54.798  0.00  0.00     0.002 A 
ENDROOT
BRANCH   2  10
ATOM     10  N   UNL d   1     -41.306-122.420 -51.810  0.00  0.00    -0.206 NA
ATOM     11  C   UNL d   1     -41.948-122.782 -51.437  0.00  0.00     0.279 C 
ATOM     12  O   UNL d   1     -42.653-122.919 -51.836  0.00  0.00    -0.265 OA
BRANCH  11  13
ATOM     13  C   UNL d   1     -41.883-123.012 -50.645  0.00  0.00     0.058 A 
ATOM     14  C   UNL d   1     -41.233-123.432 -50.408  0.00  0.00     0.007 A 
ATOM     15  C   UNL d   1     -41.167-123.668 -49.599  0.00  0.00     0.025 A 
ATOM     16  C   UNL d   1     -41.760-123.467 -49.071  0.00  0.00     0.100 A 
ATOM     17  C   UNL d   1     -42.432-123.033 -49.311  0.00  0.00     0.025 A 
ATOM     18  C   UNL d   1     -42.499-122.798 -50.119  0.00  0.00     0.007 A 
BRANCH  16  19
ATOM     19  O   UNL d   1     -41.694-123.702 -48.263  0.00  0.00    -0.305 OA
BRANCH  19  20
ATOM     20  C   UNL d   1     -41.545-123.138 -47.681  0.00  0.00     0.123 C 
ATOM     21  C   UNL d   1     -41.414-123.373 -46.907  0.00  0.00     0.029 C 
ENDBRANCH  19  20
ENDBRANCH  16  19
ENDBRANCH  11  13
ENDBRANCH   2  10
BRANCH   1  22
ATOM     22  C   UNL d   1     -41.569-120.767 -52.361  0.00  0.00     0.321 C 
ATOM     23  O   UNL d   1     -41.122-120.749 -51.648  0.00  0.00    -0.261 OA
ATOM     24  N   UNL d   1     -42.085-120.132 -52.542  0.00  0.00    -0.101 N 
ENDBRANCH   1  22
TORSDOF 5
ENDMDL
