MODEL 1
REMARK VINA RESULT:      46.7      0.000      0.000
REMARK  3 active torsions:
REMARK  status: ('A' for Active; 'I' for Inactive)
REMARK    1  A    between atoms: N_5  and  C_1 
REMARK    2  A    between atoms: C_8  and  C_2 
REMARK       I    between atoms: C_7  and  N_5 
REMARK    3  A    between atoms: C_9  and  C_7 
ROOT
ATOM      1  C   UNL d   1     -50.790  26.011  33.486  0.00  0.00     0.119 A 
ATOM      2  C   UNL d   1     -51.489  25.560  33.535  0.00  0.00     0.084 A 
ATOM      3  S   UNL d   1     -50.159  25.490  33.466  0.00  0.00    -0.068 SA
ATOM      4  C   UNL d   1     -51.278  24.763  33.545  0.00  0.00     0.013 A 
ATOM      5  C   UNL d   1     -50.449  24.720  33.502  0.00  0.00     0.031 A 
ATOM      6  C   UNL d   1     -51.789  24.122  33.589  0.00  0.00     0.001 C 
ATOM      7  C   UNL d   1     -50.006  24.029  33.497  0.00  0.00     0.007 C 
ENDROOT
BRANCH   1   8
ATOM      8  N   UNL d   1     -50.749  26.831  33.462  0.00  0.00    -0.200 NA
ATOM      9  C   UNL d   1     -50.062  27.212  33.714  0.00  0.00     0.302 C 
ATOM     10  O   UNL d   1     -49.416  26.779  33.991  0.00  0.00    -0.263 OA
BRANCH   9  11
ATOM     11  C   UNL d   1     -50.028  28.042  33.687  0.00  0.00     0.158 A 
ATOM     12  O   UNL d   1     -49.425  28.508  34.004  0.00  0.00    -0.300 OA
ATOM     13  C   UNL d   1     -49.614  29.312  33.851  0.00  0.00     0.123 A 
ATOM     14  C   UNL d   1     -50.325  29.324  33.445  0.00  0.00     0.029 A 
ATOM     15  C   UNL d   1     -50.594  28.548  33.336  0.00  0.00     0.032 A 
ENDBRANCH   9  11
ENDBRANCH   1   8
BRANCH   2  16
ATOM     16  C   UNL d   1     -52.254  25.860  33.567  0.00  0.00     0.299 C 
ATOM     17  O   UNL d   1     -52.390  26.667  33.411  0.00  0.00    -0.264 OA
ATOM     18  N   UNL d   1     -52.895  25.369  33.755  0.00  0.00    -0.102 N 
ENDBRANCH   2  16
TORSDOF 3
ENDMDL
