MODEL 1
REMARK VINA RESULT:      -8.7      0.000      0.000
REMARK  2 active torsions:
REMARK  status: ('A' for Active; 'I' for Inactive)
REMARK    1  A    between atoms: C_6  and  C_1 
REMARK    2  A    between atoms: O_12  and  C_9 
ROOT
ATOM      1  C   UNL d   1      52.424  33.713  53.478  0.00  0.00     0.162 A 
ATOM      2  N   UNL d   1      52.727  34.125  54.158  0.00  0.00    -0.225 NA
ATOM      3  N   UNL d   1      52.958  33.109  53.304  0.00  0.00    -0.225 NA
ATOM      4  C   UNL d   1      53.417  33.771  54.375  0.00  0.00     0.101 A 
ATOM      5  C   UNL d   1      53.563  33.126  53.833  0.00  0.00     0.101 A 
ATOM      6  C   UNL d   1      53.984  33.878  54.965  0.00  0.00     0.021 A 
ATOM      7  C   UNL d   1      54.237  32.660  53.920  0.00  0.00     0.021 A 
ATOM      8  C   UNL d   1      54.748  32.820  54.517  0.00  0.00     0.002 A 
ATOM      9  C   UNL d   1      54.607  33.443  55.041  0.00  0.00     0.002 A 
ENDROOT
BRANCH   1  10
ATOM     10  C   UNL d   1      51.727  33.893  53.075  0.00  0.00     0.036 A 
ATOM     11  C   UNL d   1      50.996  33.744  53.428  0.00  0.00     0.005 A 
ATOM     12  C   UNL d   1      50.299  33.924  53.025  0.00  0.00     0.024 A 
ATOM     13  C   UNL d   1      50.333  34.254  52.270  0.00  0.00     0.094 A 
ATOM     14  C   UNL d   1      51.065  34.405  51.913  0.00  0.00     0.024 A 
ATOM     15  C   UNL d   1      51.762  34.225  52.316  0.00  0.00     0.005 A 
BRANCH  13  16
ATOM     16  O   UNL d   1      49.636  34.434  51.867  0.00  0.00    -0.328 OA
ATOM     17  C   UNL d   1      49.174  34.394  51.184  0.00  0.00     0.181 C 
ENDBRANCH  13  16
ENDBRANCH   1  10
TORSDOF 2
ENDMDL
MODEL 2
REMARK VINA RESULT:      -8.3      2.119      3.109
REMARK  2 active torsions:
REMARK  status: ('A' for Active; 'I' for Inactive)
REMARK    1  A    between atoms: C_6  and  C_1 
REMARK    2  A    between atoms: O_12  and  C_9 
ROOT
ATOM      1  C   UNL d   1      53.114  32.654  53.702  0.00  0.00     0.162 A 
ATOM      2  N   UNL d   1      52.580  32.235  53.188  0.00  0.00    -0.225 NA
ATOM      3  N   UNL d   1      53.653  32.101  53.994  0.00  0.00    -0.225 NA
ATOM      4  C   UNL d   1      52.802  31.461  53.179  0.00  0.00     0.101 A 
ATOM      5  C   UNL d   1      53.482  31.376  53.691  0.00  0.00     0.101 A 
ATOM      6  C   UNL d   1      52.541  30.769  52.813  0.00  0.00     0.021 A 
ATOM      7  C   UNL d   1      53.832  30.637  53.791  0.00  0.00     0.021 A 
ATOM      8  C   UNL d   1      53.526  30.004  53.404  0.00  0.00     0.002 A 
ATOM      9  C   UNL d   1      52.869  30.087  52.910  0.00  0.00     0.002 A 
ENDROOT
BRANCH   1  10
ATOM     10  C   UNL d   1      53.088  33.461  53.871  0.00  0.00     0.036 A 
ATOM     11  C   UNL d   1      53.322  33.735  54.613  0.00  0.00     0.005 A 
ATOM     12  C   UNL d   1      53.296  34.542  54.782  0.00  0.00     0.024 A 
ATOM     13  C   UNL d   1      53.036  35.075  54.209  0.00  0.00     0.094 A 
ATOM     14  C   UNL d   1      52.799  34.802  53.463  0.00  0.00     0.024 A 
ATOM     15  C   UNL d   1      52.825  33.995  53.294  0.00  0.00     0.005 A 
BRANCH  13  16
ATOM     16  O   UNL d   1      53.010  35.882  54.378  0.00  0.00    -0.328 OA
ATOM     17  C   UNL d   1      53.320  36.542  54.766  0.00  0.00     0.181 C 
ENDBRANCH  13  16
ENDBRANCH   1  10
TORSDOF 2
ENDMDL
MODEL 3
REMARK VINA RESULT:      -8.1      2.554      4.020
REMARK  2 active torsions:
REMARK  status: ('A' for Active; 'I' for Inactive)
REMARK    1  A    between atoms: C_6  and  C_1 
REMARK    2  A    between atoms: O_12  and  C_9 
ROOT
ATOM      1  C   UNL d   1      52.779  32.205  53.367  0.00  0.00     0.162 A 
ATOM      2  N   UNL d   1      53.264  32.865  53.596  0.00  0.00    -0.225 NA
ATOM      3  N   UNL d   1      52.131  32.510  52.957  0.00  0.00    -0.225 NA
ATOM      4  C   UNL d   1      52.910  33.537  53.328  0.00  0.00     0.101 A 
ATOM      5  C   UNL d   1      52.191  33.312  52.923  0.00  0.00     0.101 A 
ATOM      6  C   UNL d   1      53.069  34.346  53.351  0.00  0.00     0.021 A 
ATOM      7  C   UNL d   1      51.709  33.890  52.588  0.00  0.00     0.021 A 
ATOM      8  C   UNL d   1      51.924  34.660  52.648  0.00  0.00     0.002 A 
ATOM      9  C   UNL d   1      52.618  34.877  53.039  0.00  0.00     0.002 A 
ENDROOT
BRANCH   1  10
ATOM     10  C   UNL d   1      52.937  31.411  53.528  0.00  0.00     0.036 A 
ATOM     11  C   UNL d   1      53.330  31.201  54.222  0.00  0.00     0.005 A 
ATOM     12  C   UNL d   1      53.488  30.408  54.384  0.00  0.00     0.024 A 
ATOM     13  C   UNL d   1      53.251  29.824  53.852  0.00  0.00     0.094 A 
ATOM     14  C   UNL d   1      52.856  30.031  53.154  0.00  0.00     0.024 A 
ATOM     15  C   UNL d   1      52.698  30.825  52.992  0.00  0.00     0.005 A 
BRANCH  13  16
ATOM     16  O   UNL d   1      53.409  29.030  54.014  0.00  0.00    -0.328 OA
ATOM     17  C   UNL d   1      53.580  28.432  54.556  0.00  0.00     0.181 C 
ENDBRANCH  13  16
ENDBRANCH   1  10
TORSDOF 2
ENDMDL
MODEL 4
REMARK VINA RESULT:      -7.7      1.383      2.001
REMARK  2 active torsions:
REMARK  status: ('A' for Active; 'I' for Inactive)
REMARK    1  A    between atoms: C_6  and  C_1 
REMARK    2  A    between atoms: O_12  and  C_9 
ROOT
ATOM      1  C   UNL d   1      52.131  32.582  53.066  0.00  0.00     0.162 A 
ATOM      2  N   UNL d   1      52.059  31.774  52.808  0.00  0.00    -0.225 NA
ATOM      3  N   UNL d   1      52.864  32.652  53.439  0.00  0.00    -0.225 NA
ATOM      4  C   UNL d   1      52.729  31.384  53.025  0.00  0.00     0.101 A 
ATOM      5  C   UNL d   1      53.240  31.941  53.426  0.00  0.00     0.101 A 
ATOM      6  C   UNL d   1      53.023  30.616  52.956  0.00  0.00     0.021 A 
ATOM      7  C   UNL d   1      53.972  31.696  53.713  0.00  0.00     0.021 A 
ATOM      8  C   UNL d   1      54.195  30.932  53.610  0.00  0.00     0.002 A 
ATOM      9  C   UNL d   1      53.702  30.394  53.224  0.00  0.00     0.002 A 
ENDROOT
BRANCH   1  10
ATOM     10  C   UNL d   1      51.569  33.176  52.957  0.00  0.00     0.036 A 
ATOM     11  C   UNL d   1      51.692  33.762  52.390  0.00  0.00     0.005 A 
ATOM     12  C   UNL d   1      51.129  34.356  52.281  0.00  0.00     0.024 A 
ATOM     13  C   UNL d   1      50.444  34.363  52.739  0.00  0.00     0.094 A 
ATOM     14  C   UNL d   1      50.318  33.775  53.310  0.00  0.00     0.024 A 
ATOM     15  C   UNL d   1      50.880  33.182  53.419  0.00  0.00     0.005 A 
BRANCH  13  16
ATOM     16  O   UNL d   1      49.882  34.957  52.631  0.00  0.00    -0.328 OA
ATOM     17  C   UNL d   1      49.138  35.275  52.794  0.00  0.00     0.181 C 
ENDBRANCH  13  16
ENDBRANCH   1  10
TORSDOF 2
ENDMDL
MODEL 5
REMARK VINA RESULT:      -7.1      1.683      4.176
REMARK  2 active torsions:
REMARK  status: ('A' for Active; 'I' for Inactive)
REMARK    1  A    between atoms: C_6  and  C_1 
REMARK    2  A    between atoms: O_12  and  C_9 
ROOT
ATOM      1  C   UNL d   1      51.916  34.031  53.286  0.00  0.00     0.162 A 
ATOM      2  N   UNL d   1      51.881  33.969  52.438  0.00  0.00    -0.225 NA
ATOM      3  N   UNL d   1      51.160  34.234  53.546  0.00  0.00    -0.225 NA
ATOM      4  C   UNL d   1      51.126  34.131  52.210  0.00  0.00     0.101 A 
ATOM      5  C   UNL d   1      50.669  34.299  52.912  0.00  0.00     0.101 A 
ATOM      6  C   UNL d   1      50.713  34.171  51.496  0.00  0.00     0.021 A 
ATOM      7  C   UNL d   1      49.868  34.486  52.849  0.00  0.00     0.021 A 
ATOM      8  C   UNL d   1      49.529  34.507  52.122  0.00  0.00     0.002 A 
ATOM      9  C   UNL d   1      49.971  34.345  51.443  0.00  0.00     0.002 A 
ENDROOT
BRANCH   1  10
ATOM     10  C   UNL d   1      52.587  33.909  53.751  0.00  0.00     0.036 A 
ATOM     11  C   UNL d   1      52.926  34.540  54.160  0.00  0.00     0.005 A 
ATOM     12  C   UNL d   1      53.597  34.417  54.625  0.00  0.00     0.024 A 
ATOM     13  C   UNL d   1      53.927  33.664  54.681  0.00  0.00     0.094 A 
ATOM     14  C   UNL d   1      53.588  33.029  54.272  0.00  0.00     0.024 A 
ATOM     15  C   UNL d   1      52.918  33.151  53.807  0.00  0.00     0.005 A 
BRANCH  13  16
ATOM     16  O   UNL d   1      54.598  33.542  55.146  0.00  0.00    -0.328 OA
ATOM     17  C   UNL d   1      55.387  33.710  55.321  0.00  0.00     0.181 C 
ENDBRANCH  13  16
ENDBRANCH   1  10
TORSDOF 2
ENDMDL
MODEL 6
REMARK VINA RESULT:      -7.0      2.944      3.468
REMARK  2 active torsions:
REMARK  status: ('A' for Active; 'I' for Inactive)
REMARK    1  A    between atoms: C_6  and  C_1 
REMARK    2  A    between atoms: O_12  and  C_9 
ROOT
ATOM      1  C   UNL d   1      53.951  32.006  54.079  0.00  0.00     0.162 A 
ATOM      2  N   UNL d   1      53.862  32.307  54.870  0.00  0.00    -0.225 NA
ATOM      3  N   UNL d   1      54.511  32.480  53.701  0.00  0.00    -0.225 NA
ATOM      4  C   UNL d   1      54.356  32.938  54.951  0.00  0.00     0.101 A 
ATOM      5  C   UNL d   1      54.768  33.048  54.210  0.00  0.00     0.101 A 
ATOM      6  C   UNL d   1      54.547  33.474  55.549  0.00  0.00     0.021 A 
ATOM      7  C   UNL d   1      55.315  33.659  54.129  0.00  0.00     0.021 A 
ATOM      8  C   UNL d   1      55.453  34.144  54.752  0.00  0.00     0.002 A 
ATOM      9  C   UNL d   1      55.055  34.038  55.468  0.00  0.00     0.002 A 
ENDROOT
BRANCH   1  10
ATOM     10  C   UNL d   1      53.548  31.361  53.760  0.00  0.00     0.036 A 
ATOM     11  C   UNL d   1      53.713  30.598  54.026  0.00  0.00     0.005 A 
ATOM     12  C   UNL d   1      53.310  29.953  53.707  0.00  0.00     0.024 A 
ATOM     13  C   UNL d   1      52.742  30.071  53.121  0.00  0.00     0.094 A 
ATOM     14  C   UNL d   1      52.573  30.836  52.852  0.00  0.00     0.024 A 
ATOM     15  C   UNL d   1      52.977  31.481  53.171  0.00  0.00     0.005 A 
BRANCH  13  16
ATOM     16  O   UNL d   1      52.339  29.426  52.802  0.00  0.00    -0.328 OA
ATOM     17  C   UNL d   1      52.201  28.612  52.772  0.00  0.00     0.181 C 
ENDBRANCH  13  16
ENDBRANCH   1  10
TORSDOF 2
ENDMDL
MODEL 7
REMARK VINA RESULT:      -6.5      2.017      4.601
REMARK  2 active torsions:
REMARK  status: ('A' for Active; 'I' for Inactive)
REMARK    1  A    between atoms: C_6  and  C_1 
REMARK    2  A    between atoms: O_12  and  C_9 
ROOT
ATOM      1  C   UNL d   1      49.958  34.571  52.652  0.00  0.00     0.162 A 
ATOM      2  N   UNL d   1      49.612  35.109  53.213  0.00  0.00    -0.225 NA
ATOM      3  N   UNL d   1      49.453  34.543  52.000  0.00  0.00    -0.225 NA
ATOM      4  C   UNL d   1      48.926  35.387  52.898  0.00  0.00     0.101 A 
ATOM      5  C   UNL d   1      48.825  35.029  52.128  0.00  0.00     0.101 A 
ATOM      6  C   UNL d   1      48.330  35.909  53.131  0.00  0.00     0.021 A 
ATOM      7  C   UNL d   1      48.164  35.213  51.672  0.00  0.00     0.021 A 
ATOM      8  C   UNL d   1      47.622  35.729  51.960  0.00  0.00     0.002 A 
ATOM      9  C   UNL d   1      47.719  36.076  52.703  0.00  0.00     0.002 A 
ENDROOT
BRANCH   1  10
ATOM     10  C   UNL d   1      50.666  34.159  52.751  0.00  0.00     0.036 A 
ATOM     11  C   UNL d   1      51.351  34.419  52.374  0.00  0.00     0.005 A 
ATOM     12  C   UNL d   1      52.059  34.007  52.473  0.00  0.00     0.024 A 
ATOM     13  C   UNL d   1      52.081  33.334  52.950  0.00  0.00     0.094 A 
ATOM     14  C   UNL d   1      51.394  33.070  53.330  0.00  0.00     0.024 A 
ATOM     15  C   UNL d   1      50.686  33.482  53.231  0.00  0.00     0.005 A 
BRANCH  13  16
ATOM     16  O   UNL d   1      52.789  32.922  53.049  0.00  0.00    -0.328 OA
ATOM     17  C   UNL d   1      53.482  32.784  53.476  0.00  0.00     0.181 C 
ENDBRANCH  13  16
ENDBRANCH   1  10
TORSDOF 2
ENDMDL
