MODEL 1
REMARK VINA RESULT:     127.2      0.000      0.000
REMARK  8 active torsions:
REMARK  status: ('A' for Active; 'I' for Inactive)
REMARK    1  A    between atoms: N_4  and  S_1 
REMARK    2  A    between atoms: C_10  and  S_1 
REMARK    3  A    between atoms: C_7  and  N_2 
REMARK    4  A    between atoms: N_3  and  C_6 
REMARK    5  A    between atoms: C_5  and  N_4 
REMARK    6  A    between atoms: C_6  and  C_5 
REMARK    7  A    between atoms: C_11  and  C_6 
REMARK    8  A    between atoms: O_19  and  C_17 
ROOT
ATOM      1  C   UNL d   1      59.682  48.608  50.752  0.00  0.00     0.086 C 
ENDROOT
BRANCH   1   2
ATOM      2  N   UNL d   1      60.005  47.890  50.497  0.00  0.00    -0.300 N 
ATOM      3  C   UNL d   1      60.427  47.855  49.785  0.00  0.00     0.100 A 
ATOM      4  C   UNL d   1      60.748  47.143  49.531  0.00  0.00     0.100 A 
ATOM      5  N   UNL d   1      60.650  46.462  49.982  0.00  0.00    -0.300 N 
ATOM      6  C   UNL d   1      60.232  46.494  50.689  0.00  0.00     0.100 A 
ATOM      7  C   UNL d   1      59.907  47.210  50.949  0.00  0.00     0.100 A 
BRANCH   5   8
ATOM      8  C   UNL d   1      60.971  45.750  49.727  0.00  0.00     0.086 A 
ATOM      9  C   UNL d   1      61.775  45.696  49.569  0.00  0.00     0.110 A 
ATOM     10  C   UNL d   1      62.099  44.982  49.313  0.00  0.00     0.026 A 
ATOM     11  C   UNL d   1      61.609  44.316  49.215  0.00  0.00     0.002 A 
ATOM     12  C   UNL d   1      60.802  44.372  49.375  0.00  0.00     0.002 A 
ATOM     13  C   UNL d   1      60.482  45.084  49.630  0.00  0.00     0.019 A 
BRANCH   9  14
ATOM     14  O   UNL d   1      62.259  46.355  49.665  0.00  0.00    -0.327 OA
ATOM     15  C   UNL d   1      62.908  46.465  49.174  0.00  0.00     0.181 C 
ENDBRANCH   9  14
ENDBRANCH   5   8
ENDBRANCH   1   2
BRANCH   1  16
ATOM     16  C   UNL d   1      60.136  49.128  51.218  0.00  0.00     0.130 C 
BRANCH  16  17
ATOM     17  N   UNL d   1      60.775  48.836  51.652  0.00  0.00    -0.155 NA
BRANCH  17  18
ATOM     18  S   UNL d   1      61.481  49.268  51.683  0.00  0.00     0.285 S 
ATOM     19  O   UNL d   1      62.184  49.699  51.715  0.00  0.00    -0.198 OA
ATOM     20  O   UNL d   1      61.593  49.125  50.875  0.00  0.00    -0.198 OA
BRANCH  18  21
ATOM     21  C   UNL d   1      61.362  49.409  52.495  0.00  0.00     0.105 A 
ATOM     22  C   UNL d   1      60.603  49.565  52.774  0.00  0.00     0.013 A 
ATOM     23  C   UNL d   1      60.480  49.705  53.573  0.00  0.00     0.001 A 
ATOM     24  C   UNL d   1      61.127  49.690  54.112  0.00  0.00     0.000 A 
ATOM     25  C   UNL d   1      61.890  49.531  53.823  0.00  0.00     0.001 A 
ATOM     26  C   UNL d   1      62.001  49.392  53.013  0.00  0.00     0.013 A 
ENDBRANCH  18  21
ENDBRANCH  17  18
ENDBRANCH  16  17
ENDBRANCH   1  16
BRANCH   1  27
ATOM     27  C   UNL d   1      58.912  48.813  50.546  0.00  0.00     0.037 A 
ATOM     28  C   UNL d   1      58.546  48.447  49.908  0.00  0.00     0.100 A 
ATOM     29  N   UNL d   1      57.768  48.653  49.700  0.00  0.00    -0.242 NA
ATOM     30  C   UNL d   1      57.365  49.224  50.131  0.00  0.00     0.099 A 
ATOM     31  C   UNL d   1      57.731  49.590  50.769  0.00  0.00     0.021 A 
ATOM     32  C   UNL d   1      58.508  49.384  50.977  0.00  0.00     0.005 A 
ENDBRANCH   1  27
TORSDOF 8
ENDMDL
