MODEL 1
REMARK VINA RESULT:      -4.6      0.000      0.000
REMARK  7 active torsions:
REMARK  status: ('A' for Active; 'I' for Inactive)
REMARK    1  A    between atoms: C_7  and  N_1 
REMARK    2  A    between atoms: C_6  and  C_4 
REMARK    3  A    between atoms: C_9  and  C_6 
REMARK    4  A    between atoms: C_8  and  C_7 
REMARK       I    between atoms: N_12  and  C_8 
REMARK    5  A    between atoms: C_10  and  C_9 
REMARK    6  A    between atoms: C_16  and  C_10 
REMARK    7  A    between atoms: C_15  and  N_12 
ROOT
ATOM      1  N   UNL d   1     -46.057  12.875  22.402  0.00  0.00    -0.230 N 
ATOM      2  C   UNL d   1     -46.189  12.634  23.184  0.00  0.00     0.299 A 
ATOM      3  C   UNL d   1     -46.593  13.479  22.230  0.00  0.00     0.274 A 
ATOM      4  C   UNL d   1     -47.056  13.613  22.904  0.00  0.00     0.090 A 
ATOM      5  S   UNL d   1     -46.801  13.088  23.487  0.00  0.00    -0.022 SA
ATOM      6  O   UNL d   1     -45.771  12.040  23.579  0.00  0.00    -0.259 OA
ATOM      7  O   UNL d   1     -46.657  13.882  21.508  0.00  0.00    -0.266 OA
ENDROOT
BRANCH   1   8
ATOM      8  C   UNL d   1     -45.494  12.571  21.882  0.00  0.00     0.149 C 
BRANCH   8   9
ATOM      9  C   UNL d   1     -44.743  12.911  21.834  0.00  0.00     0.297 C 
ATOM     10  N   UNL d   1     -44.139  12.508  21.446  0.00  0.00    -0.207 NA
ATOM     11  O   UNL d   1     -44.605  13.646  22.173  0.00  0.00    -0.264 OA
BRANCH  10  12
ATOM     12  C   UNL d   1     -43.384  12.849  21.398  0.00  0.00     0.085 A 
ATOM     13  C   UNL d   1     -42.760  12.522  21.833  0.00  0.00     0.022 A 
ATOM     14  C   UNL d   1     -42.015  12.862  21.782  0.00  0.00     0.044 A 
ATOM     15  C   UNL d   1     -41.882  13.525  21.303  0.00  0.00     0.196 A 
ATOM     16  C   UNL d   1     -42.513  13.847  20.871  0.00  0.00     0.044 A 
ATOM     17  O   UNL d   1     -41.133  13.860  21.257  0.00  0.00    -0.287 OA
ATOM     18  C   UNL d   1     -43.265  13.508  20.919  0.00  0.00     0.022 A 
ENDBRANCH  10  12
ENDBRANCH   8   9
ENDBRANCH   1   8
BRANCH   4  19
ATOM     19  C   UNL d   1     -47.656  14.166  22.973  0.00  0.00     0.011 C 
BRANCH  19  20
ATOM     20  C   UNL d   1     -48.443  13.925  22.957  0.00  0.00     0.001 C 
ATOM     21  C   UNL d   1     -48.678  13.245  23.370  0.00  0.00     0.000 C 
BRANCH  20  22
ATOM     22  C   UNL d   1     -49.004  14.354  22.531  0.00  0.00     0.000 C 
BRANCH  22  23
ATOM     23  C   UNL d   1     -49.617  14.742  22.920  0.00  0.00     0.000 A 
ATOM     24  C   UNL d   1     -49.515  15.534  23.167  0.00  0.00     0.000 A 
ATOM     25  C   UNL d   1     -50.122  15.922  23.554  0.00  0.00     0.000 A 
ATOM     26  C   UNL d   1     -50.834  15.527  23.698  0.00  0.00     0.000 A 
ATOM     27  C   UNL d   1     -50.936  14.747  23.455  0.00  0.00     0.000 A 
ATOM     28  C   UNL d   1     -50.326  14.361  23.068  0.00  0.00     0.000 A 
ENDBRANCH  22  23
ENDBRANCH  20  22
ENDBRANCH  19  20
ENDBRANCH   4  19
TORSDOF 7
ENDMDL
MODEL 2
REMARK VINA RESULT:      -4.4      1.574      6.127
REMARK  7 active torsions:
REMARK  status: ('A' for Active; 'I' for Inactive)
REMARK    1  A    between atoms: C_7  and  N_1 
REMARK    2  A    between atoms: C_6  and  C_4 
REMARK    3  A    between atoms: C_9  and  C_6 
REMARK    4  A    between atoms: C_8  and  C_7 
REMARK       I    between atoms: N_12  and  C_8 
REMARK    5  A    between atoms: C_10  and  C_9 
REMARK    6  A    between atoms: C_16  and  C_10 
REMARK    7  A    between atoms: C_15  and  N_12 
ROOT
ATOM      1  N   UNL d   1     -46.171  12.957  22.893  0.00  0.00    -0.230 N 
ATOM      2  C   UNL d   1     -45.833  12.201  22.919  0.00  0.00     0.299 A 
ATOM      3  C   UNL d   1     -45.655  13.450  22.479  0.00  0.00     0.274 A 
ATOM      4  C   UNL d   1     -44.997  13.001  22.249  0.00  0.00     0.090 A 
ATOM      5  S   UNL d   1     -45.115  12.233  22.524  0.00  0.00    -0.022 SA
ATOM      6  O   UNL d   1     -46.168  11.538  23.281  0.00  0.00    -0.259 OA
ATOM      7  O   UNL d   1     -45.773  14.256  22.321  0.00  0.00    -0.266 OA
ENDROOT
BRANCH   1   8
ATOM      8  C   UNL d   1     -46.893  13.184  23.219  0.00  0.00     0.149 C 
BRANCH   8   9
ATOM      9  C   UNL d   1     -47.586  13.139  22.771  0.00  0.00     0.297 C 
ATOM     10  N   UNL d   1     -48.293  13.415  23.089  0.00  0.00    -0.207 NA
ATOM     11  O   UNL d   1     -47.565  12.820  22.015  0.00  0.00    -0.264 OA
BRANCH  10  12
ATOM     12  C   UNL d   1     -48.990  13.371  22.640  0.00  0.00     0.085 A 
ATOM     13  C   UNL d   1     -49.228  14.024  22.190  0.00  0.00     0.022 A 
ATOM     14  C   UNL d   1     -49.917  13.976  21.748  0.00  0.00     0.044 A 
ATOM     15  C   UNL d   1     -50.374  13.285  21.747  0.00  0.00     0.196 A 
ATOM     16  C   UNL d   1     -50.128  12.635  22.201  0.00  0.00     0.044 A 
ATOM     17  O   UNL d   1     -51.064  13.243  21.301  0.00  0.00    -0.287 OA
ATOM     18  C   UNL d   1     -49.435  12.678  22.648  0.00  0.00     0.022 A 
ENDBRANCH  10  12
ENDBRANCH   8   9
ENDBRANCH   1   8
BRANCH   4  19
ATOM     19  C   UNL d   1     -44.352  13.277  21.826  0.00  0.00     0.011 C 
BRANCH  19  20
ATOM     20  C   UNL d   1     -43.705  12.785  21.694  0.00  0.00     0.001 C 
ATOM     21  C   UNL d   1     -43.515  12.192  22.242  0.00  0.00     0.000 C 
BRANCH  20  22
ATOM     22  C   UNL d   1     -43.241  12.875  21.018  0.00  0.00     0.000 C 
BRANCH  22  23
ATOM     23  C   UNL d   1     -42.531  13.290  21.051  0.00  0.00     0.000 A 
ATOM     24  C   UNL d   1     -42.471  14.038  20.683  0.00  0.00     0.000 A 
ATOM     25  C   UNL d   1     -41.767  14.452  20.714  0.00  0.00     0.000 A 
ATOM     26  C   UNL d   1     -41.117  14.127  21.109  0.00  0.00     0.000 A 
ATOM     27  C   UNL d   1     -41.175  13.389  21.471  0.00  0.00     0.000 A 
ATOM     28  C   UNL d   1     -41.882  12.977  21.439  0.00  0.00     0.000 A 
ENDBRANCH  22  23
ENDBRANCH  20  22
ENDBRANCH  19  20
ENDBRANCH   4  19
TORSDOF 7
ENDMDL
MODEL 3
REMARK VINA RESULT:      -4.2      1.437      2.127
REMARK  7 active torsions:
REMARK  status: ('A' for Active; 'I' for Inactive)
REMARK    1  A    between atoms: C_7  and  N_1 
REMARK    2  A    between atoms: C_6  and  C_4 
REMARK    3  A    between atoms: C_9  and  C_6 
REMARK    4  A    between atoms: C_8  and  C_7 
REMARK       I    between atoms: N_12  and  C_8 
REMARK    5  A    between atoms: C_10  and  C_9 
REMARK    6  A    between atoms: C_16  and  C_10 
REMARK    7  A    between atoms: C_15  and  N_12 
ROOT
ATOM      1  N   UNL d   1     -44.359  12.504  21.877  0.00  0.00    -0.230 N 
ATOM      2  C   UNL d   1     -44.350  11.983  22.521  0.00  0.00     0.299 A 
ATOM      3  C   UNL d   1     -45.051  12.950  21.923  0.00  0.00     0.274 A 
ATOM      4  C   UNL d   1     -45.471  12.707  22.594  0.00  0.00     0.090 A 
ATOM      5  S   UNL d   1     -45.033  12.111  22.957  0.00  0.00    -0.022 SA
ATOM      6  O   UNL d   1     -43.753  11.435  22.687  0.00  0.00    -0.259 OA
ATOM      7  O   UNL d   1     -45.286  13.541  21.389  0.00  0.00    -0.266 OA
ENDROOT
BRANCH   1   8
ATOM      8  C   UNL d   1     -43.783  12.571  21.291  0.00  0.00     0.149 C 
BRANCH   8   9
ATOM      9  C   UNL d   1     -43.168  13.117  21.369  0.00  0.00     0.297 C 
ATOM     10  N   UNL d   1     -42.471  13.007  20.947  0.00  0.00    -0.207 NA
ATOM     11  O   UNL d   1     -43.257  13.765  21.867  0.00  0.00    -0.264 OA
BRANCH  10  12
ATOM     12  C   UNL d   1     -41.853  13.556  21.025  0.00  0.00     0.085 A 
ATOM     13  C   UNL d   1     -41.194  13.366  21.491  0.00  0.00     0.022 A 
ATOM     14  C   UNL d   1     -40.586  13.911  21.565  0.00  0.00     0.044 A 
ATOM     15  C   UNL d   1     -40.623  14.644  21.182  0.00  0.00     0.196 A 
ATOM     16  C   UNL d   1     -41.286  14.827  20.717  0.00  0.00     0.044 A 
ATOM     17  O   UNL d   1     -40.009  15.186  21.261  0.00  0.00    -0.287 OA
ATOM     18  C   UNL d   1     -41.902  14.281  20.639  0.00  0.00     0.022 A 
ENDBRANCH  10  12
ENDBRANCH   8   9
ENDBRANCH   1   8
BRANCH   4  19
ATOM     19  C   UNL d   1     -46.191  13.008  22.846  0.00  0.00     0.011 C 
BRANCH  19  20
ATOM     20  C   UNL d   1     -46.813  12.497  23.018  0.00  0.00     0.001 C 
ATOM     21  C   UNL d   1     -46.784  12.022  23.698  0.00  0.00     0.000 C 
BRANCH  20  22
ATOM     22  C   UNL d   1     -47.469  12.452  22.521  0.00  0.00     0.000 C 
BRANCH  22  23
ATOM     23  C   UNL d   1     -48.231  12.499  22.828  0.00  0.00     0.000 A 
ATOM     24  C   UNL d   1     -48.582  13.247  22.952  0.00  0.00     0.000 A 
ATOM     25  C   UNL d   1     -49.340  13.296  23.257  0.00  0.00     0.000 A 
ATOM     26  C   UNL d   1     -49.753  12.604  23.440  0.00  0.00     0.000 A 
ATOM     27  C   UNL d   1     -49.408  11.866  23.318  0.00  0.00     0.000 A 
ATOM     28  C   UNL d   1     -48.650  11.821  23.012  0.00  0.00     0.000 A 
ENDBRANCH  22  23
ENDBRANCH  20  22
ENDBRANCH  19  20
ENDBRANCH   4  19
TORSDOF 7
ENDMDL
MODEL 4
REMARK VINA RESULT:      -3.5      4.952      7.284
REMARK  7 active torsions:
REMARK  status: ('A' for Active; 'I' for Inactive)
REMARK    1  A    between atoms: C_7  and  N_1 
REMARK    2  A    between atoms: C_6  and  C_4 
REMARK    3  A    between atoms: C_9  and  C_6 
REMARK    4  A    between atoms: C_8  and  C_7 
REMARK       I    between atoms: N_12  and  C_8 
REMARK    5  A    between atoms: C_10  and  C_9 
REMARK    6  A    between atoms: C_16  and  C_10 
REMARK    7  A    between atoms: C_15  and  N_12 
ROOT
ATOM      1  N   UNL d   1     -39.608  15.327  19.677  0.00  0.00    -0.230 N 
ATOM      2  C   UNL d   1     -39.229  14.928  20.296  0.00  0.00     0.299 A 
ATOM      3  C   UNL d   1     -40.421  15.270  19.800  0.00  0.00     0.274 A 
ATOM      4  C   UNL d   1     -40.548  14.836  20.495  0.00  0.00     0.090 A 
ATOM      5  S   UNL d   1     -39.808  14.629  20.794  0.00  0.00    -0.022 SA
ATOM      6  O   UNL d   1     -38.411  14.851  20.386  0.00  0.00    -0.259 OA
ATOM      7  O   UNL d   1     -41.012  15.591  19.313  0.00  0.00    -0.266 OA
ENDROOT
BRANCH   1   8
ATOM      8  C   UNL d   1     -39.244  15.715  19.046  0.00  0.00     0.149 C 
BRANCH   8   9
ATOM      9  C   UNL d   1     -39.154  15.335  18.319  0.00  0.00     0.297 C 
ATOM     10  N   UNL d   1     -38.414  15.319  17.958  0.00  0.00    -0.207 NA
ATOM     11  O   UNL d   1     -39.800  14.976  17.961  0.00  0.00    -0.264 OA
BRANCH  10  12
ATOM     12  C   UNL d   1     -38.322  14.937  17.227  0.00  0.00     0.085 A 
ATOM     13  C   UNL d   1     -38.514  15.341  16.529  0.00  0.00     0.022 A 
ATOM     14  C   UNL d   1     -38.422  14.960  15.808  0.00  0.00     0.044 A 
ATOM     15  C   UNL d   1     -38.141  14.182  15.772  0.00  0.00     0.196 A 
ATOM     16  C   UNL d   1     -37.951  13.785  16.475  0.00  0.00     0.044 A 
ATOM     17  O   UNL d   1     -38.051  13.806  15.046  0.00  0.00    -0.287 OA
ATOM     18  C   UNL d   1     -38.042  14.163  17.204  0.00  0.00     0.022 A 
ENDBRANCH  10  12
ENDBRANCH   8   9
ENDBRANCH   1   8
BRANCH   4  19
ATOM     19  C   UNL d   1     -41.276  14.650  20.820  0.00  0.00     0.011 C 
BRANCH  19  20
ATOM     20  C   UNL d   1     -41.394  13.918  21.175  0.00  0.00     0.001 C 
ATOM     21  C   UNL d   1     -41.049  13.753  21.911  0.00  0.00     0.000 C 
BRANCH  20  22
ATOM     22  C   UNL d   1     -41.855  13.342  20.806  0.00  0.00     0.000 C 
BRANCH  22  23
ATOM     23  C   UNL d   1     -42.528  13.045  21.174  0.00  0.00     0.000 A 
ATOM     24  C   UNL d   1     -42.464  12.390  21.690  0.00  0.00     0.000 A 
ATOM     25  C   UNL d   1     -43.132  12.093  22.058  0.00  0.00     0.000 A 
ATOM     26  C   UNL d   1     -43.867  12.443  21.916  0.00  0.00     0.000 A 
ATOM     27  C   UNL d   1     -43.932  13.088  21.408  0.00  0.00     0.000 A 
ATOM     28  C   UNL d   1     -43.261  13.383  21.042  0.00  0.00     0.000 A 
ENDBRANCH  22  23
ENDBRANCH  20  22
ENDBRANCH  19  20
ENDBRANCH   4  19
TORSDOF 7
ENDMDL
MODEL 5
REMARK VINA RESULT:      -3.5      4.684      9.048
REMARK  7 active torsions:
REMARK  status: ('A' for Active; 'I' for Inactive)
REMARK    1  A    between atoms: C_7  and  N_1 
REMARK    2  A    between atoms: C_6  and  C_4 
REMARK    3  A    between atoms: C_9  and  C_6 
REMARK    4  A    between atoms: C_8  and  C_7 
REMARK       I    between atoms: N_12  and  C_8 
REMARK    5  A    between atoms: C_10  and  C_9 
REMARK    6  A    between atoms: C_16  and  C_10 
REMARK    7  A    between atoms: C_15  and  N_12 
ROOT
ATOM      1  N   UNL d   1     -40.283  14.846  19.582  0.00  0.00    -0.230 N 
ATOM      2  C   UNL d   1     -39.505  14.690  19.818  0.00  0.00     0.299 A 
ATOM      3  C   UNL d   1     -40.303  14.845  18.758  0.00  0.00     0.274 A 
ATOM      4  C   UNL d   1     -39.537  14.688  18.481  0.00  0.00     0.090 A 
ATOM      5  S   UNL d   1     -39.052  14.594  19.140  0.00  0.00    -0.022 SA
ATOM      6  O   UNL d   1     -39.240  14.642  20.599  0.00  0.00    -0.259 OA
ATOM      7  O   UNL d   1     -40.973  14.977  18.286  0.00  0.00    -0.266 OA
ENDROOT
BRANCH   1   8
ATOM      8  C   UNL d   1     -40.929  14.980  20.077  0.00  0.00     0.149 C 
BRANCH   8   9
ATOM      9  C   UNL d   1     -41.419  14.355  20.303  0.00  0.00     0.297 C 
ATOM     10  N   UNL d   1     -41.743  14.345  21.060  0.00  0.00    -0.207 NA
ATOM     11  O   UNL d   1     -41.580  13.749  19.772  0.00  0.00    -0.264 OA
BRANCH  10  12
ATOM     12  C   UNL d   1     -42.236  13.717  21.287  0.00  0.00     0.085 A 
ATOM     13  C   UNL d   1     -41.909  13.061  21.674  0.00  0.00     0.022 A 
ATOM     14  C   UNL d   1     -42.399  12.443  21.897  0.00  0.00     0.044 A 
ATOM     15  C   UNL d   1     -43.212  12.468  21.740  0.00  0.00     0.196 A 
ATOM     16  C   UNL d   1     -43.531  13.128  21.352  0.00  0.00     0.044 A 
ATOM     17  O   UNL d   1     -43.698  11.844  21.966  0.00  0.00    -0.287 OA
ATOM     18  C   UNL d   1     -43.042  13.754  21.125  0.00  0.00     0.022 A 
ENDBRANCH  10  12
ENDBRANCH   8   9
ENDBRANCH   1   8
BRANCH   4  19
ATOM     19  C   UNL d   1     -39.312  14.637  17.695  0.00  0.00     0.011 C 
BRANCH  19  20
ATOM     20  C   UNL d   1     -38.789  14.050  17.454  0.00  0.00     0.001 C 
ATOM     21  C   UNL d   1     -38.956  13.253  17.614  0.00  0.00     0.000 C 
BRANCH  20  22
ATOM     22  C   UNL d   1     -38.095  14.244  17.053  0.00  0.00     0.000 C 
BRANCH  22  23
ATOM     23  C   UNL d   1     -38.043  14.152  16.237  0.00  0.00     0.000 A 
ATOM     24  C   UNL d   1     -38.006  14.826  15.745  0.00  0.00     0.000 A 
ATOM     25  C   UNL d   1     -37.954  14.737  14.933  0.00  0.00     0.000 A 
ATOM     26  C   UNL d   1     -37.940  13.978  14.605  0.00  0.00     0.000 A 
ATOM     27  C   UNL d   1     -37.977  13.313  15.089  0.00  0.00     0.000 A 
ATOM     28  C   UNL d   1     -38.028  13.406  15.901  0.00  0.00     0.000 A 
ENDBRANCH  22  23
ENDBRANCH  20  22
ENDBRANCH  19  20
ENDBRANCH   4  19
TORSDOF 7
ENDMDL
MODEL 6
REMARK VINA RESULT:      -3.1      7.208      9.042
REMARK  7 active torsions:
REMARK  status: ('A' for Active; 'I' for Inactive)
REMARK    1  A    between atoms: C_7  and  N_1 
REMARK    2  A    between atoms: C_6  and  C_4 
REMARK    3  A    between atoms: C_9  and  C_6 
REMARK    4  A    between atoms: C_8  and  C_7 
REMARK       I    between atoms: N_12  and  C_8 
REMARK    5  A    between atoms: C_10  and  C_9 
REMARK    6  A    between atoms: C_16  and  C_10 
REMARK    7  A    between atoms: C_15  and  N_12 
ROOT
ATOM      1  N   UNL d   1     -39.177  15.767  18.582  0.00  0.00    -0.230 N 
ATOM      2  C   UNL d   1     -39.995  15.714  18.701  0.00  0.00     0.299 A 
ATOM      3  C   UNL d   1     -38.807  15.640  19.308  0.00  0.00     0.274 A 
ATOM      4  C   UNL d   1     -39.395  15.507  19.878  0.00  0.00     0.090 A 
ATOM      5  S   UNL d   1     -40.124  15.554  19.495  0.00  0.00    -0.022 SA
ATOM      6  O   UNL d   1     -40.572  15.806  18.116  0.00  0.00    -0.259 OA
ATOM      7  O   UNL d   1     -37.989  15.643  19.446  0.00  0.00    -0.266 OA
ENDROOT
BRANCH   1   8
ATOM      8  C   UNL d   1     -38.793  15.920  17.869  0.00  0.00     0.149 C 
BRANCH   8   9
ATOM      9  C   UNL d   1     -38.597  15.301  17.359  0.00  0.00     0.297 C 
ATOM     10  N   UNL d   1     -38.729  15.383  16.550  0.00  0.00    -0.207 NA
ATOM     11  O   UNL d   1     -38.271  14.610  17.660  0.00  0.00    -0.264 OA
BRANCH  10  12
ATOM     12  C   UNL d   1     -38.532  14.761  16.037  0.00  0.00     0.085 A 
ATOM     13  C   UNL d   1     -38.205  14.065  16.347  0.00  0.00     0.022 A 
ATOM     14  C   UNL d   1     -38.012  13.453  15.836  0.00  0.00     0.044 A 
ATOM     15  C   UNL d   1     -38.138  13.524  15.021  0.00  0.00     0.196 A 
ATOM     16  C   UNL d   1     -38.465  14.224  14.719  0.00  0.00     0.044 A 
ATOM     17  O   UNL d   1     -37.941  12.906  14.515  0.00  0.00    -0.287 OA
ATOM     18  C   UNL d   1     -38.662  14.844  15.229  0.00  0.00     0.022 A 
ENDBRANCH  10  12
ENDBRANCH   8   9
ENDBRANCH   1   8
BRANCH   4  19
ATOM     19  C   UNL d   1     -39.268  15.357  20.673  0.00  0.00     0.011 C 
BRANCH  19  20
ATOM     20  C   UNL d   1     -39.677  14.750  21.048  0.00  0.00     0.001 C 
ATOM     21  C   UNL d   1     -40.501  14.794  21.133  0.00  0.00     0.000 C 
BRANCH  20  22
ATOM     22  C   UNL d   1     -39.275  14.092  21.342  0.00  0.00     0.000 C 
BRANCH  22  23
ATOM     23  C   UNL d   1     -38.956  14.102  22.101  0.00  0.00     0.000 A 
ATOM     24  C   UNL d   1     -38.974  14.807  22.549  0.00  0.00     0.000 A 
ATOM     25  C   UNL d   1     -38.658  14.820  23.303  0.00  0.00     0.000 A 
ATOM     26  C   UNL d   1     -38.321  14.133  23.617  0.00  0.00     0.000 A 
ATOM     27  C   UNL d   1     -38.302  13.437  23.176  0.00  0.00     0.000 A 
ATOM     28  C   UNL d   1     -38.620  13.429  22.422  0.00  0.00     0.000 A 
ENDBRANCH  22  23
ENDBRANCH  20  22
ENDBRANCH  19  20
ENDBRANCH   4  19
TORSDOF 7
ENDMDL
MODEL 7
REMARK VINA RESULT:      -2.1      4.005      6.215
REMARK  7 active torsions:
REMARK  status: ('A' for Active; 'I' for Inactive)
REMARK    1  A    between atoms: C_7  and  N_1 
REMARK    2  A    between atoms: C_6  and  C_4 
REMARK    3  A    between atoms: C_9  and  C_6 
REMARK    4  A    between atoms: C_8  and  C_7 
REMARK       I    between atoms: N_12  and  C_8 
REMARK    5  A    between atoms: C_10  and  C_9 
REMARK    6  A    between atoms: C_16  and  C_10 
REMARK    7  A    between atoms: C_15  and  N_12 
ROOT
ATOM      1  N   UNL d   1     -40.378  14.767  20.616  0.00  0.00    -0.230 N 
ATOM      2  C   UNL d   1     -40.171  14.044  20.963  0.00  0.00     0.299 A 
ATOM      3  C   UNL d   1     -41.196  14.852  20.676  0.00  0.00     0.274 A 
ATOM      4  C   UNL d   1     -41.498  14.181  21.060  0.00  0.00     0.090 A 
ATOM      5  S   UNL d   1     -40.860  13.689  21.234  0.00  0.00    -0.022 SA
ATOM      6  O   UNL d   1     -39.404  13.742  21.022  0.00  0.00    -0.259 OA
ATOM      7  O   UNL d   1     -41.642  15.495  20.400  0.00  0.00    -0.266 OA
ENDROOT
BRANCH   1   8
ATOM      8  C   UNL d   1     -39.864  15.311  20.271  0.00  0.00     0.149 C 
BRANCH   8   9
ATOM      9  C   UNL d   1     -39.653  15.239  19.475  0.00  0.00     0.297 C 
ATOM     10  N   UNL d   1     -39.549  15.917  19.020  0.00  0.00    -0.207 NA
ATOM     11  O   UNL d   1     -39.549  14.495  19.145  0.00  0.00    -0.264 OA
BRANCH  10  12
ATOM     12  C   UNL d   1     -39.337  15.846  18.221  0.00  0.00     0.085 A 
ATOM     13  C   UNL d   1     -38.541  15.922  18.002  0.00  0.00     0.022 A 
ATOM     14  C   UNL d   1     -38.336  15.851  17.211  0.00  0.00     0.044 A 
ATOM     15  C   UNL d   1     -38.912  15.705  16.633  0.00  0.00     0.196 A 
ATOM     16  C   UNL d   1     -39.706  15.631  16.862  0.00  0.00     0.044 A 
ATOM     17  O   UNL d   1     -38.698  15.635  15.842  0.00  0.00    -0.287 OA
ATOM     18  C   UNL d   1     -39.919  15.701  17.657  0.00  0.00     0.022 A 
ENDBRANCH  10  12
ENDBRANCH   8   9
ENDBRANCH   1   8
BRANCH   4  19
ATOM     19  C   UNL d   1     -42.286  14.041  21.233  0.00  0.00     0.011 C 
BRANCH  19  20
ATOM     20  C   UNL d   1     -42.603  13.289  21.126  0.00  0.00     0.001 C 
ATOM     21  C   UNL d   1     -42.667  12.969  20.363  0.00  0.00     0.000 C 
BRANCH  20  22
ATOM     22  C   UNL d   1     -42.861  12.846  21.772  0.00  0.00     0.000 C 
BRANCH  22  23
ATOM     23  C   UNL d   1     -43.665  12.749  21.919  0.00  0.00     0.000 A 
ATOM     24  C   UNL d   1     -43.928  12.092  22.364  0.00  0.00     0.000 A 
ATOM     25  C   UNL d   1     -44.726  11.992  22.511  0.00  0.00     0.000 A 
ATOM     26  C   UNL d   1     -45.268  12.543  22.218  0.00  0.00     0.000 A 
ATOM     27  C   UNL d   1     -45.010  13.191  21.779  0.00  0.00     0.000 A 
ATOM     28  C   UNL d   1     -44.210  13.287  21.634  0.00  0.00     0.000 A 
ENDBRANCH  22  23
ENDBRANCH  20  22
ENDBRANCH  19  20
ENDBRANCH   4  19
TORSDOF 7
ENDMDL
MODEL 8
REMARK VINA RESULT:      -1.6      2.918      7.319
REMARK  7 active torsions:
REMARK  status: ('A' for Active; 'I' for Inactive)
REMARK    1  A    between atoms: C_7  and  N_1 
REMARK    2  A    between atoms: C_6  and  C_4 
REMARK    3  A    between atoms: C_9  and  C_6 
REMARK    4  A    between atoms: C_8  and  C_7 
REMARK       I    between atoms: N_12  and  C_8 
REMARK    5  A    between atoms: C_10  and  C_9 
REMARK    6  A    between atoms: C_16  and  C_10 
REMARK    7  A    between atoms: C_15  and  N_12 
ROOT
ATOM      1  N   UNL d   1     -41.929  13.292  21.012  0.00  0.00    -0.230 N 
ATOM      2  C   UNL d   1     -41.386  13.770  21.414  0.00  0.00     0.299 A 
ATOM      3  C   UNL d   1     -41.891  13.483  20.211  0.00  0.00     0.274 A 
ATOM      4  C   UNL d   1     -41.324  14.080  20.115  0.00  0.00     0.090 A 
ATOM      5  S   UNL d   1     -41.017  14.251  20.861  0.00  0.00    -0.022 SA
ATOM      6  O   UNL d   1     -41.246  13.758  22.228  0.00  0.00    -0.259 OA
ATOM      7  O   UNL d   1     -42.341  13.139  19.605  0.00  0.00    -0.266 OA
ENDROOT
BRANCH   1   8
ATOM      8  C   UNL d   1     -42.424  12.723  21.346  0.00  0.00     0.149 C 
BRANCH   8   9
ATOM      9  C   UNL d   1     -43.189  12.923  21.583  0.00  0.00     0.297 C 
ATOM     10  N   UNL d   1     -43.663  12.355  21.945  0.00  0.00    -0.207 NA
ATOM     11  O   UNL d   1     -43.472  13.683  21.457  0.00  0.00    -0.264 OA
BRANCH  10  12
ATOM     12  C   UNL d   1     -44.433  12.555  22.184  0.00  0.00     0.085 A 
ATOM     13  C   UNL d   1     -44.752  13.287  21.961  0.00  0.00     0.022 A 
ATOM     14  C   UNL d   1     -45.513  13.480  22.199  0.00  0.00     0.044 A 
ATOM     15  C   UNL d   1     -45.961  12.956  22.657  0.00  0.00     0.196 A 
ATOM     16  C   UNL d   1     -45.634  12.225  22.876  0.00  0.00     0.044 A 
ATOM     17  O   UNL d   1     -46.724  13.157  22.892  0.00  0.00    -0.287 OA
ATOM     18  C   UNL d   1     -44.868  12.025  22.639  0.00  0.00     0.022 A 
ENDBRANCH  10  12
ENDBRANCH   8   9
ENDBRANCH   1   8
BRANCH   4  19
ATOM     19  C   UNL d   1     -41.112  14.432  19.406  0.00  0.00     0.011 C 
BRANCH  19  20
ATOM     20  C   UNL d   1     -40.358  14.749  19.312  0.00  0.00     0.001 C 
ATOM     21  C   UNL d   1     -39.691  14.310  19.539  0.00  0.00     0.000 C 
BRANCH  20  22
ATOM     22  C   UNL d   1     -40.257  15.503  18.994  0.00  0.00     0.000 C 
BRANCH  22  23
ATOM     23  C   UNL d   1     -40.068  15.600  18.200  0.00  0.00     0.000 A 
ATOM     24  C   UNL d   1     -39.284  15.468  17.941  0.00  0.00     0.000 A 
ATOM     25  C   UNL d   1     -39.093  15.564  17.152  0.00  0.00     0.000 A 
ATOM     26  C   UNL d   1     -39.679  15.792  16.614  0.00  0.00     0.000 A 
ATOM     27  C   UNL d   1     -40.451  15.922  16.867  0.00  0.00     0.000 A 
ATOM     28  C   UNL d   1     -40.639  15.825  17.658  0.00  0.00     0.000 A 
ENDBRANCH  22  23
ENDBRANCH  20  22
ENDBRANCH  19  20
ENDBRANCH   4  19
TORSDOF 7
ENDMDL
