MODEL 1
REMARK VINA RESULT:      -7.9      0.000      0.000
REMARK  3 active torsions:
REMARK  status: ('A' for Active; 'I' for Inactive)
REMARK    1  A    between atoms: C_7  and  C_4 
REMARK    2  A    between atoms: C_8  and  C_7 
REMARK    3  A    between atoms: C_11  and  C_8 
ROOT
ATOM      1  N   UNL d   1     -50.201  13.988  22.156  0.00  0.00    -0.269 N 
ATOM      2  C   UNL d   1     -49.468  13.622  22.063  0.00  0.00     0.282 A 
ATOM      3  N   UNL d   1     -48.900  14.526  23.005  0.00  0.00    -0.239 NA
ATOM      4  C   UNL d   1     -48.820  13.890  22.486  0.00  0.00     0.138 A 
ATOM      5  C   UNL d   1     -50.282  14.623  22.675  0.00  0.00     0.085 A 
ATOM      6  C   UNL d   1     -49.633  14.892  23.098  0.00  0.00     0.098 A 
ATOM      7  O   UNL d   1     -49.387  12.985  21.544  0.00  0.00    -0.265 OA
ATOM      8  C   UNL d   1     -50.508  13.322  21.496  0.00  0.00     0.102 C 
ATOM      9  C   UNL d   1     -51.015  14.990  22.769  0.00  0.00     0.019 A 
ATOM     10  C   UNL d   1     -49.714  15.528  23.617  0.00  0.00     0.021 A 
ATOM     11  C   UNL d   1     -51.064  15.586  23.263  0.00  0.00     0.002 A 
ATOM     12  C   UNL d   1     -50.415  15.855  23.687  0.00  0.00     0.002 A 
ENDROOT
BRANCH   4  13
ATOM     13  C   UNL d   1     -48.086  13.523  22.393  0.00  0.00     0.024 C 
BRANCH  13  14
ATOM     14  C   UNL d   1     -47.451  13.743  22.870  0.00  0.00     0.002 C 
BRANCH  14  15
ATOM     15  C   UNL d   1     -46.728  13.351  22.802  0.00  0.00     0.000 A 
ATOM     16  C   UNL d   1     -46.123  13.679  22.345  0.00  0.00     0.000 A 
ATOM     17  C   UNL d   1     -45.400  13.288  22.276  0.00  0.00     0.000 A 
ATOM     18  C   UNL d   1     -45.281  12.569  22.664  0.00  0.00     0.000 A 
ATOM     19  C   UNL d   1     -45.886  12.242  23.120  0.00  0.00     0.000 A 
ATOM     20  C   UNL d   1     -46.609  12.633  23.189  0.00  0.00     0.000 A 
ENDBRANCH  14  15
ENDBRANCH  13  14
ENDBRANCH   4  13
TORSDOF 3
ENDMDL
MODEL 2
REMARK VINA RESULT:      -7.7      1.092      4.269
REMARK  3 active torsions:
REMARK  status: ('A' for Active; 'I' for Inactive)
REMARK    1  A    between atoms: C_7  and  C_4 
REMARK    2  A    between atoms: C_8  and  C_7 
REMARK    3  A    between atoms: C_11  and  C_8 
ROOT
ATOM      1  N   UNL d   1     -47.219  12.188  23.285  0.00  0.00    -0.269 N 
ATOM      2  C   UNL d   1     -47.954  12.551  23.372  0.00  0.00     0.282 A 
ATOM      3  N   UNL d   1     -47.426  13.749  22.811  0.00  0.00    -0.239 NA
ATOM      4  C   UNL d   1     -48.057  13.330  23.136  0.00  0.00     0.138 A 
ATOM      5  C   UNL d   1     -46.588  12.608  22.961  0.00  0.00     0.085 A 
ATOM      6  C   UNL d   1     -46.691  13.386  22.724  0.00  0.00     0.098 A 
ATOM      7  O   UNL d   1     -48.586  12.132  23.697  0.00  0.00    -0.265 OA
ATOM      8  C   UNL d   1     -47.668  11.406  23.683  0.00  0.00     0.102 C 
ATOM      9  C   UNL d   1     -45.852  12.245  22.874  0.00  0.00     0.019 A 
ATOM     10  C   UNL d   1     -46.059  13.805  22.399  0.00  0.00     0.021 A 
ATOM     11  C   UNL d   1     -45.274  12.661  22.565  0.00  0.00     0.002 A 
ATOM     12  C   UNL d   1     -45.378  13.440  22.328  0.00  0.00     0.002 A 
ENDROOT
BRANCH   4  13
ATOM     13  C   UNL d   1     -48.793  13.693  23.223  0.00  0.00     0.024 C 
BRANCH  13  14
ATOM     14  C   UNL d   1     -48.919  14.450  22.922  0.00  0.00     0.002 C 
BRANCH  14  15
ATOM     15  C   UNL d   1     -49.632  14.839  23.066  0.00  0.00     0.000 A 
ATOM     16  C   UNL d   1     -50.336  14.539  22.757  0.00  0.00     0.000 A 
ATOM     17  C   UNL d   1     -51.048  14.928  22.901  0.00  0.00     0.000 A 
ATOM     18  C   UNL d   1     -51.059  15.617  23.355  0.00  0.00     0.000 A 
ATOM     19  C   UNL d   1     -50.354  15.918  23.664  0.00  0.00     0.000 A 
ATOM     20  C   UNL d   1     -49.641  15.528  23.519  0.00  0.00     0.000 A 
ENDBRANCH  14  15
ENDBRANCH  13  14
ENDBRANCH   4  13
TORSDOF 3
ENDMDL
MODEL 3
REMARK VINA RESULT:      -6.9      1.330      1.829
REMARK  3 active torsions:
REMARK  status: ('A' for Active; 'I' for Inactive)
REMARK    1  A    between atoms: C_7  and  C_4 
REMARK    2  A    between atoms: C_8  and  C_7 
REMARK    3  A    between atoms: C_11  and  C_8 
ROOT
ATOM      1  N   UNL d   1     -49.690  14.196  23.131  0.00  0.00    -0.269 N 
ATOM      2  C   UNL d   1     -48.893  14.271  22.938  0.00  0.00     0.282 A 
ATOM      3  N   UNL d   1     -48.716  12.872  23.132  0.00  0.00    -0.239 NA
ATOM      4  C   UNL d   1     -48.407  13.611  22.938  0.00  0.00     0.138 A 
ATOM      5  C   UNL d   1     -50.000  13.456  23.325  0.00  0.00     0.085 A 
ATOM      6  C   UNL d   1     -49.514  12.796  23.325  0.00  0.00     0.098 A 
ATOM      7  O   UNL d   1     -48.583  15.011  22.744  0.00  0.00    -0.265 OA
ATOM      8  C   UNL d   1     -49.720  15.169  22.975  0.00  0.00     0.102 C 
ATOM      9  C   UNL d   1     -50.798  13.380  23.518  0.00  0.00     0.019 A 
ATOM     10  C   UNL d   1     -49.824  12.056  23.519  0.00  0.00     0.021 A 
ATOM     11  C   UNL d   1     -51.064  12.673  23.697  0.00  0.00     0.002 A 
ATOM     12  C   UNL d   1     -50.578  12.013  23.697  0.00  0.00     0.002 A 
ENDROOT
BRANCH   4  13
ATOM     13  C   UNL d   1     -47.608  13.687  22.744  0.00  0.00     0.024 C 
BRANCH  13  14
ATOM     14  C   UNL d   1     -47.041  13.245  23.148  0.00  0.00     0.002 C 
BRANCH  14  15
ATOM     15  C   UNL d   1     -46.295  13.128  22.816  0.00  0.00     0.000 A 
ATOM     16  C   UNL d   1     -45.911  13.752  22.434  0.00  0.00     0.000 A 
ATOM     17  C   UNL d   1     -45.166  13.636  22.102  0.00  0.00     0.000 A 
ATOM     18  C   UNL d   1     -44.802  12.897  22.151  0.00  0.00     0.000 A 
ATOM     19  C   UNL d   1     -45.185  12.273  22.533  0.00  0.00     0.000 A 
ATOM     20  C   UNL d   1     -45.932  12.390  22.865  0.00  0.00     0.000 A 
ENDBRANCH  14  15
ENDBRANCH  13  14
ENDBRANCH   4  13
TORSDOF 3
ENDMDL
MODEL 4
REMARK VINA RESULT:      -6.3      1.794      2.956
REMARK  3 active torsions:
REMARK  status: ('A' for Active; 'I' for Inactive)
REMARK    1  A    between atoms: C_7  and  C_4 
REMARK    2  A    between atoms: C_8  and  C_7 
REMARK    3  A    between atoms: C_11  and  C_8 
ROOT
ATOM      1  N   UNL d   1     -47.918  13.529  22.871  0.00  0.00    -0.269 N 
ATOM      2  C   UNL d   1     -47.147  13.252  22.968  0.00  0.00     0.282 A 
ATOM      3  N   UNL d   1     -47.647  11.929  23.136  0.00  0.00    -0.239 NA
ATOM      4  C   UNL d   1     -47.012  12.454  23.100  0.00  0.00     0.138 A 
ATOM      5  C   UNL d   1     -48.552  13.004  22.908  0.00  0.00     0.085 A 
ATOM      6  C   UNL d   1     -48.417  12.206  23.040  0.00  0.00     0.098 A 
ATOM      7  O   UNL d   1     -46.512  13.777  22.932  0.00  0.00    -0.265 OA
ATOM      8  C   UNL d   1     -47.484  14.408  22.767  0.00  0.00     0.102 C 
ATOM      9  C   UNL d   1     -49.324  13.281  22.811  0.00  0.00     0.019 A 
ATOM     10  C   UNL d   1     -49.053  11.681  23.076  0.00  0.00     0.021 A 
ATOM     11  C   UNL d   1     -49.903  12.766  22.850  0.00  0.00     0.002 A 
ATOM     12  C   UNL d   1     -49.768  11.968  22.982  0.00  0.00     0.002 A 
ENDROOT
BRANCH   4  13
ATOM     13  C   UNL d   1     -46.241  12.177  23.197  0.00  0.00     0.024 C 
BRANCH  13  14
ATOM     14  C   UNL d   1     -46.100  11.370  23.290  0.00  0.00     0.002 C 
BRANCH  14  15
ATOM     15  C   UNL d   1     -45.326  11.085  23.306  0.00  0.00     0.000 A 
ATOM     16  C   UNL d   1     -45.159  10.368  23.681  0.00  0.00     0.000 A 
ATOM     17  C   UNL d   1     -44.386  10.083  23.698  0.00  0.00     0.000 A 
ATOM     18  C   UNL d   1     -43.779  10.512  23.339  0.00  0.00     0.000 A 
ATOM     19  C   UNL d   1     -43.946  11.228  22.963  0.00  0.00     0.000 A 
ATOM     20  C   UNL d   1     -44.720  11.513  22.947  0.00  0.00     0.000 A 
ENDBRANCH  14  15
ENDBRANCH  13  14
ENDBRANCH   4  13
TORSDOF 3
ENDMDL
MODEL 5
REMARK VINA RESULT:      -6.0      1.663      4.475
REMARK  3 active torsions:
REMARK  status: ('A' for Active; 'I' for Inactive)
REMARK    1  A    between atoms: C_7  and  C_4 
REMARK    2  A    between atoms: C_8  and  C_7 
REMARK    3  A    between atoms: C_11  and  C_8 
ROOT
ATOM      1  N   UNL d   1     -46.201  11.753  23.155  0.00  0.00    -0.269 N 
ATOM      2  C   UNL d   1     -47.004  11.845  23.315  0.00  0.00     0.282 A 
ATOM      3  N   UNL d   1     -46.973  13.134  22.712  0.00  0.00    -0.239 NA
ATOM      4  C   UNL d   1     -47.390  12.534  23.094  0.00  0.00     0.138 A 
ATOM      5  C   UNL d   1     -45.785  12.353  22.773  0.00  0.00     0.085 A 
ATOM      6  C   UNL d   1     -46.170  13.042  22.552  0.00  0.00     0.098 A 
ATOM      7  O   UNL d   1     -47.421  11.244  23.698  0.00  0.00    -0.265 OA
ATOM      8  C   UNL d   1     -46.315  10.875  23.590  0.00  0.00     0.102 C 
ATOM      9  C   UNL d   1     -44.980  12.261  22.613  0.00  0.00     0.019 A 
ATOM     10  C   UNL d   1     -45.753  13.643  22.170  0.00  0.00     0.021 A 
ATOM     11  C   UNL d   1     -44.612  12.842  22.252  0.00  0.00     0.002 A 
ATOM     12  C   UNL d   1     -44.998  13.531  22.031  0.00  0.00     0.002 A 
ENDROOT
BRANCH   4  13
ATOM     13  C   UNL d   1     -48.194  12.626  23.254  0.00  0.00     0.024 C 
BRANCH  13  14
ATOM     14  C   UNL d   1     -48.599  13.284  22.968  0.00  0.00     0.002 C 
BRANCH  14  15
ATOM     15  C   UNL d   1     -49.421  13.263  22.894  0.00  0.00     0.000 A 
ATOM     16  C   UNL d   1     -49.898  13.537  23.510  0.00  0.00     0.000 A 
ATOM     17  C   UNL d   1     -50.719  13.516  23.436  0.00  0.00     0.000 A 
ATOM     18  C   UNL d   1     -51.064  13.222  22.747  0.00  0.00     0.000 A 
ATOM     19  C   UNL d   1     -50.587  12.948  22.130  0.00  0.00     0.000 A 
ATOM     20  C   UNL d   1     -49.766  12.969  22.205  0.00  0.00     0.000 A 
ENDBRANCH  14  15
ENDBRANCH  13  14
ENDBRANCH   4  13
TORSDOF 3
ENDMDL
MODEL 6
REMARK VINA RESULT:      -5.8      9.234      9.791
REMARK  3 active torsions:
REMARK  status: ('A' for Active; 'I' for Inactive)
REMARK    1  A    between atoms: C_7  and  C_4 
REMARK    2  A    between atoms: C_8  and  C_7 
REMARK    3  A    between atoms: C_11  and  C_8 
ROOT
ATOM      1  N   UNL d   1     -39.576  14.146  17.866  0.00  0.00    -0.269 N 
ATOM      2  C   UNL d   1     -39.284  14.002  18.624  0.00  0.00     0.282 A 
ATOM      3  N   UNL d   1     -40.098  15.053  19.134  0.00  0.00    -0.239 NA
ATOM      4  C   UNL d   1     -39.545  14.454  19.256  0.00  0.00     0.138 A 
ATOM      5  C   UNL d   1     -40.129  14.745  17.744  0.00  0.00     0.085 A 
ATOM      6  C   UNL d   1     -40.389  15.197  18.377  0.00  0.00     0.098 A 
ATOM      7  O   UNL d   1     -38.730  13.402  18.746  0.00  0.00    -0.265 OA
ATOM      8  C   UNL d   1     -38.981  13.405  17.602  0.00  0.00     0.102 C 
ATOM      9  C   UNL d   1     -40.421  14.890  16.986  0.00  0.00     0.019 A 
ATOM     10  C   UNL d   1     -40.943  15.797  18.254  0.00  0.00     0.021 A 
ATOM     11  C   UNL d   1     -40.941  15.460  16.899  0.00  0.00     0.002 A 
ATOM     12  C   UNL d   1     -41.201  15.912  17.531  0.00  0.00     0.002 A 
ENDROOT
BRANCH   4  13
ATOM     13  C   UNL d   1     -39.253  14.309  20.014  0.00  0.00     0.024 C 
BRANCH  13  14
ATOM     14  C   UNL d   1     -39.679  14.557  20.675  0.00  0.00     0.002 C 
BRANCH  14  15
ATOM     15  C   UNL d   1     -39.359  14.466  21.431  0.00  0.00     0.000 A 
ATOM     16  C   UNL d   1     -38.986  15.104  21.800  0.00  0.00     0.000 A 
ATOM     17  C   UNL d   1     -38.667  15.013  22.555  0.00  0.00     0.000 A 
ATOM     18  C   UNL d   1     -38.720  14.287  22.942  0.00  0.00     0.000 A 
ATOM     19  C   UNL d   1     -39.093  13.649  22.572  0.00  0.00     0.000 A 
ATOM     20  C   UNL d   1     -39.413  13.740  21.817  0.00  0.00     0.000 A 
ENDBRANCH  14  15
ENDBRANCH  13  14
ENDBRANCH   4  13
TORSDOF 3
ENDMDL
MODEL 7
REMARK VINA RESULT:      -5.7      8.283     10.672
REMARK  3 active torsions:
REMARK  status: ('A' for Active; 'I' for Inactive)
REMARK    1  A    between atoms: C_7  and  C_4 
REMARK    2  A    between atoms: C_8  and  C_7 
REMARK    3  A    between atoms: C_11  and  C_8 
ROOT
ATOM      1  N   UNL d   1     -39.272  14.893  16.681  0.00  0.00    -0.269 N 
ATOM      2  C   UNL d   1     -39.703  15.129  17.342  0.00  0.00     0.282 A 
ATOM      3  N   UNL d   1     -39.238  13.986  18.051  0.00  0.00    -0.239 NA
ATOM      4  C   UNL d   1     -39.686  14.677  18.026  0.00  0.00     0.138 A 
ATOM      5  C   UNL d   1     -38.823  14.202  16.707  0.00  0.00     0.085 A 
ATOM      6  C   UNL d   1     -38.806  13.749  17.390  0.00  0.00     0.098 A 
ATOM      7  O   UNL d   1     -40.153  15.821  17.317  0.00  0.00    -0.265 OA
ATOM      8  C   UNL d   1     -39.643  15.709  16.269  0.00  0.00     0.102 C 
ATOM      9  C   UNL d   1     -38.391  13.965  16.045  0.00  0.00     0.019 A 
ATOM     10  C   UNL d   1     -38.357  13.058  17.415  0.00  0.00     0.021 A 
ATOM     11  C   UNL d   1     -37.977  13.311  16.095  0.00  0.00     0.002 A 
ATOM     12  C   UNL d   1     -37.960  12.858  16.779  0.00  0.00     0.002 A 
ENDROOT
BRANCH   4  13
ATOM     13  C   UNL d   1     -40.119  14.914  18.688  0.00  0.00     0.024 C 
BRANCH  13  14
ATOM     14  C   UNL d   1     -39.923  14.623  19.434  0.00  0.00     0.002 C 
BRANCH  14  15
ATOM     15  C   UNL d   1     -40.266  14.952  20.109  0.00  0.00     0.000 A 
ATOM     16  C   UNL d   1     -39.900  15.586  20.490  0.00  0.00     0.000 A 
ATOM     17  C   UNL d   1     -40.242  15.915  21.164  0.00  0.00     0.000 A 
ATOM     18  C   UNL d   1     -40.951  15.612  21.458  0.00  0.00     0.000 A 
ATOM     19  C   UNL d   1     -41.318  14.978  21.076  0.00  0.00     0.000 A 
ATOM     20  C   UNL d   1     -40.975  14.649  20.402  0.00  0.00     0.000 A 
ENDBRANCH  14  15
ENDBRANCH  13  14
ENDBRANCH   4  13
TORSDOF 3
ENDMDL
MODEL 8
REMARK VINA RESULT:      -5.7      1.693      4.775
REMARK  3 active torsions:
REMARK  status: ('A' for Active; 'I' for Inactive)
REMARK    1  A    between atoms: C_7  and  C_4 
REMARK    2  A    between atoms: C_8  and  C_7 
REMARK    3  A    between atoms: C_11  and  C_8 
ROOT
ATOM      1  N   UNL d   1     -45.539  11.844  23.097  0.00  0.00    -0.269 N 
ATOM      2  C   UNL d   1     -46.273  12.207  23.200  0.00  0.00     0.282 A 
ATOM      3  N   UNL d   1     -45.863  13.270  22.346  0.00  0.00    -0.239 NA
ATOM      4  C   UNL d   1     -46.434  12.918  22.825  0.00  0.00     0.138 A 
ATOM      5  C   UNL d   1     -44.968  12.197  22.618  0.00  0.00     0.085 A 
ATOM      6  C   UNL d   1     -45.130  12.908  22.243  0.00  0.00     0.098 A 
ATOM      7  O   UNL d   1     -46.844  11.854  23.680  0.00  0.00    -0.265 OA
ATOM      8  C   UNL d   1     -45.906  11.154  23.698  0.00  0.00     0.102 C 
ATOM      9  C   UNL d   1     -44.234  11.834  22.515  0.00  0.00     0.019 A 
ATOM     10  C   UNL d   1     -44.558  13.260  21.764  0.00  0.00     0.021 A 
ATOM     11  C   UNL d   1     -43.715  12.187  22.059  0.00  0.00     0.002 A 
ATOM     12  C   UNL d   1     -43.876  12.898  21.684  0.00  0.00     0.002 A 
ENDROOT
BRANCH   4  13
ATOM     13  C   UNL d   1     -47.169  13.280  22.928  0.00  0.00     0.024 C 
BRANCH  13  14
ATOM     14  C   UNL d   1     -47.391  13.907  22.442  0.00  0.00     0.002 C 
BRANCH  14  15
ATOM     15  C   UNL d   1     -48.149  14.229  22.503  0.00  0.00     0.000 A 
ATOM     16  C   UNL d   1     -48.801  13.802  22.230  0.00  0.00     0.000 A 
ATOM     17  C   UNL d   1     -49.558  14.123  22.291  0.00  0.00     0.000 A 
ATOM     18  C   UNL d   1     -49.665  14.870  22.624  0.00  0.00     0.000 A 
ATOM     19  C   UNL d   1     -49.012  15.297  22.896  0.00  0.00     0.000 A 
ATOM     20  C   UNL d   1     -48.255  14.976  22.835  0.00  0.00     0.000 A 
ENDBRANCH  14  15
ENDBRANCH  13  14
ENDBRANCH   4  13
TORSDOF 3
ENDMDL
MODEL 9
REMARK VINA RESULT:      -5.4      8.484     10.266
REMARK  3 active torsions:
REMARK  status: ('A' for Active; 'I' for Inactive)
REMARK    1  A    between atoms: C_7  and  C_4 
REMARK    2  A    between atoms: C_8  and  C_7 
REMARK    3  A    between atoms: C_11  and  C_8 
ROOT
ATOM      1  N   UNL d   1     -39.357  14.543  20.581  0.00  0.00    -0.269 N 
ATOM      2  C   UNL d   1     -38.967  14.233  19.924  0.00  0.00     0.282 A 
ATOM      3  N   UNL d   1     -39.915  14.862  19.068  0.00  0.00    -0.239 NA
ATOM      4  C   UNL d   1     -39.245  14.392  19.169  0.00  0.00     0.138 A 
ATOM      5  C   UNL d   1     -40.027  15.013  20.479  0.00  0.00     0.085 A 
ATOM      6  C   UNL d   1     -40.305  15.172  19.724  0.00  0.00     0.098 A 
ATOM      7  O   UNL d   1     -38.296  13.763  20.025  0.00  0.00    -0.265 OA
ATOM      8  C   UNL d   1     -38.658  14.074  21.094  0.00  0.00     0.102 C 
ATOM      9  C   UNL d   1     -40.417  15.324  21.136  0.00  0.00     0.019 A 
ATOM     10  C   UNL d   1     -40.975  15.643  19.623  0.00  0.00     0.021 A 
ATOM     11  C   UNL d   1     -41.045  15.763  21.013  0.00  0.00     0.002 A 
ATOM     12  C   UNL d   1     -41.324  15.922  20.258  0.00  0.00     0.002 A 
ENDROOT
BRANCH   4  13
ATOM     13  C   UNL d   1     -38.855  14.082  18.512  0.00  0.00     0.024 C 
BRANCH  13  14
ATOM     14  C   UNL d   1     -39.239  14.042  17.784  0.00  0.00     0.002 C 
BRANCH  14  15
ATOM     15  C   UNL d   1     -38.806  13.906  17.095  0.00  0.00     0.000 A 
ATOM     16  C   UNL d   1     -38.753  14.495  16.518  0.00  0.00     0.000 A 
ATOM     17  C   UNL d   1     -38.321  14.360  15.830  0.00  0.00     0.000 A 
ATOM     18  C   UNL d   1     -37.940  13.637  15.715  0.00  0.00     0.000 A 
ATOM     19  C   UNL d   1     -37.993  13.048  16.292  0.00  0.00     0.000 A 
ATOM     20  C   UNL d   1     -38.426  13.183  16.981  0.00  0.00     0.000 A 
ENDBRANCH  14  15
ENDBRANCH  13  14
ENDBRANCH   4  13
TORSDOF 3
ENDMDL
