MODEL 1
REMARK VINA RESULT:      -5.6      0.000      0.000
REMARK  1 active torsions:
REMARK  status: ('A' for Active; 'I' for Inactive)
REMARK    1  A    between atoms: C_6  and  C_3 
ROOT
ATOM      1  O   UNL d   1      57.250   0.405  31.158  0.00  0.00    -0.260 OA
ATOM      2  N   UNL d   1      57.356  -0.940  31.021  0.00  0.00    -0.120 NA
ATOM      3  C   UNL d   1      57.015  -0.302  31.468  0.00  0.00     0.205 A 
ATOM      4  N   UNL d   1      57.792  -0.615  30.447  0.00  0.00    -0.109 NA
ATOM      5  C   UNL d   1      57.767   0.191  30.479  0.00  0.00     0.262 A 
ATOM      6  S   UNL d   1      58.162   0.664  29.958  0.00  0.00    -0.029 SA
ENDROOT
BRANCH   3   7
ATOM      7  C   UNL d   1      56.529  -0.375  32.106  0.00  0.00     0.043 A 
ATOM      8  C   UNL d   1      56.273   0.316  32.505  0.00  0.00     0.004 A 
ATOM      9  C   UNL d   1      55.776   0.252  33.159  0.00  0.00     0.000 A 
ATOM     10  C   UNL d   1      55.531  -0.507  33.420  0.00  0.00     0.000 A 
ATOM     11  C   UNL d   1      55.796  -1.174  33.012  0.00  0.00     0.000 A 
ATOM     12  C   UNL d   1      56.290  -1.131  32.361  0.00  0.00     0.004 A 
ENDBRANCH   3   7
TORSDOF 1
ENDMDL
MODEL 2
REMARK VINA RESULT:      -5.2      2.644      3.347
REMARK  1 active torsions:
REMARK  status: ('A' for Active; 'I' for Inactive)
REMARK    1  A    between atoms: C_6  and  C_3 
ROOT
ATOM      1  O   UNL d   1      56.052   0.206  34.140  0.00  0.00    -0.260 OA
ATOM      2  N   UNL d   1      54.961   0.486  33.385  0.00  0.00    -0.120 NA
ATOM      3  C   UNL d   1      55.757   0.188  33.389  0.00  0.00     0.205 A 
ATOM      4  N   UNL d   1      54.781   0.681  34.130  0.00  0.00    -0.109 NA
ATOM      5  C   UNL d   1      55.398   0.535  34.629  0.00  0.00     0.262 A 
ATOM      6  S   UNL d   1      55.367   0.682  35.422  0.00  0.00    -0.029 SA
ENDROOT
BRANCH   3   7
ATOM      7  C   UNL d   1      56.170  -0.076  32.750  0.00  0.00     0.043 A 
ATOM      8  C   UNL d   1      56.214  -0.900  32.604  0.00  0.00     0.004 A 
ATOM      9  C   UNL d   1      56.634  -1.179  31.953  0.00  0.00     0.000 A 
ATOM     10  C   UNL d   1      57.014  -0.635  31.440  0.00  0.00     0.000 A 
ATOM     11  C   UNL d   1      56.957   0.172  31.602  0.00  0.00     0.000 A 
ATOM     12  C   UNL d   1      56.545   0.469  32.244  0.00  0.00     0.004 A 
ENDBRANCH   3   7
TORSDOF 1
ENDMDL
MODEL 3
REMARK VINA RESULT:      -5.2      0.587      1.042
REMARK  1 active torsions:
REMARK  status: ('A' for Active; 'I' for Inactive)
REMARK    1  A    between atoms: C_6  and  C_3 
ROOT
ATOM      1  O   UNL d   1      58.005   0.369  31.220  0.00  0.00    -0.260 OA
ATOM      2  N   UNL d   1      57.356  -0.474  30.377  0.00  0.00    -0.120 NA
ATOM      3  C   UNL d   1      57.367  -0.121  31.151  0.00  0.00     0.205 A 
ATOM      4  N   UNL d   1      57.985  -0.196  29.986  0.00  0.00    -0.109 NA
ATOM      5  C   UNL d   1      58.412   0.315  30.441  0.00  0.00     0.262 A 
ATOM      6  S   UNL d   1      59.082   0.682  30.180  0.00  0.00    -0.029 SA
ENDROOT
BRANCH   3   7
ATOM      7  C   UNL d   1      56.830  -0.246  31.739  0.00  0.00     0.043 A 
ATOM      8  C   UNL d   1      56.655  -1.032  31.971  0.00  0.00     0.004 A 
ATOM      9  C   UNL d   1      56.107  -1.169  32.571  0.00  0.00     0.000 A 
ATOM     10  C   UNL d   1      55.730  -0.519  32.945  0.00  0.00     0.000 A 
ATOM     11  C   UNL d   1      55.918   0.246  32.700  0.00  0.00     0.000 A 
ATOM     12  C   UNL d   1      56.459   0.403  32.105  0.00  0.00     0.004 A 
ENDBRANCH   3   7
TORSDOF 1
ENDMDL
MODEL 4
REMARK VINA RESULT:      -5.0      1.101      1.601
REMARK  1 active torsions:
REMARK  status: ('A' for Active; 'I' for Inactive)
REMARK    1  A    between atoms: C_6  and  C_3 
ROOT
ATOM      1  O   UNL d   1      56.836   0.080  32.087  0.00  0.00    -0.260 OA
ATOM      2  N   UNL d   1      56.310  -1.146  32.332  0.00  0.00    -0.120 NA
ATOM      3  C   UNL d   1      56.353  -0.335  32.583  0.00  0.00     0.205 A 
ATOM      4  N   UNL d   1      56.765  -1.216  31.689  0.00  0.00    -0.109 NA
ATOM      5  C   UNL d   1      57.107  -0.512  31.494  0.00  0.00     0.262 A 
ATOM      6  S   UNL d   1      57.600  -0.423  30.860  0.00  0.00    -0.029 SA
ENDROOT
BRANCH   3   7
ATOM      7  C   UNL d   1      55.976  -0.012  33.217  0.00  0.00     0.043 A 
ATOM      8  C   UNL d   1      55.141  -0.058  33.262  0.00  0.00     0.004 A 
ATOM      9  C   UNL d   1      54.747   0.270  33.907  0.00  0.00     0.000 A 
ATOM     10  C   UNL d   1      55.187   0.647  34.514  0.00  0.00     0.000 A 
ATOM     11  C   UNL d   1      56.009   0.681  34.449  0.00  0.00     0.000 A 
ATOM     12  C   UNL d   1      56.419   0.362  33.816  0.00  0.00     0.004 A 
ENDBRANCH   3   7
TORSDOF 1
ENDMDL
MODEL 5
REMARK VINA RESULT:      -4.0      8.791      9.323
REMARK  1 active torsions:
REMARK  status: ('A' for Active; 'I' for Inactive)
REMARK    1  A    between atoms: C_6  and  C_3 
ROOT
ATOM      1  O   UNL d   1      60.821  -6.958  35.983  0.00  0.00    -0.260 OA
ATOM      2  N   UNL d   1      59.486  -6.733  35.894  0.00  0.00    -0.120 NA
ATOM      3  C   UNL d   1      60.102  -7.319  35.920  0.00  0.00     0.205 A 
ATOM      4  N   UNL d   1      59.836  -6.025  35.941  0.00  0.00    -0.109 NA
ATOM      5  C   UNL d   1      60.638  -6.097  35.997  0.00  0.00     0.262 A 
ATOM      6  S   UNL d   1      61.133  -5.462  36.052  0.00  0.00    -0.029 SA
ENDROOT
BRANCH   3   7
ATOM      7  C   UNL d   1      60.001  -8.117  35.888  0.00  0.00     0.043 A 
ATOM      8  C   UNL d   1      59.358  -8.464  36.299  0.00  0.00     0.004 A 
ATOM      9  C   UNL d   1      59.247  -9.280  36.271  0.00  0.00     0.000 A 
ATOM     10  C   UNL d   1      59.780  -9.756  35.831  0.00  0.00     0.000 A 
ATOM     11  C   UNL d   1      60.405  -9.393  35.435  0.00  0.00     0.000 A 
ATOM     12  C   UNL d   1      60.533  -8.584  35.449  0.00  0.00     0.004 A 
ENDBRANCH   3   7
TORSDOF 1
ENDMDL
MODEL 6
REMARK VINA RESULT:      -3.8      9.250      9.867
REMARK  1 active torsions:
REMARK  status: ('A' for Active; 'I' for Inactive)
REMARK    1  A    between atoms: C_6  and  C_3 
ROOT
ATOM      1  O   UNL d   1      59.771  -7.950  34.953  0.00  0.00    -0.260 OA
ATOM      2  N   UNL d   1      59.511  -9.151  35.528  0.00  0.00    -0.120 NA
ATOM      3  C   UNL d   1      59.741  -8.745  34.817  0.00  0.00     0.205 A 
ATOM      4  N   UNL d   1      59.405  -8.600  36.086  0.00  0.00    -0.109 NA
ATOM      5  C   UNL d   1      59.547  -7.860  35.799  0.00  0.00     0.262 A 
ATOM      6  S   UNL d   1      59.480  -7.193  36.250  0.00  0.00    -0.029 SA
ENDROOT
BRANCH   3   7
ATOM      7  C   UNL d   1      59.907  -9.086  34.106  0.00  0.00     0.043 A 
ATOM      8  C   UNL d   1      59.277  -9.375  33.635  0.00  0.00     0.004 A 
ATOM      9  C   UNL d   1      59.437  -9.725  32.907  0.00  0.00     0.000 A 
ATOM     10  C   UNL d   1      60.231  -9.789  32.644  0.00  0.00     0.000 A 
ATOM     11  C   UNL d   1      60.835  -9.497  33.124  0.00  0.00     0.000 A 
ATOM     12  C   UNL d   1      60.697  -9.146  33.850  0.00  0.00     0.004 A 
ENDBRANCH   3   7
TORSDOF 1
ENDMDL
MODEL 7
REMARK VINA RESULT:      -3.5      1.583      3.325
REMARK  1 active torsions:
REMARK  status: ('A' for Active; 'I' for Inactive)
REMARK    1  A    between atoms: C_6  and  C_3 
ROOT
ATOM      1  O   UNL d   1      56.982  -0.536  31.244  0.00  0.00    -0.260 OA
ATOM      2  N   UNL d   1      57.763   0.459  31.736  0.00  0.00    -0.120 NA
ATOM      3  C   UNL d   1      57.573  -0.019  31.058  0.00  0.00     0.205 A 
ATOM      4  N   UNL d   1      57.287   0.228  32.324  0.00  0.00    -0.109 NA
ATOM      5  C   UNL d   1      56.796  -0.367  32.088  0.00  0.00     0.262 A 
ATOM      6  S   UNL d   1      56.251  -0.708  32.577  0.00  0.00    -0.029 SA
ENDROOT
BRANCH   3   7
ATOM      7  C   UNL d   1      57.921   0.025  30.333  0.00  0.00     0.043 A 
ATOM      8  C   UNL d   1      58.455  -0.577  30.099  0.00  0.00     0.004 A 
ATOM      9  C   UNL d   1      58.815  -0.540  29.359  0.00  0.00     0.000 A 
ATOM     10  C   UNL d   1      58.643   0.101  28.846  0.00  0.00     0.000 A 
ATOM     11  C   UNL d   1      58.114   0.682  29.096  0.00  0.00     0.000 A 
ATOM     12  C   UNL d   1      57.746   0.664  29.827  0.00  0.00     0.004 A 
ENDBRANCH   3   7
TORSDOF 1
ENDMDL
MODEL 8
REMARK VINA RESULT:      -3.0      2.573      4.045
REMARK  1 active torsions:
REMARK  status: ('A' for Active; 'I' for Inactive)
REMARK    1  A    between atoms: C_6  and  C_3 
ROOT
ATOM      1  O   UNL d   1      58.405  -0.502  30.277  0.00  0.00    -0.260 OA
ATOM      2  N   UNL d   1      58.172  -0.123  28.995  0.00  0.00    -0.120 NA
ATOM      3  C   UNL d   1      58.543  -0.694  29.505  0.00  0.00     0.205 A 
ATOM      4  N   UNL d   1      57.814   0.407  29.461  0.00  0.00    -0.109 NA
ATOM      5  C   UNL d   1      57.920   0.232  30.241  0.00  0.00     0.262 A 
ATOM      6  S   UNL d   1      57.614   0.681  30.838  0.00  0.00    -0.029 SA
ENDROOT
BRANCH   3   7
ATOM      7  C   UNL d   1      58.970  -1.335  29.271  0.00  0.00     0.043 A 
ATOM      8  C   UNL d   1      58.611  -2.091  29.282  0.00  0.00     0.004 A 
ATOM      9  C   UNL d   1      59.041  -2.752  29.044  0.00  0.00     0.000 A 
ATOM     10  C   UNL d   1      59.836  -2.661  28.792  0.00  0.00     0.000 A 
ATOM     11  C   UNL d   1      60.170  -1.907  28.789  0.00  0.00     0.000 A 
ATOM     12  C   UNL d   1      59.759  -1.237  29.022  0.00  0.00     0.004 A 
ENDBRANCH   3   7
TORSDOF 1
ENDMDL
MODEL 9
REMARK VINA RESULT:      -2.9      3.434      4.134
REMARK  1 active torsions:
REMARK  status: ('A' for Active; 'I' for Inactive)
REMARK    1  A    between atoms: C_6  and  C_3 
ROOT
ATOM      1  O   UNL d   1      59.685  -2.135  28.971  0.00  0.00    -0.260 OA
ATOM      2  N   UNL d   1      58.431  -2.537  29.299  0.00  0.00    -0.120 NA
ATOM      3  C   UNL d   1      58.941  -1.874  29.142  0.00  0.00     0.205 A 
ATOM      4  N   UNL d   1      58.870  -3.190  29.222  0.00  0.00    -0.109 NA
ATOM      5  C   UNL d   1      59.632  -3.012  29.026  0.00  0.00     0.262 A 
ATOM      6  S   UNL d   1      60.200  -3.574  28.912  0.00  0.00    -0.029 SA
ENDROOT
BRANCH   3   7
ATOM      7  C   UNL d   1      58.729  -1.097  29.158  0.00  0.00     0.043 A 
ATOM      8  C   UNL d   1      58.494  -0.752  29.884  0.00  0.00     0.004 A 
ATOM      9  C   UNL d   1      58.276   0.042  29.910  0.00  0.00     0.000 A 
ATOM     10  C   UNL d   1      58.291   0.498  29.206  0.00  0.00     0.000 A 
ATOM     11  C   UNL d   1      58.526   0.138  28.502  0.00  0.00     0.000 A 
ATOM     12  C   UNL d   1      58.746  -0.649  28.456  0.00  0.00     0.004 A 
ENDBRANCH   3   7
TORSDOF 1
ENDMDL
