MODEL 1
REMARK VINA RESULT:      39.8      0.000      0.000
REMARK  1 active torsions:
REMARK  status: ('A' for Active; 'I' for Inactive)
REMARK    1  A    between atoms: N_3  and  C_1 
ROOT
ATOM      1  C   UNL d   1      14.275  12.977  -2.157  0.00  0.00     0.110 A 
ATOM      2  C   UNL d   1      14.333  13.802  -2.039  0.00  0.00     0.212 A 
ATOM      3  C   UNL d   1      14.710  14.091  -1.364  0.00  0.00     0.046 A 
ATOM      4  C   UNL d   1      14.596  12.455  -1.597  0.00  0.00     0.056 A 
ATOM      5  S   UNL d   1      14.974  12.760  -0.918  0.00  0.00    -0.085 SA
ATOM      6  C   UNL d   1      15.029  13.572  -0.806  0.00  0.00     0.033 A 
ATOM      7  C   UNL d   1      14.769  14.904  -1.244  0.00  0.00     0.004 A 
ATOM      8  O   UNL d   1      14.016  14.321  -2.593  0.00  0.00    -0.285 OA
ATOM      9  C   UNL d   1      15.404  13.867  -0.135  0.00  0.00     0.007 A 
ATOM     10  C   UNL d   1      15.139  15.198  -0.581  0.00  0.00     0.000 A 
ATOM     11  C   UNL d   1      15.463  14.672  -0.015  0.00  0.00     0.001 A 
ATOM     12  C   UNL d   1      15.202  16.006  -0.455  0.00  0.00     0.000 C 
ENDROOT
BRANCH   1  13
ATOM     13  N   UNL d   1      13.899  12.678  -2.831  0.00  0.00    -0.301 N 
ATOM     14  C   UNL d   1      14.090  12.967  -3.568  0.00  0.00     0.080 A 
ATOM     15  C   UNL d   1      13.716  12.672  -4.246  0.00  0.00     0.018 A 
ATOM     16  C   UNL d   1      13.908  12.963  -4.988  0.00  0.00     0.002 A 
ATOM     17  C   UNL d   1      13.148  12.082  -4.172  0.00  0.00     0.003 A 
ATOM     18  C   UNL d   1      13.535  12.667  -5.662  0.00  0.00     0.000 A 
ATOM     19  C   UNL d   1      12.964  12.075  -5.587  0.00  0.00     0.000 A 
ATOM     20  C   UNL d   1      12.770  11.780  -4.839  0.00  0.00     0.000 A 
ATOM     21  C   UNL d   1      12.947  11.780  -3.418  0.00  0.00     0.019 A 
ATOM     22  C   UNL d   1      13.326  12.083  -2.756  0.00  0.00     0.080 A 
ENDBRANCH   1  13
TORSDOF 1
ENDMDL
