MODEL 1
REMARK VINA RESULT:      -8.7      0.000      0.000
REMARK  6 active torsions:
REMARK  status: ('A' for Active; 'I' for Inactive)
REMARK    1  A    between atoms: C_5  and  C_1 
REMARK    2  A    between atoms: N_4  and  C_2 
REMARK       I    between atoms: C_3  and  N_4 
REMARK    3  A    between atoms: C_10  and  C_3 
REMARK    4  A    between atoms: O_15  and  C_5 
REMARK    5  A    between atoms: C_6  and  C_7 
REMARK    6  A    between atoms: O_16  and  C_6 
ROOT
ATOM      1  C   UNL d   1      52.548  32.344  53.294  0.00  0.00     0.093 A 
ATOM      2  C   UNL d   1      53.196  32.206  53.786  0.00  0.00     0.140 A 
ATOM      3  C   UNL d   1      53.123  30.810  53.489  0.00  0.00     0.066 A 
ATOM      4  C   UNL d   1      53.483  31.436  53.883  0.00  0.00     0.038 A 
ATOM      5  C   UNL d   1      52.188  31.713  52.900  0.00  0.00     0.008 A 
ATOM      6  C   UNL d   1      52.475  30.948  52.998  0.00  0.00     0.006 A 
ENDROOT
BRANCH   2   7
ATOM      7  N   UNL d   1      53.560  32.831  54.182  0.00  0.00    -0.368 NA
ATOM      8  C   UNL d   1      53.919  33.453  54.576  0.00  0.00     0.303 C 
ATOM      9  O   UNL d   1      53.464  34.031  54.945  0.00  0.00    -0.256 OA
BRANCH   8  10
ATOM     10  C   UNL d   1      54.744  33.499  54.601  0.00  0.00     0.085 C 
ATOM     11  C   UNL d   1      55.201  33.343  53.930  0.00  0.00     0.011 C 
ATOM     12  C   UNL d   1      54.496  33.689  55.366  0.00  0.00     0.011 C 
ATOM     13  C   UNL d   1      55.124  33.703  55.307  0.00  0.00     0.011 C 
ENDBRANCH   8  10
ENDBRANCH   2   7
BRANCH   1  14
ATOM     14  C   UNL d   1      52.261  33.109  53.197  0.00  0.00     0.298 C 
ATOM     15  O   UNL d   1      51.787  33.450  53.779  0.00  0.00    -0.259 OA
BRANCH  14  16
ATOM     16  O   UNL d   1      52.447  33.534  52.516  0.00  0.00    -0.296 OA
ATOM     17  C   UNL d   1      51.918  34.100  52.219  0.00  0.00     0.185 C 
ENDBRANCH  14  16
ENDBRANCH   1  14
BRANCH   3  18
ATOM     18  C   UNL d   1      53.410  30.044  53.587  0.00  0.00     0.296 C 
ATOM     19  O   UNL d   1      54.123  29.822  53.235  0.00  0.00    -0.259 OA
BRANCH  18  20
ATOM     20  O   UNL d   1      52.984  29.493  54.040  0.00  0.00    -0.296 OA
ATOM     21  C   UNL d   1      53.372  28.855  54.386  0.00  0.00     0.185 C 
ENDBRANCH  18  20
ENDBRANCH   3  18
TORSDOF 6
ENDMDL
MODEL 2
REMARK VINA RESULT:      -8.5      1.105      3.767
REMARK  6 active torsions:
REMARK  status: ('A' for Active; 'I' for Inactive)
REMARK    1  A    between atoms: C_5  and  C_1 
REMARK    2  A    between atoms: N_4  and  C_2 
REMARK       I    between atoms: C_3  and  N_4 
REMARK    3  A    between atoms: C_10  and  C_3 
REMARK    4  A    between atoms: O_15  and  C_5 
REMARK    5  A    between atoms: C_6  and  C_7 
REMARK    6  A    between atoms: O_16  and  C_6 
ROOT
ATOM      1  C   UNL d   1      53.350  33.393  53.712  0.00  0.00     0.093 A 
ATOM      2  C   UNL d   1      52.897  32.839  53.301  0.00  0.00     0.140 A 
ATOM      3  C   UNL d   1      51.999  33.874  52.894  0.00  0.00     0.066 A 
ATOM      4  C   UNL d   1      52.220  33.081  52.891  0.00  0.00     0.038 A 
ATOM      5  C   UNL d   1      53.125  34.189  53.713  0.00  0.00     0.008 A 
ATOM      6  C   UNL d   1      52.452  34.428  53.306  0.00  0.00     0.006 A 
ENDROOT
BRANCH   2   7
ATOM      7  N   UNL d   1      53.116  32.043  53.295  0.00  0.00    -0.368 NA
ATOM      8  C   UNL d   1      53.336  31.254  53.289  0.00  0.00     0.303 C 
ATOM      9  O   UNL d   1      54.130  31.043  53.244  0.00  0.00    -0.256 OA
BRANCH   8  10
ATOM     10  C   UNL d   1      52.755  30.668  53.330  0.00  0.00     0.085 C 
ATOM     11  C   UNL d   1      51.955  30.865  53.404  0.00  0.00     0.011 C 
ATOM     12  C   UNL d   1      53.467  30.257  53.260  0.00  0.00     0.011 C 
ATOM     13  C   UNL d   1      52.970  29.870  53.296  0.00  0.00     0.011 C 
ENDBRANCH   8  10
ENDBRANCH   2   7
BRANCH   1  14
ATOM     14  C   UNL d   1      54.023  33.154  54.119  0.00  0.00     0.298 C 
ATOM     15  O   UNL d   1      54.733  33.041  53.714  0.00  0.00    -0.259 OA
BRANCH  14  16
ATOM     16  O   UNL d   1      53.988  33.028  54.932  0.00  0.00    -0.296 OA
ATOM     17  C   UNL d   1      54.620  33.259  55.419  0.00  0.00     0.185 C 
ENDBRANCH  14  16
ENDBRANCH   1  14
BRANCH   3  18
ATOM     18  C   UNL d   1      51.325  34.113  52.486  0.00  0.00     0.296 C 
ATOM     19  O   UNL d   1      51.364  34.266  51.676  0.00  0.00    -0.259 OA
BRANCH  18  20
ATOM     20  O   UNL d   1      50.603  34.199  52.888  0.00  0.00    -0.296 OA
ATOM     21  C   UNL d   1      49.932  34.450  52.482  0.00  0.00     0.185 C 
ENDBRANCH  18  20
ENDBRANCH   3  18
TORSDOF 6
ENDMDL
MODEL 3
REMARK VINA RESULT:      -8.4      1.044      2.696
REMARK  6 active torsions:
REMARK  status: ('A' for Active; 'I' for Inactive)
REMARK    1  A    between atoms: C_5  and  C_1 
REMARK    2  A    between atoms: N_4  and  C_2 
REMARK       I    between atoms: C_3  and  N_4 
REMARK    3  A    between atoms: C_10  and  C_3 
REMARK    4  A    between atoms: O_15  and  C_5 
REMARK    5  A    between atoms: C_6  and  C_7 
REMARK    6  A    between atoms: O_16  and  C_6 
ROOT
ATOM      1  C   UNL d   1      53.473  32.890  53.827  0.00  0.00     0.093 A 
ATOM      2  C   UNL d   1      52.837  32.744  53.322  0.00  0.00     0.140 A 
ATOM      3  C   UNL d   1      53.162  31.353  53.315  0.00  0.00     0.066 A 
ATOM      4  C   UNL d   1      52.682  31.973  53.066  0.00  0.00     0.038 A 
ATOM      5  C   UNL d   1      53.954  32.265  54.076  0.00  0.00     0.008 A 
ATOM      6  C   UNL d   1      53.798  31.499  53.820  0.00  0.00     0.006 A 
ENDROOT
BRANCH   2   7
ATOM      7  N   UNL d   1      52.354  33.364  53.070  0.00  0.00    -0.368 NA
ATOM      8  C   UNL d   1      51.876  33.981  52.820  0.00  0.00     0.303 C 
ATOM      9  O   UNL d   1      52.210  34.686  52.559  0.00  0.00    -0.256 OA
BRANCH   8  10
ATOM     10  C   UNL d   1      51.055  33.891  52.830  0.00  0.00     0.085 C 
ATOM     11  C   UNL d   1      50.676  33.505  53.454  0.00  0.00     0.011 C 
ATOM     12  C   UNL d   1      51.216  34.298  52.130  0.00  0.00     0.011 C 
ATOM     13  C   UNL d   1      50.599  34.192  52.208  0.00  0.00     0.011 C 
ENDBRANCH   8  10
ENDBRANCH   2   7
BRANCH   1  14
ATOM     14  C   UNL d   1      53.629  33.657  54.083  0.00  0.00     0.298 C 
ATOM     15  O   UNL d   1      54.037  34.181  53.593  0.00  0.00    -0.259 OA
BRANCH  14  16
ATOM     16  O   UNL d   1      53.378  33.900  54.828  0.00  0.00    -0.296 OA
ATOM     17  C   UNL d   1      53.812  34.468  55.251  0.00  0.00     0.185 C 
ENDBRANCH  14  16
ENDBRANCH   1  14
BRANCH   3  18
ATOM     18  C   UNL d   1      53.005  30.585  53.059  0.00  0.00     0.296 C 
ATOM     19  O   UNL d   1      52.990  30.414  52.252  0.00  0.00    -0.259 OA
BRANCH  18  20
ATOM     20  O   UNL d   1      52.863  29.982  53.613  0.00  0.00    -0.296 OA
ATOM     21  C   UNL d   1      52.638  29.233  53.357  0.00  0.00     0.185 C 
ENDBRANCH  18  20
ENDBRANCH   3  18
TORSDOF 6
ENDMDL
MODEL 4
REMARK VINA RESULT:      -8.2      1.158      3.521
REMARK  6 active torsions:
REMARK  status: ('A' for Active; 'I' for Inactive)
REMARK    1  A    between atoms: C_5  and  C_1 
REMARK    2  A    between atoms: N_4  and  C_2 
REMARK       I    between atoms: C_3  and  N_4 
REMARK    3  A    between atoms: C_10  and  C_3 
REMARK    4  A    between atoms: O_15  and  C_5 
REMARK    5  A    between atoms: C_6  and  C_7 
REMARK    6  A    between atoms: O_16  and  C_6 
ROOT
ATOM      1  C   UNL d   1      53.175  32.134  53.483  0.00  0.00     0.093 A 
ATOM      2  C   UNL d   1      52.829  32.860  53.667  0.00  0.00     0.140 A 
ATOM      3  C   UNL d   1      53.987  33.221  54.423  0.00  0.00     0.066 A 
ATOM      4  C   UNL d   1      53.237  33.405  54.138  0.00  0.00     0.038 A 
ATOM      5  C   UNL d   1      53.929  31.953  53.771  0.00  0.00     0.008 A 
ATOM      6  C   UNL d   1      54.333  32.495  54.239  0.00  0.00     0.006 A 
ENDROOT
BRANCH   2   7
ATOM      7  N   UNL d   1      52.077  33.048  53.383  0.00  0.00    -0.368 NA
ATOM      8  C   UNL d   1      51.330  33.232  53.102  0.00  0.00     0.303 C 
ATOM      9  O   UNL d   1      50.704  32.708  53.209  0.00  0.00    -0.256 OA
BRANCH   8  10
ATOM     10  C   UNL d   1      51.206  33.948  52.709  0.00  0.00     0.085 C 
ATOM     11  C   UNL d   1      51.775  34.256  52.195  0.00  0.00     0.011 C 
ATOM     12  C   UNL d   1      50.525  33.832  53.162  0.00  0.00     0.011 C 
ATOM     13  C   UNL d   1      50.504  34.368  52.828  0.00  0.00     0.011 C 
ENDBRANCH   8  10
ENDBRANCH   2   7
BRANCH   1  14
ATOM     14  C   UNL d   1      52.771  31.592  53.015  0.00  0.00     0.298 C 
ATOM     15  O   UNL d   1      52.753  31.687  52.196  0.00  0.00    -0.259 OA
BRANCH  14  16
ATOM     16  O   UNL d   1      52.385  30.954  53.365  0.00  0.00    -0.296 OA
ATOM     17  C   UNL d   1      52.470  30.190  53.051  0.00  0.00     0.185 C 
ENDBRANCH  14  16
ENDBRANCH   1  14
BRANCH   3  18
ATOM     18  C   UNL d   1      54.391  33.765  54.892  0.00  0.00     0.296 C 
ATOM     19  O   UNL d   1      54.034  34.479  55.099  0.00  0.00    -0.259 OA
BRANCH  18  20
ATOM     20  O   UNL d   1      55.160  33.595  55.158  0.00  0.00    -0.296 OA
ATOM     21  C   UNL d   1      55.608  34.179  55.526  0.00  0.00     0.185 C 
ENDBRANCH  18  20
ENDBRANCH   3  18
TORSDOF 6
ENDMDL
MODEL 5
REMARK VINA RESULT:      -8.2      1.142      3.114
REMARK  6 active torsions:
REMARK  status: ('A' for Active; 'I' for Inactive)
REMARK    1  A    between atoms: C_5  and  C_1 
REMARK    2  A    between atoms: N_4  and  C_2 
REMARK       I    between atoms: C_3  and  N_4 
REMARK    3  A    between atoms: C_10  and  C_3 
REMARK    4  A    between atoms: O_15  and  C_5 
REMARK    5  A    between atoms: C_6  and  C_7 
REMARK    6  A    between atoms: O_16  and  C_6 
ROOT
ATOM      1  C   UNL d   1      52.680  32.109  53.145  0.00  0.00     0.093 A 
ATOM      2  C   UNL d   1      52.945  32.824  53.459  0.00  0.00     0.140 A 
ATOM      3  C   UNL d   1      51.693  33.431  53.133  0.00  0.00     0.066 A 
ATOM      4  C   UNL d   1      52.449  33.487  53.453  0.00  0.00     0.038 A 
ATOM      5  C   UNL d   1      51.920  32.056  52.824  0.00  0.00     0.008 A 
ATOM      6  C   UNL d   1      51.428  32.716  52.818  0.00  0.00     0.006 A 
ENDROOT
BRANCH   2   7
ATOM      7  N   UNL d   1      53.703  32.883  53.781  0.00  0.00    -0.368 NA
ATOM      8  C   UNL d   1      54.455  32.941  54.099  0.00  0.00     0.303 C 
ATOM      9  O   UNL d   1      55.114  32.734  53.650  0.00  0.00    -0.256 OA
BRANCH   8  10
ATOM     10  C   UNL d   1      54.552  33.210  54.874  0.00  0.00     0.085 C 
ATOM     11  C   UNL d   1      54.065  32.939  55.484  0.00  0.00     0.011 C 
ATOM     12  C   UNL d   1      55.133  33.603  54.438  0.00  0.00     0.011 C 
ATOM     13  C   UNL d   1      55.145  33.760  55.049  0.00  0.00     0.011 C 
ENDBRANCH   8  10
ENDBRANCH   2   7
BRANCH   1  14
ATOM     14  C   UNL d   1      53.172  31.449  53.150  0.00  0.00     0.298 C 
ATOM     15  O   UNL d   1      53.765  31.371  52.582  0.00  0.00    -0.259 OA
BRANCH  14  16
ATOM     16  O   UNL d   1      53.072  30.867  53.724  0.00  0.00    -0.296 OA
ATOM     17  C   UNL d   1      53.206  30.069  53.537  0.00  0.00     0.185 C 
ENDBRANCH  14  16
ENDBRANCH   1  14
BRANCH   3  18
ATOM     18  C   UNL d   1      51.201  34.092  53.128  0.00  0.00     0.296 C 
ATOM     19  O   UNL d   1      51.510  34.839  53.294  0.00  0.00    -0.259 OA
BRANCH  18  20
ATOM     20  O   UNL d   1      50.393  34.008  52.954  0.00  0.00    -0.296 OA
ATOM     21  C   UNL d   1      49.909  34.673  52.913  0.00  0.00     0.185 C 
ENDBRANCH  18  20
ENDBRANCH   3  18
TORSDOF 6
ENDMDL
MODEL 6
REMARK VINA RESULT:      -7.8      1.160      3.329
REMARK  6 active torsions:
REMARK  status: ('A' for Active; 'I' for Inactive)
REMARK    1  A    between atoms: C_5  and  C_1 
REMARK    2  A    between atoms: N_4  and  C_2 
REMARK       I    between atoms: C_3  and  N_4 
REMARK    3  A    between atoms: C_10  and  C_3 
REMARK    4  A    between atoms: O_15  and  C_5 
REMARK    5  A    between atoms: C_6  and  C_7 
REMARK    6  A    between atoms: O_16  and  C_6 
ROOT
ATOM      1  C   UNL d   1      52.585  33.288  53.574  0.00  0.00     0.093 A 
ATOM      2  C   UNL d   1      53.089  32.648  53.703  0.00  0.00     0.140 A 
ATOM      3  C   UNL d   1      53.873  33.446  54.594  0.00  0.00     0.066 A 
ATOM      4  C   UNL d   1      53.735  32.728  54.215  0.00  0.00     0.038 A 
ATOM      5  C   UNL d   1      52.725  34.008  53.957  0.00  0.00     0.008 A 
ATOM      6  C   UNL d   1      53.368  34.086  54.465  0.00  0.00     0.006 A 
ENDROOT
BRANCH   2   7
ATOM      7  N   UNL d   1      52.954  31.928  53.325  0.00  0.00    -0.368 NA
ATOM      8  C   UNL d   1      52.820  31.213  52.947  0.00  0.00     0.303 C 
ATOM      9  O   UNL d   1      52.616  31.195  52.150  0.00  0.00    -0.256 OA
BRANCH   8  10
ATOM     10  C   UNL d   1      52.890  30.508  53.371  0.00  0.00     0.085 C 
ATOM     11  C   UNL d   1      52.596  30.441  54.141  0.00  0.00     0.011 C 
ATOM     12  C   UNL d   1      53.244  30.353  52.641  0.00  0.00     0.011 C 
ATOM     13  C   UNL d   1      53.259  29.853  53.025  0.00  0.00     0.011 C 
ENDBRANCH   8  10
ENDBRANCH   2   7
BRANCH   1  14
ATOM     14  C   UNL d   1      51.942  33.210  53.067  0.00  0.00     0.298 C 
ATOM     15  O   UNL d   1      52.055  33.244  52.250  0.00  0.00    -0.259 OA
BRANCH  14  16
ATOM     16  O   UNL d   1      51.187  33.098  53.374  0.00  0.00    -0.296 OA
ATOM     17  C   UNL d   1      50.535  33.484  53.033  0.00  0.00     0.185 C 
ENDBRANCH  14  16
ENDBRANCH   1  14
BRANCH   3  18
ATOM     18  C   UNL d   1      54.516  33.524  55.102  0.00  0.00     0.296 C 
ATOM     19  O   UNL d   1      54.573  33.046  55.773  0.00  0.00    -0.259 OA
BRANCH  18  20
ATOM     20  O   UNL d   1      55.109  34.083  54.942  0.00  0.00    -0.296 OA
ATOM     21  C   UNL d   1      55.811  34.075  55.371  0.00  0.00     0.185 C 
ENDBRANCH  18  20
ENDBRANCH   3  18
TORSDOF 6
ENDMDL
