MODEL 1
REMARK VINA RESULT:      -8.3      0.000      0.000
REMARK  3 active torsions:
REMARK  status: ('A' for Active; 'I' for Inactive)
REMARK    1  A    between atoms: N_2  and  S_1 
REMARK    2  A    between atoms: C_4  and  S_1 
REMARK    3  A    between atoms: C_3  and  N_2 
ROOT
ATOM      1  S   UNL d   1     -48.288  14.203  22.386  0.00  0.00     0.285 S 
ATOM      2  O   UNL d   1     -48.737  13.789  21.827  0.00  0.00    -0.198 OA
ATOM      3  O   UNL d   1     -47.838  14.621  22.949  0.00  0.00    -0.198 OA
ENDROOT
BRANCH   1   4
ATOM      4  N   UNL d   1     -47.593  13.852  22.090  0.00  0.00    -0.158 NA
BRANCH   4   5
ATOM      5  C   UNL d   1     -47.251  13.215  22.493  0.00  0.00     0.094 A 
ATOM      6  C   UNL d   1     -47.717  12.621  22.835  0.00  0.00     0.023 A 
ATOM      7  C   UNL d   1     -47.377  11.996  23.230  0.00  0.00     0.041 A 
ATOM      8  C   UNL d   1     -47.871  11.428  23.555  0.00  0.00     0.003 C 
ATOM      9  C   UNL d   1     -46.534  11.948  23.295  0.00  0.00     0.196 A 
ATOM     10  C   UNL d   1     -46.069  12.541  22.953  0.00  0.00     0.044 A 
ATOM     11  O   UNL d   1     -46.192  11.310  23.698  0.00  0.00    -0.287 OA
ATOM     12  C   UNL d   1     -46.431  13.163  22.560  0.00  0.00     0.022 A 
ATOM     13  C   UNL d   1     -45.959  13.741  22.228  0.00  0.00     0.002 C 
ENDBRANCH   4   5
ENDBRANCH   1   4
BRANCH   1  14
ATOM     14  C   UNL d   1     -48.982  14.557  22.685  0.00  0.00     0.105 A 
ATOM     15  C   UNL d   1     -48.915  15.194  23.191  0.00  0.00     0.013 A 
ATOM     16  C   UNL d   1     -49.581  15.542  23.484  0.00  0.00     0.001 A 
ATOM     17  C   UNL d   1     -50.348  15.253  23.274  0.00  0.00     0.000 A 
ATOM     18  C   UNL d   1     -50.410  14.610  22.764  0.00  0.00     0.001 A 
ATOM     19  C   UNL d   1     -51.063  15.603  23.571  0.00  0.00     0.000 C 
ATOM     20  C   UNL d   1     -49.719  14.259  22.467  0.00  0.00     0.013 A 
ENDBRANCH   1  14
TORSDOF 3
ENDMDL
MODEL 2
REMARK VINA RESULT:      -8.1      0.917      1.600
REMARK  3 active torsions:
REMARK  status: ('A' for Active; 'I' for Inactive)
REMARK    1  A    between atoms: N_2  and  S_1 
REMARK    2  A    between atoms: C_4  and  S_1 
REMARK    3  A    between atoms: C_3  and  N_2 
ROOT
ATOM      1  S   UNL d   1     -49.238  13.196  22.787  0.00  0.00     0.285 S 
ATOM      2  O   UNL d   1     -49.144  13.428  21.997  0.00  0.00    -0.198 OA
ATOM      3  O   UNL d   1     -49.333  12.964  23.581  0.00  0.00    -0.198 OA
ENDROOT
BRANCH   1   4
ATOM      4  N   UNL d   1     -48.780  12.516  22.643  0.00  0.00    -0.158 NA
BRANCH   4   5
ATOM      5  C   UNL d   1     -47.983  12.502  22.867  0.00  0.00     0.094 A 
ATOM      6  C   UNL d   1     -47.480  13.141  22.710  0.00  0.00     0.023 A 
ATOM      7  C   UNL d   1     -46.697  13.123  22.933  0.00  0.00     0.041 A 
ATOM      8  C   UNL d   1     -46.229  13.775  22.760  0.00  0.00     0.003 C 
ATOM      9  C   UNL d   1     -46.389  12.443  23.333  0.00  0.00     0.196 A 
ATOM     10  C   UNL d   1     -46.892  11.805  23.490  0.00  0.00     0.044 A 
ATOM     11  O   UNL d   1     -45.591  12.430  23.558  0.00  0.00    -0.287 OA
ATOM     12  C   UNL d   1     -47.677  11.842  23.257  0.00  0.00     0.022 A 
ATOM     13  C   UNL d   1     -48.162  11.205  23.419  0.00  0.00     0.002 C 
ENDBRANCH   4   5
ENDBRANCH   1   4
BRANCH   1  14
ATOM     14  C   UNL d   1     -49.698  13.876  22.935  0.00  0.00     0.105 A 
ATOM     15  C   UNL d   1     -50.237  13.863  23.548  0.00  0.00     0.013 A 
ATOM     16  C   UNL d   1     -50.686  14.517  23.698  0.00  0.00     0.001 A 
ATOM     17  C   UNL d   1     -50.603  15.215  23.228  0.00  0.00     0.000 A 
ATOM     18  C   UNL d   1     -50.058  15.223  22.611  0.00  0.00     0.001 A 
ATOM     19  C   UNL d   1     -51.064  15.915  23.367  0.00  0.00     0.000 C 
ATOM     20  C   UNL d   1     -49.601  14.545  22.464  0.00  0.00     0.013 A 
ENDBRANCH   1  14
TORSDOF 3
ENDMDL
MODEL 3
REMARK VINA RESULT:      -7.9      1.092      3.855
REMARK  3 active torsions:
REMARK  status: ('A' for Active; 'I' for Inactive)
REMARK    1  A    between atoms: N_2  and  S_1 
REMARK    2  A    between atoms: C_4  and  S_1 
REMARK    3  A    between atoms: C_3  and  N_2 
ROOT
ATOM      1  S   UNL d   1     -47.770  13.873  23.128  0.00  0.00     0.285 S 
ATOM      2  O   UNL d   1     -47.602  14.560  22.698  0.00  0.00    -0.198 OA
ATOM      3  O   UNL d   1     -47.938  13.181  23.560  0.00  0.00    -0.198 OA
ENDROOT
BRANCH   1   4
ATOM      4  N   UNL d   1     -48.515  14.182  23.335  0.00  0.00    -0.158 NA
BRANCH   4   5
ATOM      5  C   UNL d   1     -49.148  14.116  22.806  0.00  0.00     0.094 A 
ATOM      6  C   UNL d   1     -49.253  13.440  22.340  0.00  0.00     0.023 A 
ATOM      7  C   UNL d   1     -49.876  13.379  21.821  0.00  0.00     0.041 A 
ATOM      8  C   UNL d   1     -49.946  12.693  21.376  0.00  0.00     0.003 C 
ATOM      9  C   UNL d   1     -50.431  14.016  21.753  0.00  0.00     0.196 A 
ATOM     10  C   UNL d   1     -50.326  14.692  22.219  0.00  0.00     0.044 A 
ATOM     11  O   UNL d   1     -51.064  13.950  21.223  0.00  0.00    -0.287 OA
ATOM     12  C   UNL d   1     -49.691  14.734  22.735  0.00  0.00     0.022 A 
ATOM     13  C   UNL d   1     -49.601  15.407  23.188  0.00  0.00     0.002 C 
ENDBRANCH   4   5
ENDBRANCH   1   4
BRANCH   1  14
ATOM     14  C   UNL d   1     -47.025  13.560  22.923  0.00  0.00     0.105 A 
ATOM     15  C   UNL d   1     -46.823  12.814  23.187  0.00  0.00     0.013 A 
ATOM     16  C   UNL d   1     -46.104  12.503  22.993  0.00  0.00     0.001 A 
ATOM     17  C   UNL d   1     -45.558  12.942  22.520  0.00  0.00     0.000 A 
ATOM     18  C   UNL d   1     -45.766  13.693  22.256  0.00  0.00     0.001 A 
ATOM     19  C   UNL d   1     -44.795  12.636  22.303  0.00  0.00     0.000 C 
ATOM     20  C   UNL d   1     -46.508  14.004  22.461  0.00  0.00     0.013 A 
ENDBRANCH   1  14
TORSDOF 3
ENDMDL
MODEL 4
REMARK VINA RESULT:      -7.7      1.222      4.007
REMARK  3 active torsions:
REMARK  status: ('A' for Active; 'I' for Inactive)
REMARK    1  A    between atoms: N_2  and  S_1 
REMARK    2  A    between atoms: C_4  and  S_1 
REMARK    3  A    between atoms: C_3  and  N_2 
ROOT
ATOM      1  S   UNL d   1     -48.422  12.814  22.735  0.00  0.00     0.285 S 
ATOM      2  O   UNL d   1     -48.461  12.803  21.908  0.00  0.00    -0.198 OA
ATOM      3  O   UNL d   1     -48.380  12.825  23.567  0.00  0.00    -0.198 OA
ENDROOT
BRANCH   1   4
ATOM      4  N   UNL d   1     -49.253  12.776  22.777  0.00  0.00    -0.158 NA
BRANCH   4   5
ATOM      5  C   UNL d   1     -49.698  13.471  22.714  0.00  0.00     0.094 A 
ATOM      6  C   UNL d   1     -49.439  14.182  23.049  0.00  0.00     0.023 A 
ATOM      7  C   UNL d   1     -49.880  14.863  22.984  0.00  0.00     0.041 A 
ATOM      8  C   UNL d   1     -49.590  15.548  23.329  0.00  0.00     0.003 C 
ATOM      9  C   UNL d   1     -50.618  14.847  22.568  0.00  0.00     0.196 A 
ATOM     10  C   UNL d   1     -50.877  14.136  22.233  0.00  0.00     0.044 A 
ATOM     11  O   UNL d   1     -51.064  15.543  22.504  0.00  0.00    -0.287 OA
ATOM     12  C   UNL d   1     -50.418  13.462  22.310  0.00  0.00     0.022 A 
ATOM     13  C   UNL d   1     -50.687  12.767  21.974  0.00  0.00     0.002 C 
ENDBRANCH   4   5
ENDBRANCH   1   4
BRANCH   1  14
ATOM     14  C   UNL d   1     -47.589  12.851  22.698  0.00  0.00     0.105 A 
ATOM     15  C   UNL d   1     -47.150  12.491  23.284  0.00  0.00     0.013 A 
ATOM     16  C   UNL d   1     -46.344  12.522  23.255  0.00  0.00     0.001 A 
ATOM     17  C   UNL d   1     -45.950  12.925  22.624  0.00  0.00     0.000 A 
ATOM     18  C   UNL d   1     -46.397  13.286  22.035  0.00  0.00     0.001 A 
ATOM     19  C   UNL d   1     -45.103  12.971  22.572  0.00  0.00     0.000 C 
ATOM     20  C   UNL d   1     -47.226  13.248  22.074  0.00  0.00     0.013 A 
ENDBRANCH   1  14
TORSDOF 3
ENDMDL
MODEL 5
REMARK VINA RESULT:      -6.4      8.373      9.570
REMARK  3 active torsions:
REMARK  status: ('A' for Active; 'I' for Inactive)
REMARK    1  A    between atoms: N_2  and  S_1 
REMARK    2  A    between atoms: C_4  and  S_1 
REMARK    3  A    between atoms: C_3  and  N_2 
ROOT
ATOM      1  S   UNL d   1     -40.542  14.992  19.297  0.00  0.00     0.285 S 
ATOM      2  O   UNL d   1     -40.292  15.753  19.085  0.00  0.00    -0.198 OA
ATOM      3  O   UNL d   1     -40.793  14.228  19.512  0.00  0.00    -0.198 OA
ENDROOT
BRANCH   1   4
ATOM      4  N   UNL d   1     -40.818  14.865  18.522  0.00  0.00    -0.158 NA
BRANCH   4   5
ATOM      5  C   UNL d   1     -40.284  14.651  17.926  0.00  0.00     0.094 A 
ATOM      6  C   UNL d   1     -39.686  14.094  18.063  0.00  0.00     0.023 A 
ATOM      7  C   UNL d   1     -39.164  13.887  17.475  0.00  0.00     0.041 A 
ATOM      8  C   UNL d   1     -38.584  13.332  17.648  0.00  0.00     0.003 C 
ATOM      9  C   UNL d   1     -39.229  14.243  16.709  0.00  0.00     0.196 A 
ATOM     10  C   UNL d   1     -39.827  14.798  16.573  0.00  0.00     0.044 A 
ATOM     11  O   UNL d   1     -38.694  14.028  16.113  0.00  0.00    -0.287 OA
ATOM     12  C   UNL d   1     -40.343  14.994  17.178  0.00  0.00     0.022 A 
ATOM     13  C   UNL d   1     -40.928  15.544  17.029  0.00  0.00     0.002 C 
ENDBRANCH   4   5
ENDBRANCH   1   4
BRANCH   1  14
ATOM     14  C   UNL d   1     -40.267  15.116  20.075  0.00  0.00     0.105 A 
ATOM     15  C   UNL d   1     -40.432  14.557  20.647  0.00  0.00     0.013 A 
ATOM     16  C   UNL d   1     -40.170  14.670  21.401  0.00  0.00     0.001 A 
ATOM     17  C   UNL d   1     -39.726  15.360  21.606  0.00  0.00     0.000 A 
ATOM     18  C   UNL d   1     -39.563  15.921  21.026  0.00  0.00     0.001 A 
ATOM     19  C   UNL d   1     -39.440  15.500  22.394  0.00  0.00     0.000 C 
ATOM     20  C   UNL d   1     -39.837  15.796  20.253  0.00  0.00     0.013 A 
ENDBRANCH   1  14
TORSDOF 3
ENDMDL
MODEL 6
REMARK VINA RESULT:      -6.3      8.236      9.842
REMARK  3 active torsions:
REMARK  status: ('A' for Active; 'I' for Inactive)
REMARK    1  A    between atoms: N_2  and  S_1 
REMARK    2  A    between atoms: C_4  and  S_1 
REMARK    3  A    between atoms: C_3  and  N_2 
ROOT
ATOM      1  S   UNL d   1     -40.199  14.588  18.475  0.00  0.00     0.285 S 
ATOM      2  O   UNL d   1     -39.951  15.378  18.449  0.00  0.00    -0.198 OA
ATOM      3  O   UNL d   1     -40.448  13.793  18.501  0.00  0.00    -0.198 OA
ENDROOT
BRANCH   1   4
ATOM      4  N   UNL d   1     -40.695  14.764  19.121  0.00  0.00    -0.158 NA
BRANCH   4   5
ATOM      5  C   UNL d   1     -40.371  14.844  19.878  0.00  0.00     0.094 A 
ATOM      6  C   UNL d   1     -39.760  14.350  20.140  0.00  0.00     0.023 A 
ATOM      7  C   UNL d   1     -39.444  14.432  20.885  0.00  0.00     0.041 A 
ATOM      8  C   UNL d   1     -38.840  13.923  21.110  0.00  0.00     0.003 C 
ATOM      9  C   UNL d   1     -39.741  15.032  21.405  0.00  0.00     0.196 A 
ATOM     10  C   UNL d   1     -40.351  15.526  21.142  0.00  0.00     0.044 A 
ATOM     11  O   UNL d   1     -39.416  15.112  22.163  0.00  0.00    -0.287 OA
ATOM     12  C   UNL d   1     -40.656  15.427  20.388  0.00  0.00     0.022 A 
ATOM     13  C   UNL d   1     -41.257  15.922  20.143  0.00  0.00     0.002 C 
ENDBRANCH   4   5
ENDBRANCH   1   4
BRANCH   1  14
ATOM     14  C   UNL d   1     -39.704  14.408  17.829  0.00  0.00     0.105 A 
ATOM     15  C   UNL d   1     -39.465  15.011  17.333  0.00  0.00     0.013 A 
ATOM     16  C   UNL d   1     -38.986  14.846  16.706  0.00  0.00     0.001 A 
ATOM     17  C   UNL d   1     -38.728  14.055  16.556  0.00  0.00     0.000 A 
ATOM     18  C   UNL d   1     -38.971  13.450  17.058  0.00  0.00     0.001 A 
ATOM     19  C   UNL d   1     -38.223  13.857  15.902  0.00  0.00     0.000 C 
ATOM     20  C   UNL d   1     -39.464  13.630  17.701  0.00  0.00     0.013 A 
ENDBRANCH   1  14
TORSDOF 3
ENDMDL
MODEL 7
REMARK VINA RESULT:      -5.8      9.136      9.918
REMARK  3 active torsions:
REMARK  status: ('A' for Active; 'I' for Inactive)
REMARK    1  A    between atoms: N_2  and  S_1 
REMARK    2  A    between atoms: C_4  and  S_1 
REMARK    3  A    between atoms: C_3  and  N_2 
ROOT
ATOM      1  S   UNL d   1     -38.706  14.702  19.925  0.00  0.00     0.285 S 
ATOM      2  O   UNL d   1     -39.078  13.994  20.138  0.00  0.00    -0.198 OA
ATOM      3  O   UNL d   1     -38.331  15.415  19.712  0.00  0.00    -0.198 OA
ENDROOT
BRANCH   1   4
ATOM      4  N   UNL d   1     -38.642  14.433  19.139  0.00  0.00    -0.158 NA
BRANCH   4   5
ATOM      5  C   UNL d   1     -39.276  14.536  18.617  0.00  0.00     0.094 A 
ATOM      6  C   UNL d   1     -39.796  15.177  18.691  0.00  0.00     0.023 A 
ATOM      7  C   UNL d   1     -40.418  15.274  18.176  0.00  0.00     0.041 A 
ATOM      8  C   UNL d   1     -40.911  15.922  18.280  0.00  0.00     0.003 C 
ATOM      9  C   UNL d   1     -40.540  14.713  17.553  0.00  0.00     0.196 A 
ATOM     10  C   UNL d   1     -40.021  14.073  17.480  0.00  0.00     0.044 A 
ATOM     11  O   UNL d   1     -41.175  14.817  17.030  0.00  0.00    -0.287 OA
ATOM     12  C   UNL d   1     -39.400  13.993  18.009  0.00  0.00     0.022 A 
ATOM     13  C   UNL d   1     -38.896  13.356  17.924  0.00  0.00     0.002 C 
ENDBRANCH   4   5
ENDBRANCH   1   4
BRANCH   1  14
ATOM     14  C   UNL d   1     -38.768  14.974  20.711  0.00  0.00     0.105 A 
ATOM     15  C   UNL d   1     -38.363  15.649  20.929  0.00  0.00     0.013 A 
ATOM     16  C   UNL d   1     -38.418  15.919  21.687  0.00  0.00     0.001 A 
ATOM     17  C   UNL d   1     -38.890  15.511  22.258  0.00  0.00     0.000 A 
ATOM     18  C   UNL d   1     -39.295  14.831  22.034  0.00  0.00     0.001 A 
ATOM     19  C   UNL d   1     -38.962  15.777  23.062  0.00  0.00     0.000 C 
ATOM     20  C   UNL d   1     -39.233  14.561  21.251  0.00  0.00     0.013 A 
ENDBRANCH   1  14
TORSDOF 3
ENDMDL
