MODEL 1
REMARK VINA RESULT:      -7.4      0.000      0.000
REMARK  6 active torsions:
REMARK  status: ('A' for Active; 'I' for Inactive)
REMARK    1  A    between atoms: S_2  and  C_1 
REMARK    2  A    between atoms: C_7  and  S_2 
REMARK    3  A    between atoms: N_10  and  C_6 
REMARK    4  A    between atoms: C_18  and  N_10 
REMARK    5  A    between atoms: N_14  and  C_19 
REMARK    6  A    between atoms: C_19  and  C_18 
ROOT
ATOM      1  C   UNL d   1      51.425  34.170  53.089  0.00  0.00     0.187 A 
ATOM      2  N   UNL d   1      50.692  34.267  53.374  0.00  0.00    -0.208 NA
ATOM      3  C   UNL d   1      51.392  34.243  52.296  0.00  0.00     0.118 A 
ATOM      4  S   UNL d   1      50.635  34.385  52.096  0.00  0.00    -0.035 SA
ATOM      5  C   UNL d   1      50.200  34.400  52.764  0.00  0.00     0.196 A 
ATOM      6 CL   UNL d   1      52.026  34.183  51.778  0.00  0.00    -0.073 Cl
ENDROOT
BRANCH   1   7
ATOM      7  S   UNL d   1      52.100  34.022  53.528  0.00  0.00     0.228 S 
ATOM      8  O   UNL d   1      52.370  34.934  53.578  0.00  0.00    -0.216 OA
ATOM      9  O   UNL d   1      51.876  33.113  53.506  0.00  0.00    -0.216 OA
BRANCH   7  10
ATOM     10  C   UNL d   1      52.772  33.855  53.968  0.00  0.00     0.089 A 
ATOM     11  C   UNL d   1      53.143  34.454  54.398  0.00  0.00     0.011 A 
ATOM     12  C   UNL d   1      53.817  34.291  54.840  0.00  0.00     0.001 A 
ATOM     13  C   UNL d   1      54.122  33.524  54.853  0.00  0.00     0.000 A 
ATOM     14  C   UNL d   1      53.753  32.919  54.423  0.00  0.00     0.001 A 
ATOM     15  C   UNL d   1      54.799  33.358  55.297  0.00  0.00     0.000 C 
ATOM     16  C   UNL d   1      53.075  33.094  53.980  0.00  0.00     0.011 A 
ENDBRANCH   7  10
ENDBRANCH   1   7
BRANCH   5  17
ATOM     17  N   UNL d   1      49.388  34.530  52.809  0.00  0.00    -0.218 NA
BRANCH  17  18
ATOM     18  C   UNL d   1      49.103  35.279  52.942  0.00  0.00     0.120 C 
BRANCH  18  19
ATOM     19  C   UNL d   1      48.283  35.411  52.990  0.00  0.00     0.101 C 
BRANCH  19  20
ATOM     20  N   UNL d   1      47.994  36.174  53.114  0.00  0.00    -0.299 N 
ATOM     21  C   UNL d   1      48.070  36.531  53.846  0.00  0.00     0.100 C 
ATOM     22  C   UNL d   1      47.626  36.578  52.498  0.00  0.00     0.100 C 
ENDBRANCH  19  20
ENDBRANCH  18  19
ENDBRANCH  17  18
ENDBRANCH   5  17
TORSDOF 6
ENDMDL
MODEL 2
REMARK VINA RESULT:      -7.0      1.609      2.136
REMARK  6 active torsions:
REMARK  status: ('A' for Active; 'I' for Inactive)
REMARK    1  A    between atoms: S_2  and  C_1 
REMARK    2  A    between atoms: C_7  and  S_2 
REMARK    3  A    between atoms: N_10  and  C_6 
REMARK    4  A    between atoms: C_18  and  N_10 
REMARK    5  A    between atoms: N_14  and  C_19 
REMARK    6  A    between atoms: C_19  and  C_18 
ROOT
ATOM      1  C   UNL d   1      51.852  33.391  53.035  0.00  0.00     0.187 A 
ATOM      2  N   UNL d   1      51.062  33.455  53.040  0.00  0.00    -0.208 NA
ATOM      3  C   UNL d   1      52.157  34.117  52.922  0.00  0.00     0.118 A 
ATOM      4  S   UNL d   1      51.550  34.629  52.859  0.00  0.00    -0.035 SA
ATOM      5  C   UNL d   1      50.871  34.219  52.932  0.00  0.00     0.196 A 
ATOM      6 CL   UNL d   1      52.955  34.306  52.880  0.00  0.00    -0.073 Cl
ENDROOT
BRANCH   1   7
ATOM      7  S   UNL d   1      52.282  32.700  53.128  0.00  0.00     0.228 S 
ATOM      8  O   UNL d   1      52.348  32.516  52.196  0.00  0.00    -0.216 OA
ATOM      9  O   UNL d   1      52.243  32.839  54.054  0.00  0.00    -0.216 OA
BRANCH   7  10
ATOM     10  C   UNL d   1      52.712  32.011  53.240  0.00  0.00     0.089 A 
ATOM     11  C   UNL d   1      53.396  32.021  53.701  0.00  0.00     0.011 A 
ATOM     12  C   UNL d   1      53.831  31.332  53.816  0.00  0.00     0.001 A 
ATOM     13  C   UNL d   1      53.578  30.627  53.467  0.00  0.00     0.000 A 
ATOM     14  C   UNL d   1      52.892  30.612  53.003  0.00  0.00     0.001 A 
ATOM     15  C   UNL d   1      54.013  29.935  53.581  0.00  0.00     0.000 C 
ATOM     16  C   UNL d   1      52.462  31.311  52.894  0.00  0.00     0.011 A 
ENDBRANCH   7  10
ENDBRANCH   1   7
BRANCH   5  17
ATOM     17  N   UNL d   1      50.110  34.534  52.900  0.00  0.00    -0.218 NA
BRANCH  17  18
ATOM     18  C   UNL d   1      49.708  34.554  52.194  0.00  0.00     0.120 C 
BRANCH  18  19
ATOM     19  C   UNL d   1      48.898  34.742  52.181  0.00  0.00     0.101 C 
BRANCH  19  20
ATOM     20  N   UNL d   1      48.522  34.903  51.464  0.00  0.00    -0.299 N 
ATOM     21  C   UNL d   1      48.764  34.529  50.778  0.00  0.00     0.100 C 
ATOM     22  C   UNL d   1      47.900  35.442  51.438  0.00  0.00     0.100 C 
ENDBRANCH  19  20
ENDBRANCH  18  19
ENDBRANCH  17  18
ENDBRANCH   5  17
TORSDOF 6
ENDMDL
MODEL 3
REMARK VINA RESULT:      -6.9      2.084      4.952
REMARK  6 active torsions:
REMARK  status: ('A' for Active; 'I' for Inactive)
REMARK    1  A    between atoms: S_2  and  C_1 
REMARK    2  A    between atoms: C_7  and  S_2 
REMARK    3  A    between atoms: N_10  and  C_6 
REMARK    4  A    between atoms: C_18  and  N_10 
REMARK    5  A    between atoms: N_14  and  C_19 
REMARK    6  A    between atoms: C_19  and  C_18 
ROOT
ATOM      1  C   UNL d   1      52.100  33.610  53.062  0.00  0.00     0.187 A 
ATOM      2  N   UNL d   1      52.350  32.860  53.006  0.00  0.00    -0.208 NA
ATOM      3  C   UNL d   1      52.657  34.027  53.449  0.00  0.00     0.118 A 
ATOM      4  S   UNL d   1      53.252  33.531  53.631  0.00  0.00    -0.035 SA
ATOM      5  C   UNL d   1      53.063  32.806  53.356  0.00  0.00     0.196 A 
ATOM      6 CL   UNL d   1      52.624  34.828  53.629  0.00  0.00    -0.073 Cl
ENDROOT
BRANCH   1   7
ATOM      7  S   UNL d   1      51.393  33.906  52.775  0.00  0.00     0.228 S 
ATOM      8  O   UNL d   1      51.784  34.343  52.024  0.00  0.00    -0.216 OA
ATOM      9  O   UNL d   1      50.962  33.493  53.497  0.00  0.00    -0.216 OA
BRANCH   7  10
ATOM     10  C   UNL d   1      50.676  34.195  52.500  0.00  0.00     0.089 A 
ATOM     11  C   UNL d   1      50.475  34.114  51.705  0.00  0.00     0.011 A 
ATOM     12  C   UNL d   1      49.757  34.402  51.425  0.00  0.00     0.001 A 
ATOM     13  C   UNL d   1      49.236  34.775  51.946  0.00  0.00     0.000 A 
ATOM     14  C   UNL d   1      49.434  34.859  52.747  0.00  0.00     0.001 A 
ATOM     15  C   UNL d   1      48.515  35.065  51.668  0.00  0.00     0.000 C 
ATOM     16  C   UNL d   1      50.159  34.565  53.018  0.00  0.00     0.011 A 
ENDBRANCH   7  10
ENDBRANCH   1   7
BRANCH   5  17
ATOM     17  N   UNL d   1      53.524  32.128  53.425  0.00  0.00    -0.218 NA
BRANCH  17  18
ATOM     18  C   UNL d   1      53.171  31.397  53.453  0.00  0.00     0.120 C 
BRANCH  18  19
ATOM     19  C   UNL d   1      53.636  30.710  53.523  0.00  0.00     0.101 C 
BRANCH  19  20
ATOM     20  N   UNL d   1      53.276  29.971  53.587  0.00  0.00    -0.299 N 
ATOM     21  C   UNL d   1      53.365  29.525  54.267  0.00  0.00     0.100 C 
ATOM     22  C   UNL d   1      52.823  29.680  52.964  0.00  0.00     0.100 C 
ENDBRANCH  19  20
ENDBRANCH  18  19
ENDBRANCH  17  18
ENDBRANCH   5  17
TORSDOF 6
ENDMDL
