MODEL 1
REMARK VINA RESULT:      -2.6      0.000      0.000
REMARK  4 active torsions:
REMARK  status: ('A' for Active; 'I' for Inactive)
REMARK       I    between atoms: N_3  and  C_1 
REMARK    1  A    between atoms: C_4  and  C_1 
REMARK    2  A    between atoms: N_2  and  C_4 
REMARK    3  A    between atoms: C_6  and  N_3 
REMARK    4  A    between atoms: O_17  and  C_9 
ROOT
ATOM      1  C   UNL d   1      31.176  16.773 -24.059  0.00  0.00     0.297 C 
ATOM      2  N   UNL d   1      31.995  16.884 -24.028  0.00  0.00    -0.207 NA
ATOM      3  O   UNL d   1      30.673  17.423 -24.014  0.00  0.00    -0.264 OA
ENDROOT
BRANCH   1   4
ATOM      4  C   UNL d   1      30.864  16.017 -24.135  0.00  0.00     0.144 C 
BRANCH   4   5
ATOM      5  N   UNL d   1      30.055  15.881 -23.981  0.00  0.00    -0.299 N 
ATOM      6  C   UNL d   1      29.484  16.029 -24.574  0.00  0.00     0.080 A 
ATOM      7  C   UNL d   1      28.680  15.897 -24.429  0.00  0.00     0.019 A 
ATOM      8  C   UNL d   1      28.434  15.612 -23.681  0.00  0.00     0.003 A 
ATOM      9  C   UNL d   1      29.002  15.461 -23.080  0.00  0.00     0.019 A 
ATOM     10  C   UNL d   1      27.635  15.479 -23.533  0.00  0.00     0.000 C 
ATOM     11  C   UNL d   1      29.819  15.598 -23.235  0.00  0.00     0.080 A 
ENDBRANCH   4   5
ENDBRANCH   1   4
BRANCH   2  12
ATOM     12  C   UNL d   1      32.306  17.640 -23.951  0.00  0.00     0.085 A 
ATOM     13  C   UNL d   1      32.498  17.924 -23.214  0.00  0.00     0.021 A 
ATOM     14  C   UNL d   1      32.813  18.686 -23.133  0.00  0.00     0.026 A 
ATOM     15  C   UNL d   1      32.929  19.152 -23.801  0.00  0.00     0.094 A 
ATOM     16  C   UNL d   1      32.734  18.862 -24.544  0.00  0.00     0.026 A 
ATOM     17  C   UNL d   1      32.420  18.101 -24.624  0.00  0.00     0.021 A 
BRANCH  15  18
ATOM     18  O   UNL d   1      33.241  19.910 -23.728  0.00  0.00    -0.328 OA
ATOM     19  C   UNL d   1      33.171  20.322 -23.019  0.00  0.00     0.181 C 
ENDBRANCH  15  18
ENDBRANCH   2  12
TORSDOF 4
ENDMDL
MODEL 2
REMARK VINA RESULT:      -1.8      1.950      3.527
REMARK  4 active torsions:
REMARK  status: ('A' for Active; 'I' for Inactive)
REMARK       I    between atoms: N_3  and  C_1 
REMARK    1  A    between atoms: C_4  and  C_1 
REMARK    2  A    between atoms: N_2  and  C_4 
REMARK    3  A    between atoms: C_6  and  N_3 
REMARK    4  A    between atoms: O_17  and  C_9 
ROOT
ATOM      1  C   UNL d   1      33.011  19.441 -23.072  0.00  0.00     0.297 C 
ATOM      2  N   UNL d   1      33.241  19.653 -22.306  0.00  0.00    -0.207 NA
ATOM      3  O   UNL d   1      32.565  19.964 -23.525  0.00  0.00    -0.264 OA
ENDROOT
BRANCH   1   4
ATOM      4  C   UNL d   1      33.226  18.710 -23.380  0.00  0.00     0.144 C 
BRANCH   4   5
ATOM      5  N   UNL d   1      32.646  18.210 -23.713  0.00  0.00    -0.299 N 
ATOM      6  C   UNL d   1      32.305  18.398 -24.454  0.00  0.00     0.080 A 
ATOM      7  C   UNL d   1      31.731  17.908 -24.790  0.00  0.00     0.019 A 
ATOM      8  C   UNL d   1      31.486  17.215 -24.387  0.00  0.00     0.003 A 
ATOM      9  C   UNL d   1      31.824  17.020 -23.642  0.00  0.00     0.019 A 
ATOM     10  C   UNL d   1      30.915  16.725 -24.719  0.00  0.00     0.000 C 
ATOM     11  C   UNL d   1      32.410  17.525 -23.306  0.00  0.00     0.080 A 
ENDBRANCH   4   5
ENDBRANCH   1   4
BRANCH   2  12
ATOM     12  C   UNL d   1      33.026  20.383 -21.998  0.00  0.00     0.085 A 
ATOM     13  C   UNL d   1      32.604  20.418 -21.304  0.00  0.00     0.021 A 
ATOM     14  C   UNL d   1      32.385  21.153 -20.990  0.00  0.00     0.026 A 
ATOM     15  C   UNL d   1      32.597  21.844 -21.383  0.00  0.00     0.094 A 
ATOM     16  C   UNL d   1      33.023  21.804 -22.084  0.00  0.00     0.026 A 
ATOM     17  C   UNL d   1      33.241  21.070 -22.397  0.00  0.00     0.021 A 
BRANCH  15  18
ATOM     18  O   UNL d   1      32.383  22.577 -21.078  0.00  0.00    -0.328 OA
ATOM     19  C   UNL d   1      32.959  23.098 -20.805  0.00  0.00     0.181 C 
ENDBRANCH  15  18
ENDBRANCH   2  12
TORSDOF 4
ENDMDL
MODEL 3
REMARK VINA RESULT:      -1.5      1.409      2.589
REMARK  4 active torsions:
REMARK  status: ('A' for Active; 'I' for Inactive)
REMARK       I    between atoms: N_3  and  C_1 
REMARK    1  A    between atoms: C_4  and  C_1 
REMARK    2  A    between atoms: N_2  and  C_4 
REMARK    3  A    between atoms: C_6  and  N_3 
REMARK    4  A    between atoms: O_17  and  C_9 
ROOT
ATOM      1  C   UNL d   1      32.548  18.627 -23.620  0.00  0.00     0.297 C 
ATOM      2  N   UNL d   1      33.241  18.847 -23.225  0.00  0.00    -0.207 NA
ATOM      3  O   UNL d   1      31.849  19.038 -23.479  0.00  0.00    -0.264 OA
ENDROOT
BRANCH   1   4
ATOM      4  C   UNL d   1      32.557  18.001 -24.151  0.00  0.00     0.144 C 
BRANCH   4   5
ATOM      5  N   UNL d   1      31.977  17.402 -24.102  0.00  0.00    -0.299 N 
ATOM      6  C   UNL d   1      31.278  17.456 -24.557  0.00  0.00     0.080 A 
ATOM      7  C   UNL d   1      30.699  16.867 -24.513  0.00  0.00     0.019 A 
ATOM      8  C   UNL d   1      30.813  16.209 -24.007  0.00  0.00     0.003 A 
ATOM      9  C   UNL d   1      31.513  16.148 -23.546  0.00  0.00     0.019 A 
ATOM     10  C   UNL d   1      30.239  15.621 -23.961  0.00  0.00     0.000 C 
ATOM     11  C   UNL d   1      32.098  16.752 -23.597  0.00  0.00     0.080 A 
ENDBRANCH   4   5
ENDBRANCH   1   4
BRANCH   2  12
ATOM     12  C   UNL d   1      33.232  19.473 -22.694  0.00  0.00     0.085 A 
ATOM     13  C   UNL d   1      33.241  20.238 -22.973  0.00  0.00     0.021 A 
ATOM     14  C   UNL d   1      33.232  20.872 -22.440  0.00  0.00     0.026 A 
ATOM     15  C   UNL d   1      33.214  20.725 -21.630  0.00  0.00     0.094 A 
ATOM     16  C   UNL d   1      33.205  19.952 -21.353  0.00  0.00     0.026 A 
ATOM     17  C   UNL d   1      33.214  19.319 -21.885  0.00  0.00     0.021 A 
BRANCH  15  18
ATOM     18  O   UNL d   1      33.205  21.349 -21.095  0.00  0.00    -0.328 OA
ATOM     19  C   UNL d   1      32.493  21.700 -20.878  0.00  0.00     0.181 C 
ENDBRANCH  15  18
ENDBRANCH   2  12
TORSDOF 4
ENDMDL
MODEL 4
REMARK VINA RESULT:      -0.8      4.112      6.934
REMARK  4 active torsions:
REMARK  status: ('A' for Active; 'I' for Inactive)
REMARK       I    between atoms: N_3  and  C_1 
REMARK    1  A    between atoms: C_4  and  C_1 
REMARK    2  A    between atoms: N_2  and  C_4 
REMARK    3  A    between atoms: C_6  and  N_3 
REMARK    4  A    between atoms: O_17  and  C_9 
ROOT
ATOM      1  C   UNL d   1      32.922  22.072 -20.769  0.00  0.00     0.297 C 
ATOM      2  N   UNL d   1      33.210  21.865 -21.517  0.00  0.00    -0.207 NA
ATOM      3  O   UNL d   1      32.639  21.487 -20.264  0.00  0.00    -0.264 OA
ENDROOT
BRANCH   1   4
ATOM      4  C   UNL d   1      32.919  22.858 -20.531  0.00  0.00     0.144 C 
BRANCH   4   5
ATOM      5  N   UNL d   1      32.737  23.054 -19.740  0.00  0.00    -0.299 N 
ATOM      6  C   UNL d   1      33.239  22.807 -19.119  0.00  0.00     0.080 A 
ATOM      7  C   UNL d   1      33.065  22.998 -18.333  0.00  0.00     0.019 A 
ATOM      8  C   UNL d   1      32.378  23.442 -18.156  0.00  0.00     0.003 A 
ATOM      9  C   UNL d   1      31.867  23.694 -18.775  0.00  0.00     0.019 A 
ATOM     10  C   UNL d   1      32.201  23.634 -17.375  0.00  0.00     0.000 C 
ATOM     11  C   UNL d   1      32.052  23.496 -19.573  0.00  0.00     0.080 A 
ENDBRANCH   4   5
ENDBRANCH   1   4
BRANCH   2  12
ATOM     12  C   UNL d   1      33.213  21.079 -21.755  0.00  0.00     0.085 A 
ATOM     13  C   UNL d   1      33.238  20.489 -21.195  0.00  0.00     0.021 A 
ATOM     14  C   UNL d   1      33.241  19.695 -21.432  0.00  0.00     0.026 A 
ATOM     15  C   UNL d   1      33.219  19.508 -22.233  0.00  0.00     0.094 A 
ATOM     16  C   UNL d   1      33.194  20.106 -22.794  0.00  0.00     0.026 A 
ATOM     17  C   UNL d   1      33.191  20.899 -22.558  0.00  0.00     0.021 A 
BRANCH  15  18
ATOM     18  O   UNL d   1      33.222  18.722 -22.475  0.00  0.00    -0.328 OA
ATOM     19  C   UNL d   1      32.832  18.499 -23.165  0.00  0.00     0.181 C 
ENDBRANCH  15  18
ENDBRANCH   2  12
TORSDOF 4
ENDMDL
