MODEL 1
REMARK VINA RESULT:      -9.3      0.000      0.000
REMARK  6 active torsions:
REMARK  status: ('A' for Active; 'I' for Inactive)
REMARK    1  A    between atoms: C_12  and  N_1 
REMARK    2  A    between atoms: S_10  and  C_2 
REMARK    3  A    between atoms: C_5  and  N_7 
REMARK       I    between atoms: N_7  and  C_11 
REMARK    4  A    between atoms: C_16  and  S_10 
REMARK    5  A    between atoms: C_11  and  C_16 
REMARK    6  A    between atoms: C_17  and  C_12 
ROOT
ATOM      1  N   UNL d   1      53.464  32.437  53.556  0.00  0.00    -0.303 N 
ATOM      2  C   UNL d   1      52.534  33.391  53.622  0.00  0.00     0.049 A 
ATOM      3  C   UNL d   1      52.738  32.660  53.274  0.00  0.00     0.087 A 
ATOM      4  C   UNL d   1      53.159  33.600  54.121  0.00  0.00     0.024 A 
ATOM      5  C   UNL d   1      53.734  33.010  54.080  0.00  0.00     0.065 A 
ATOM      6  C   UNL d   1      53.271  34.254  54.605  0.00  0.00     0.002 A 
ATOM      7  C   UNL d   1      54.422  33.074  54.524  0.00  0.00     0.018 A 
ATOM      8  C   UNL d   1      53.963  34.319  55.052  0.00  0.00     0.000 A 
ATOM      9  C   UNL d   1      54.538  33.729  55.011  0.00  0.00     0.002 A 
ENDROOT
BRANCH   2  10
ATOM     10  S   UNL d   1      51.845  33.823  53.496  0.00  0.00    -0.080 SA
BRANCH  10  11
ATOM     11  C   UNL d   1      51.435  33.758  52.777  0.00  0.00     0.098 C 
BRANCH  11  12
ATOM     12  C   UNL d   1      50.709  34.128  52.668  0.00  0.00     0.288 C 
ATOM     13  N   UNL d   1      50.328  34.112  51.936  0.00  0.00    -0.182 NA
ATOM     14  O   UNL d   1      50.362  34.517  53.298  0.00  0.00    -0.265 OA
BRANCH  13  15
ATOM     15  C   UNL d   1      49.601  34.486  51.837  0.00  0.00     0.197 A 
ATOM     16  N   UNL d   1      49.156  34.957  52.348  0.00  0.00    -0.219 NA
ATOM     17  C   UNL d   1      48.466  35.180  51.945  0.00  0.00     0.108 A 
ATOM     18  C   UNL d   1      48.497  34.845  51.194  0.00  0.00     0.059 A 
ATOM     19  S   UNL d   1      49.199  34.415  51.128  0.00  0.00    -0.046 SA
ENDBRANCH  13  15
ENDBRANCH  11  12
ENDBRANCH  10  11
ENDBRANCH   2  10
BRANCH   1  20
ATOM     20  C   UNL d   1      53.873  31.735  53.346  0.00  0.00     0.080 C 
BRANCH  20  21
ATOM     21  C   UNL d   1      53.496  31.007  53.387  0.00  0.00     0.018 A 
ATOM     22  C   UNL d   1      53.027  30.739  52.762  0.00  0.00     0.002 A 
ATOM     23  C   UNL d   1      52.650  30.008  52.807  0.00  0.00     0.000 A 
ATOM     24  C   UNL d   1      52.736  29.539  53.472  0.00  0.00     0.000 A 
ATOM     25  C   UNL d   1      53.209  29.802  54.110  0.00  0.00     0.000 A 
ATOM     26  C   UNL d   1      53.585  30.539  54.059  0.00  0.00     0.002 A 
ENDBRANCH  20  21
ENDBRANCH   1  20
TORSDOF 6
ENDMDL
MODEL 2
REMARK VINA RESULT:      -9.0      0.967      2.753
REMARK  6 active torsions:
REMARK  status: ('A' for Active; 'I' for Inactive)
REMARK    1  A    between atoms: C_12  and  N_1 
REMARK    2  A    between atoms: S_10  and  C_2 
REMARK    3  A    between atoms: C_5  and  N_7 
REMARK       I    between atoms: N_7  and  C_11 
REMARK    4  A    between atoms: C_16  and  S_10 
REMARK    5  A    between atoms: C_11  and  C_16 
REMARK    6  A    between atoms: C_17  and  C_12 
ROOT
ATOM      1  N   UNL d   1      53.820  32.161  53.550  0.00  0.00    -0.303 N 
ATOM      2  C   UNL d   1      52.616  32.373  53.015  0.00  0.00     0.049 A 
ATOM      3  C   UNL d   1      53.305  32.739  53.314  0.00  0.00     0.087 A 
ATOM      4  C   UNL d   1      52.734  31.558  53.079  0.00  0.00     0.024 A 
ATOM      5  C   UNL d   1      53.479  31.426  53.409  0.00  0.00     0.065 A 
ATOM      6  C   UNL d   1      52.254  30.923  52.876  0.00  0.00     0.002 A 
ATOM      7  C   UNL d   1      53.743  30.659  53.537  0.00  0.00     0.018 A 
ATOM      8  C   UNL d   1      52.519  30.151  53.003  0.00  0.00     0.000 A 
ATOM      9  C   UNL d   1      53.263  30.019  53.334  0.00  0.00     0.002 A 
ENDROOT
BRANCH   2  10
ATOM     10  S   UNL d   1      51.948  32.747  52.715  0.00  0.00    -0.080 SA
BRANCH  10  11
ATOM     11  C   UNL d   1      51.797  33.543  52.895  0.00  0.00     0.098 C 
BRANCH  11  12
ATOM     12  C   UNL d   1      51.161  33.941  52.558  0.00  0.00     0.288 C 
ATOM     13  N   UNL d   1      50.481  34.107  52.995  0.00  0.00    -0.182 NA
ATOM     14  O   UNL d   1      51.207  34.174  51.775  0.00  0.00    -0.265 OA
BRANCH  13  15
ATOM     15  C   UNL d   1      49.850  34.506  52.648  0.00  0.00     0.197 A 
ATOM     16  N   UNL d   1      49.537  34.472  51.884  0.00  0.00    -0.219 NA
ATOM     17  C   UNL d   1      48.899  35.001  51.853  0.00  0.00     0.108 A 
ATOM     18  C   UNL d   1      48.829  35.352  52.594  0.00  0.00     0.059 A 
ATOM     19  S   UNL d   1      49.418  35.045  53.085  0.00  0.00    -0.046 SA
ENDBRANCH  13  15
ENDBRANCH  11  12
ENDBRANCH  10  11
ENDBRANCH   2  10
BRANCH   1  20
ATOM     20  C   UNL d   1      54.579  32.291  53.883  0.00  0.00     0.080 C 
BRANCH  20  21
ATOM     21  C   UNL d   1      54.692  32.885  54.439  0.00  0.00     0.018 A 
ATOM     22  C   UNL d   1      54.369  32.821  55.196  0.00  0.00     0.002 A 
ATOM     23  C   UNL d   1      54.485  33.419  55.750  0.00  0.00     0.000 A 
ATOM     24  C   UNL d   1      54.921  34.084  55.556  0.00  0.00     0.000 A 
ATOM     25  C   UNL d   1      55.251  34.157  54.791  0.00  0.00     0.000 A 
ATOM     26  C   UNL d   1      55.132  33.552  54.238  0.00  0.00     0.002 A 
ENDBRANCH  20  21
ENDBRANCH   1  20
TORSDOF 6
ENDMDL
MODEL 3
REMARK VINA RESULT:      -8.0      2.153      4.695
REMARK  6 active torsions:
REMARK  status: ('A' for Active; 'I' for Inactive)
REMARK    1  A    between atoms: C_12  and  N_1 
REMARK    2  A    between atoms: S_10  and  C_2 
REMARK    3  A    between atoms: C_5  and  N_7 
REMARK       I    between atoms: N_7  and  C_11 
REMARK    4  A    between atoms: C_16  and  S_10 
REMARK    5  A    between atoms: C_11  and  C_16 
REMARK    6  A    between atoms: C_17  and  C_12 
ROOT
ATOM      1  N   UNL d   1      53.038  33.965  53.537  0.00  0.00    -0.303 N 
ATOM      2  C   UNL d   1      53.641  32.778  53.635  0.00  0.00     0.049 A 
ATOM      3  C   UNL d   1      53.062  33.218  53.224  0.00  0.00     0.087 A 
ATOM      4  C   UNL d   1      53.963  33.284  54.204  0.00  0.00     0.024 A 
ATOM      5  C   UNL d   1      53.591  34.018  54.143  0.00  0.00     0.065 A 
ATOM      6  C   UNL d   1      54.549  33.164  54.767  0.00  0.00     0.002 A 
ATOM      7  C   UNL d   1      53.804  34.631  54.645  0.00  0.00     0.018 A 
ATOM      8  C   UNL d   1      54.764  33.779  55.273  0.00  0.00     0.000 A 
ATOM      9  C   UNL d   1      54.392  34.513  55.212  0.00  0.00     0.002 A 
ENDROOT
BRANCH   2  10
ATOM     10  S   UNL d   1      53.852  31.994  53.504  0.00  0.00    -0.080 SA
BRANCH  10  11
ATOM     11  C   UNL d   1      53.267  31.414  53.404  0.00  0.00     0.098 C 
BRANCH  11  12
ATOM     12  C   UNL d   1      53.415  30.627  53.591  0.00  0.00     0.288 C 
ATOM     13  N   UNL d   1      52.991  30.243  54.186  0.00  0.00    -0.182 NA
ATOM     14  O   UNL d   1      53.991  30.221  53.177  0.00  0.00    -0.265 OA
BRANCH  13  15
ATOM     15  C   UNL d   1      53.147  29.454  54.365  0.00  0.00     0.197 A 
ATOM     16  N   UNL d   1      53.162  28.779  53.890  0.00  0.00    -0.219 NA
ATOM     17  C   UNL d   1      53.353  28.136  54.377  0.00  0.00     0.108 A 
ATOM     18  C   UNL d   1      53.453  28.423  55.142  0.00  0.00     0.059 A 
ATOM     19  S   UNL d   1      53.325  29.238  55.134  0.00  0.00    -0.046 SA
ENDBRANCH  13  15
ENDBRANCH  11  12
ENDBRANCH  10  11
ENDBRANCH   2  10
BRANCH   1  20
ATOM     20  C   UNL d   1      52.531  34.584  53.282  0.00  0.00     0.080 C 
BRANCH  20  21
ATOM     21  C   UNL d   1      51.807  34.411  52.938  0.00  0.00     0.018 A 
ATOM     22  C   UNL d   1      51.134  34.301  53.403  0.00  0.00     0.002 A 
ATOM     23  C   UNL d   1      50.408  34.128  53.054  0.00  0.00     0.000 A 
ATOM     24  C   UNL d   1      50.346  34.063  52.241  0.00  0.00     0.000 A 
ATOM     25  C   UNL d   1      51.023  34.172  51.761  0.00  0.00     0.000 A 
ATOM     26  C   UNL d   1      51.750  34.346  52.118  0.00  0.00     0.002 A 
ENDBRANCH  20  21
ENDBRANCH   1  20
TORSDOF 6
ENDMDL
MODEL 4
REMARK VINA RESULT:      -7.4      1.959      4.729
REMARK  6 active torsions:
REMARK  status: ('A' for Active; 'I' for Inactive)
REMARK    1  A    between atoms: C_12  and  N_1 
REMARK    2  A    between atoms: S_10  and  C_2 
REMARK    3  A    between atoms: C_5  and  N_7 
REMARK       I    between atoms: N_7  and  C_11 
REMARK    4  A    between atoms: C_16  and  S_10 
REMARK    5  A    between atoms: C_11  and  C_16 
REMARK    6  A    between atoms: C_17  and  C_12 
ROOT
ATOM      1  N   UNL d   1      52.824  33.758  53.549  0.00  0.00    -0.303 N 
ATOM      2  C   UNL d   1      52.287  32.606  53.144  0.00  0.00     0.049 A 
ATOM      3  C   UNL d   1      52.967  32.965  53.469  0.00  0.00     0.087 A 
ATOM      4  C   UNL d   1      51.731  33.207  53.032  0.00  0.00     0.024 A 
ATOM      5  C   UNL d   1      52.063  33.920  53.282  0.00  0.00     0.065 A 
ATOM      6  C   UNL d   1      50.967  33.190  52.733  0.00  0.00     0.002 A 
ATOM      7  C   UNL d   1      51.630  34.616  53.233  0.00  0.00     0.018 A 
ATOM      8  C   UNL d   1      50.530  33.889  52.683  0.00  0.00     0.000 A 
ATOM      9  C   UNL d   1      50.862  34.602  52.933  0.00  0.00     0.002 A 
ENDROOT
BRANCH   2  10
ATOM     10  S   UNL d   1      52.185  31.809  52.969  0.00  0.00    -0.080 SA
BRANCH  10  11
ATOM     11  C   UNL d   1      52.839  31.298  52.943  0.00  0.00     0.098 C 
BRANCH  11  12
ATOM     12  C   UNL d   1      52.809  30.554  53.292  0.00  0.00     0.288 C 
ATOM     13  N   UNL d   1      53.403  30.301  53.807  0.00  0.00    -0.182 NA
ATOM     14  O   UNL d   1      52.180  30.060  53.124  0.00  0.00    -0.265 OA
BRANCH  13  15
ATOM     15  C   UNL d   1      53.364  29.554  54.151  0.00  0.00     0.197 A 
ATOM     16  N   UNL d   1      53.295  28.802  53.817  0.00  0.00    -0.219 NA
ATOM     17  C   UNL d   1      53.283  28.253  54.439  0.00  0.00     0.108 A 
ATOM     18  C   UNL d   1      53.343  28.673  55.144  0.00  0.00     0.059 A 
ATOM     19  S   UNL d   1      53.393  29.477  54.965  0.00  0.00    -0.046 SA
ENDBRANCH  13  15
ENDBRANCH  11  12
ENDBRANCH  10  11
ENDBRANCH   2  10
BRANCH   1  20
ATOM     20  C   UNL d   1      53.365  34.322  53.855  0.00  0.00     0.080 C 
BRANCH  20  21
ATOM     21  C   UNL d   1      53.958  34.090  54.372  0.00  0.00     0.018 A 
ATOM     22  C   UNL d   1      53.803  33.997  55.178  0.00  0.00     0.002 A 
ATOM     23  C   UNL d   1      54.402  33.764  55.693  0.00  0.00     0.000 A 
ATOM     24  C   UNL d   1      55.156  33.621  55.413  0.00  0.00     0.000 A 
ATOM     25  C   UNL d   1      55.323  33.713  54.598  0.00  0.00     0.000 A 
ATOM     26  C   UNL d   1      54.717  33.948  54.084  0.00  0.00     0.002 A 
ENDBRANCH  20  21
ENDBRANCH   1  20
TORSDOF 6
ENDMDL
