MODEL 1
REMARK VINA RESULT:      92.8      0.000      0.000
REMARK  3 active torsions:
REMARK  status: ('A' for Active; 'I' for Inactive)
REMARK    1  A    between atoms: S_3  and  N_1 
REMARK    2  A    between atoms: C_5  and  C_4 
REMARK    3  A    between atoms: C_12  and  C_6 
ROOT
ATOM      1  N   UNL d   1      60.288  47.978  51.132  0.00  0.00    -0.155 N 
ATOM      2  N   UNL d   1      60.966  48.068  51.577  0.00  0.00    -0.153 NA
ATOM      3  C   UNL d   1      59.891  48.686  51.116  0.00  0.00     0.098 A 
ATOM      4  C   UNL d   1      60.988  48.850  51.841  0.00  0.00     0.126 A 
ATOM      5  C   UNL d   1      60.324  49.232  51.556  0.00  0.00     0.043 A 
ENDROOT
BRANCH   3   6
ATOM      6  C   UNL d   1      59.179  48.838  50.727  0.00  0.00     0.047 A 
ATOM      7  C   UNL d   1      59.178  49.252  50.015  0.00  0.00     0.140 A 
ATOM      8  N   UNL d   1      58.465  49.404  49.626  0.00  0.00    -0.234 NA
ATOM      9 CL   UNL d   1      59.889  49.515  49.689  0.00  0.00    -0.061 Cl
ATOM     10  C   UNL d   1      57.754  49.141  49.952  0.00  0.00     0.082 A 
ATOM     11  C   UNL d   1      57.755  48.727  50.665  0.00  0.00     0.018 A 
ATOM     12  C   UNL d   1      57.043  49.293  49.564  0.00  0.00     0.018 A 
ATOM     13  C   UNL d   1      58.467  48.575  51.053  0.00  0.00     0.005 A 
ATOM     14  C   UNL d   1      57.045  48.464  50.991  0.00  0.00     0.002 A 
ATOM     15  C   UNL d   1      56.359  48.618  50.604  0.00  0.00     0.000 A 
ATOM     16  C   UNL d   1      56.358  49.032  49.891  0.00  0.00     0.002 A 
ATOM     17  C   UNL d   1      57.042  49.707  48.850  0.00  0.00     0.002 C 
ENDBRANCH   3   6
BRANCH   1  18
ATOM     18  S   UNL d   1      60.446  47.193  50.977  0.00  0.00     0.266 S 
ATOM     19  O   UNL d   1      60.149  46.593  51.457  0.00  0.00    -0.203 OA
ATOM     20  O   UNL d   1      60.918  47.196  50.301  0.00  0.00    -0.203 OA
ATOM     21  C   UNL d   1      60.713  46.481  50.659  0.00  0.00     0.165 C 
ENDBRANCH   1  18
BRANCH   4  22
ATOM     22  C   UNL d   1      61.565  49.182  52.302  0.00  0.00     0.119 A 
ATOM     23  O   UNL d   1      61.522  49.388  53.084  0.00  0.00    -0.304 OA
ATOM     24  C   UNL d   1      62.236  49.707  53.325  0.00  0.00     0.123 A 
ATOM     25  C   UNL d   1      62.744  49.704  52.687  0.00  0.00     0.029 A 
ATOM     26  C   UNL d   1      62.340  49.380  52.040  0.00  0.00     0.028 A 
ENDBRANCH   4  22
TORSDOF 3
ENDMDL
