MODEL 1
REMARK VINA RESULT:       1.1      0.000      0.000
REMARK  4 active torsions:
REMARK  status: ('A' for Active; 'I' for Inactive)
REMARK    1  A    between atoms: C_8  and  C_1 
REMARK    2  A    between atoms: N_4  and  C_2 
REMARK       I    between atoms: C_6  and  N_4 
REMARK    3  A    between atoms: C_9  and  C_6 
REMARK    4  A    between atoms: O_16  and  C_8 
ROOT
ATOM      1  C   UNL d   1     -43.332-122.867 -49.492  0.00  0.00     0.110 A 
ATOM      2  C   UNL d   1     -42.588-123.186 -49.694  0.00  0.00     0.096 A 
ATOM      3  S   UNL d   1     -43.343-122.804 -48.708  0.00  0.00    -0.080 SA
ATOM      4  C   UNL d   1     -42.168-123.309 -49.032  0.00  0.00     0.024 A 
ATOM      5  C   UNL d   1     -42.628-123.072 -48.387  0.00  0.00     0.031 A 
ATOM      6  C   UNL d   1     -41.405-123.611 -48.896  0.00  0.00     0.002 A 
ATOM      7  C   UNL d   1     -42.347-123.131 -47.629  0.00  0.00     0.006 A 
ATOM      8  C   UNL d   1     -41.123-123.670 -48.142  0.00  0.00     0.000 A 
ATOM      9  C   UNL d   1     -41.602-123.426 -47.502  0.00  0.00     0.001 A 
ENDROOT
BRANCH   2  10
ATOM     10  N   UNL d   1     -42.328-123.350 -50.465  0.00  0.00    -0.207 NA
ATOM     11  C   UNL d   1     -41.813-122.814 -50.844  0.00  0.00     0.285 C 
ATOM     12  O   UNL d   1     -41.582-122.139 -50.435  0.00  0.00    -0.265 OA
BRANCH  11  13
ATOM     13  C   UNL d   1     -41.542-122.949 -51.598  0.00  0.00     0.087 A 
ATOM     14  S   UNL d   1     -41.385-123.694 -51.911  0.00  0.00    -0.082 SA
ATOM     15  C   UNL d   1     -41.125-123.603 -52.676  0.00  0.00     0.036 A 
ATOM     16  C   UNL d   1     -41.123-122.781 -52.839  0.00  0.00     0.008 A 
ATOM     17  C   UNL d   1     -41.377-122.387 -52.181  0.00  0.00     0.012 A 
ENDBRANCH  11  13
ENDBRANCH   2  10
BRANCH   1  18
ATOM     18  C   UNL d   1     -43.975-122.641 -49.993  0.00  0.00     0.303 C 
ATOM     19  O   UNL d   1     -44.515-123.223 -50.204  0.00  0.00    -0.259 OA
BRANCH  18  20
ATOM     20  O   UNL d   1     -44.055-121.872 -50.256  0.00  0.00    -0.295 OA
ATOM     21  C   UNL d   1     -44.791-121.552 -50.396  0.00  0.00     0.185 C 
ENDBRANCH  18  20
ENDBRANCH   1  18
TORSDOF 4
ENDMDL
MODEL 2
REMARK VINA RESULT:       1.2      2.287      3.216
REMARK  4 active torsions:
REMARK  status: ('A' for Active; 'I' for Inactive)
REMARK    1  A    between atoms: C_8  and  C_1 
REMARK    2  A    between atoms: N_4  and  C_2 
REMARK       I    between atoms: C_6  and  N_4 
REMARK    3  A    between atoms: C_9  and  C_6 
REMARK    4  A    between atoms: O_16  and  C_8 
ROOT
ATOM      1  C   UNL d   1     -41.221-121.207 -51.631  0.00  0.00     0.110 A 
ATOM      2  C   UNL d   1     -41.230-121.939 -52.029  0.00  0.00     0.096 A 
ATOM      3  S   UNL d   1     -41.257-121.370 -50.862  0.00  0.00    -0.080 SA
ATOM      4  C   UNL d   1     -41.271-122.526 -51.497  0.00  0.00     0.024 A 
ATOM      5  C   UNL d   1     -41.289-122.189 -50.742  0.00  0.00     0.031 A 
ATOM      6  C   UNL d   1     -41.295-123.354 -51.571  0.00  0.00     0.002 A 
ATOM      7  C   UNL d   1     -41.331-122.651 -50.078  0.00  0.00     0.006 A 
ATOM      8  C   UNL d   1     -41.337-123.818 -50.911  0.00  0.00     0.000 A 
ATOM      9  C   UNL d   1     -41.355-123.459 -50.156  0.00  0.00     0.001 A 
ENDROOT
BRANCH   2  10
ATOM     10  N   UNL d   1     -41.201-122.040 -52.853  0.00  0.00    -0.207 NA
ATOM     11  C   UNL d   1     -41.903-122.218 -53.267  0.00  0.00     0.285 C 
ATOM     12  O   UNL d   1     -42.602-122.287 -52.838  0.00  0.00    -0.265 OA
BRANCH  11  13
ATOM     13  C   UNL d   1     -41.904-122.321 -54.073  0.00  0.00     0.087 A 
ATOM     14  S   UNL d   1     -42.438-121.964 -54.589  0.00  0.00    -0.082 SA
ATOM     15  C   UNL d   1     -42.263-122.201 -55.347  0.00  0.00     0.036 A 
ATOM     16  C   UNL d   1     -41.604-122.718 -55.297  0.00  0.00     0.008 A 
ATOM     17  C   UNL d   1     -41.390-122.788 -54.520  0.00  0.00     0.012 A 
ENDBRANCH  11  13
ENDBRANCH   2  10
BRANCH   1  18
ATOM     18  C   UNL d   1     -41.182-120.423 -51.945  0.00  0.00     0.303 C 
ATOM     19  O   UNL d   1     -41.127-120.342 -52.761  0.00  0.00    -0.259 OA
BRANCH  18  20
ATOM     20  O   UNL d   1     -41.199-119.770 -51.454  0.00  0.00    -0.295 OA
ATOM     21  C   UNL d   1     -41.129-119.017 -51.757  0.00  0.00     0.185 C 
ENDBRANCH  18  20
ENDBRANCH   1  18
TORSDOF 4
ENDMDL
