MODEL 1
REMARK VINA RESULT:      -3.2      0.000      0.000
REMARK  4 active torsions:
REMARK  status: ('A' for Active; 'I' for Inactive)
REMARK    1  A    between atoms: S_7  and  C_2 
REMARK    2  A    between atoms: C_20  and  S_7 
REMARK    3  A    between atoms: C_10  and  C_20 
REMARK       I    between atoms: N_12  and  C_10 
REMARK    4  A    between atoms: C_15  and  N_12 
ROOT
ATOM      1  C   UNL d   1      32.846  19.281 -22.812  0.00  0.00     0.286 C 
ATOM      2  N   UNL d   1      33.023  19.608 -22.074  0.00  0.00    -0.207 NA
ATOM      3  O   UNL d   1      32.560  19.758 -23.416  0.00  0.00    -0.265 OA
ENDROOT
BRANCH   1   4
ATOM      4  C   UNL d   1      32.961  18.477 -22.923  0.00  0.00     0.101 C 
BRANCH   4   5
ATOM      5  S   UNL d   1      32.451  18.058 -23.412  0.00  0.00    -0.041 SA
BRANCH   5   6
ATOM      6  C   UNL d   1      32.509  17.238 -23.465  0.00  0.00     0.220 A 
ATOM      7  N   UNL d   1      31.896  16.800 -23.801  0.00  0.00    -0.148 N 
ATOM      8  C   UNL d   1      31.945  15.973 -23.859  0.00  0.00     0.305 A 
ATOM      9  N   UNL d   1      31.224  17.182 -24.085  0.00  0.00    -0.037 N 
ATOM     10  C   UNL d   1      32.628  15.598 -23.570  0.00  0.00     0.185 A 
ATOM     11  O   UNL d   1      31.338  15.539 -24.192  0.00  0.00    -0.263 OA
ATOM     12  N   UNL d   1      33.241  16.036 -23.234  0.00  0.00    -0.139 NA
ATOM     13  N   UNL d   1      33.179  16.854 -23.183  0.00  0.00    -0.121 NA
ENDBRANCH   5   6
ENDBRANCH   4   5
ENDBRANCH   1   4
BRANCH   2  14
ATOM     14  C   UNL d   1      32.911  20.418 -21.948  0.00  0.00     0.087 A 
ATOM     15  C   UNL d   1      32.469  20.675 -21.299  0.00  0.00     0.045 A 
ATOM     16  C   UNL d   1      32.358  21.477 -21.174  0.00  0.00     0.121 A 
ATOM     17  O   UNL d   1      31.951  21.901 -20.586  0.00  0.00    -0.299 OA
ATOM     18  C   UNL d   1      32.685  22.028 -21.692  0.00  0.00     0.119 A 
ATOM     19  C   UNL d   1      32.026  22.703 -20.740  0.00  0.00     0.304 A 
ATOM     20  O   UNL d   1      32.480  22.783 -21.424  0.00  0.00    -0.300 OA
ATOM     21  C   UNL d   1      33.126  21.772 -22.341  0.00  0.00     0.028 A 
ATOM     22  C   UNL d   1      33.241  20.960 -22.471  0.00  0.00     0.021 A 
ENDBRANCH   2  14
TORSDOF 4
ENDMDL
MODEL 2
REMARK VINA RESULT:      -2.9      1.535      2.113
REMARK  4 active torsions:
REMARK  status: ('A' for Active; 'I' for Inactive)
REMARK    1  A    between atoms: S_7  and  C_2 
REMARK    2  A    between atoms: C_20  and  S_7 
REMARK    3  A    between atoms: C_10  and  C_20 
REMARK       I    between atoms: N_12  and  C_10 
REMARK    4  A    between atoms: C_15  and  N_12 
ROOT
ATOM      1  C   UNL d   1      32.927  20.752 -22.023  0.00  0.00     0.286 C 
ATOM      2  N   UNL d   1      33.111  21.556 -22.069  0.00  0.00    -0.207 NA
ATOM      3  O   UNL d   1      32.526  20.459 -21.369  0.00  0.00    -0.265 OA
ENDROOT
BRANCH   1   4
ATOM      4  C   UNL d   1      33.153  20.261 -22.639  0.00  0.00     0.101 C 
BRANCH   4   5
ATOM      5  S   UNL d   1      33.042  19.449 -22.571  0.00  0.00    -0.041 SA
BRANCH   5   6
ATOM      6  C   UNL d   1      33.050  18.974 -23.245  0.00  0.00     0.220 A 
ATOM      7  N   UNL d   1      33.141  18.157 -23.174  0.00  0.00    -0.148 N 
ATOM      8  C   UNL d   1      33.150  17.670 -23.846  0.00  0.00     0.305 A 
ATOM      9  N   UNL d   1      33.226  17.815 -22.429  0.00  0.00    -0.037 N 
ATOM     10  C   UNL d   1      33.064  18.025 -24.591  0.00  0.00     0.185 A 
ATOM     11  O   UNL d   1      33.241  16.861 -23.775  0.00  0.00    -0.263 OA
ATOM     12  N   UNL d   1      32.973  18.842 -24.662  0.00  0.00    -0.139 NA
ATOM     13  N   UNL d   1      32.966  19.313 -23.989  0.00  0.00    -0.121 NA
ENDBRANCH   5   6
ENDBRANCH   4   5
ENDBRANCH   1   4
BRANCH   2  14
ATOM     14  C   UNL d   1      32.889  22.063 -21.454  0.00  0.00     0.087 A 
ATOM     15  C   UNL d   1      33.226  21.972 -20.705  0.00  0.00     0.045 A 
ATOM     16  C   UNL d   1      33.007  22.474 -20.096  0.00  0.00     0.121 A 
ATOM     17  O   UNL d   1      33.239  22.524 -19.301  0.00  0.00    -0.299 OA
ATOM     18  C   UNL d   1      32.451  23.069 -20.227  0.00  0.00     0.119 A 
ATOM     19  C   UNL d   1      32.833  23.141 -18.945  0.00  0.00     0.304 A 
ATOM     20  O   UNL d   1      32.345  23.479 -19.518  0.00  0.00    -0.300 OA
ATOM     21  C   UNL d   1      32.114  23.160 -20.975  0.00  0.00     0.028 A 
ATOM     22  C   UNL d   1      32.334  22.653 -21.595  0.00  0.00     0.021 A 
ENDBRANCH   2  14
TORSDOF 4
ENDMDL
MODEL 3
REMARK VINA RESULT:      -2.6      1.249      5.169
REMARK  4 active torsions:
REMARK  status: ('A' for Active; 'I' for Inactive)
REMARK    1  A    between atoms: S_7  and  C_2 
REMARK    2  A    between atoms: C_20  and  S_7 
REMARK    3  A    between atoms: C_10  and  C_20 
REMARK       I    between atoms: N_12  and  C_10 
REMARK    4  A    between atoms: C_15  and  N_12 
ROOT
ATOM      1  C   UNL d   1      32.879  18.826 -23.129  0.00  0.00     0.286 C 
ATOM      2  N   UNL d   1      32.901  18.013 -22.982  0.00  0.00    -0.207 NA
ATOM      3  O   UNL d   1      32.501  19.113 -23.799  0.00  0.00    -0.265 OA
ENDROOT
BRANCH   1   4
ATOM      4  C   UNL d   1      33.241  19.331 -22.594  0.00  0.00     0.101 C 
BRANCH   4   5
ATOM      5  S   UNL d   1      33.062  20.133 -22.610  0.00  0.00    -0.041 SA
BRANCH   5   6
ATOM      6  C   UNL d   1      33.108  20.581 -21.920  0.00  0.00     0.220 A 
ATOM      7  N   UNL d   1      33.151  21.403 -21.962  0.00  0.00    -0.148 N 
ATOM      8  C   UNL d   1      33.198  21.864 -21.273  0.00  0.00     0.305 A 
ATOM      9  N   UNL d   1      33.149  21.780 -22.695  0.00  0.00    -0.037 N 
ATOM     10  C   UNL d   1      33.199  21.474 -20.539  0.00  0.00     0.185 A 
ATOM     11  O   UNL d   1      33.241  22.679 -21.315  0.00  0.00    -0.263 OA
ATOM     12  N   UNL d   1      33.155  20.652 -20.496  0.00  0.00    -0.139 NA
ATOM     13  N   UNL d   1      33.110  20.208 -21.187  0.00  0.00    -0.121 NA
ENDBRANCH   5   6
ENDBRANCH   4   5
ENDBRANCH   1   4
BRANCH   2  14
ATOM     14  C   UNL d   1      32.540  17.491 -23.513  0.00  0.00     0.087 A 
ATOM     15  C   UNL d   1      31.815  17.145 -23.320  0.00  0.00     0.045 A 
ATOM     16  C   UNL d   1      31.458  16.629 -23.845  0.00  0.00     0.121 A 
ATOM     17  O   UNL d   1      30.746  16.201 -23.814  0.00  0.00    -0.299 OA
ATOM     18  C   UNL d   1      31.818  16.453 -24.566  0.00  0.00     0.119 A 
ATOM     19  C   UNL d   1      30.668  15.767 -24.505  0.00  0.00     0.304 A 
ATOM     20  O   UNL d   1      31.331  15.922 -24.972  0.00  0.00    -0.300 OA
ATOM     21  C   UNL d   1      32.542  16.798 -24.760  0.00  0.00     0.028 A 
ATOM     22  C   UNL d   1      32.907  17.322 -24.229  0.00  0.00     0.021 A 
ENDBRANCH   2  14
TORSDOF 4
ENDMDL
