MODEL 1
REMARK VINA RESULT:      -2.4      0.000      0.000
REMARK  7 active torsions:
REMARK  status: ('A' for Active; 'I' for Inactive)
REMARK    1  A    between atoms: S_6  and  C_1 
REMARK    2  A    between atoms: C_12  and  N_2 
REMARK       I    between atoms: N_4  and  C_8 
REMARK    3  A    between atoms: C_5  and  N_4 
REMARK    4  A    between atoms: C_15  and  S_6 
REMARK    5  A    between atoms: O_18  and  C_7 
REMARK    6  A    between atoms: C_8  and  C_15 
REMARK    7  A    between atoms: O_19  and  C_16 
ROOT
ATOM      1  N   UNL d   1      56.940  -0.840  31.548  0.00  0.00    -0.206 NA
ATOM      2  C   UNL d   1      57.356  -0.337  31.057  0.00  0.00     0.286 C 
ATOM      3  O   UNL d   1      57.524   0.433  31.292  0.00  0.00    -0.265 OA
ENDROOT
BRANCH   2   4
ATOM      4  C   UNL d   1      57.607  -0.598  30.330  0.00  0.00     0.101 C 
BRANCH   4   5
ATOM      5  S   UNL d   1      58.411  -0.606  30.141  0.00  0.00    -0.044 SA
BRANCH   5   6
ATOM      6  C   UNL d   1      58.709  -1.169  29.611  0.00  0.00     0.180 A 
ATOM      7  N   UNL d   1      59.421  -1.116  29.210  0.00  0.00    -0.284 N 
ATOM      8  C   UNL d   1      59.493  -1.797  28.745  0.00  0.00     0.103 A 
ATOM      9  C   UNL d   1      58.813  -2.269  28.868  0.00  0.00     0.120 A 
ATOM     10  N   UNL d   1      58.343  -1.874  29.399  0.00  0.00    -0.219 NA
BRANCH   7  11
ATOM     11  C   UNL d   1      59.987  -0.517  29.235  0.00  0.00     0.066 A 
ATOM     12  C   UNL d   1      60.064   0.004  28.600  0.00  0.00     0.018 A 
ATOM     13  C   UNL d   1      60.630   0.603  28.625  0.00  0.00     0.002 A 
ATOM     14  C   UNL d   1      61.119   0.682  29.285  0.00  0.00     0.000 A 
ATOM     15  C   UNL d   1      61.039   0.163  29.913  0.00  0.00     0.002 A 
ATOM     16  C   UNL d   1      60.473  -0.436  29.887  0.00  0.00     0.018 A 
ENDBRANCH   7  11
ENDBRANCH   5   6
ENDBRANCH   4   5
ENDBRANCH   2   4
BRANCH   1  17
ATOM     17  C   UNL d   1      56.684  -0.583  32.283  0.00  0.00     0.107 A 
ATOM     18  C   UNL d   1      56.098  -0.989  32.683  0.00  0.00     0.114 A 
ATOM     19  C   UNL d   1      55.845  -0.732  33.413  0.00  0.00     0.050 A 
ATOM     20  C   UNL d   1      56.180  -0.058  33.755  0.00  0.00     0.096 A 
ATOM     21  C   UNL d   1      56.776   0.359  33.355  0.00  0.00     0.026 A 
ATOM     22  C   UNL d   1      57.024   0.090  32.618  0.00  0.00     0.023 A 
BRANCH  18  23
ATOM     23  O   UNL d   1      55.759  -1.658  32.353  0.00  0.00    -0.327 OA
ATOM     24  C   UNL d   1      55.483  -2.272  32.847  0.00  0.00     0.181 C 
ENDBRANCH  18  23
BRANCH  20  25
ATOM     25  O   UNL d   1      55.918   0.201  34.502  0.00  0.00    -0.328 OA
ATOM     26  C   UNL d   1      56.408   0.682  34.967  0.00  0.00     0.181 C 
ENDBRANCH  20  25
ENDBRANCH   1  17
TORSDOF 7
ENDMDL
MODEL 2
REMARK VINA RESULT:      -1.6      1.390      2.284
REMARK  7 active torsions:
REMARK  status: ('A' for Active; 'I' for Inactive)
REMARK    1  A    between atoms: S_6  and  C_1 
REMARK    2  A    between atoms: C_12  and  N_2 
REMARK       I    between atoms: N_4  and  C_8 
REMARK    3  A    between atoms: C_5  and  N_4 
REMARK    4  A    between atoms: C_15  and  S_6 
REMARK    5  A    between atoms: O_18  and  C_7 
REMARK    6  A    between atoms: C_8  and  C_15 
REMARK    7  A    between atoms: O_19  and  C_16 
ROOT
ATOM      1  N   UNL d   1      57.458   0.578  32.808  0.00  0.00    -0.206 NA
ATOM      2  C   UNL d   1      57.589   0.587  32.002  0.00  0.00     0.286 C 
ATOM      3  O   UNL d   1      56.956   0.596  31.476  0.00  0.00    -0.265 OA
ENDROOT
BRANCH   2   4
ATOM      4  C   UNL d   1      58.348   0.587  31.715  0.00  0.00     0.101 C 
BRANCH   4   5
ATOM      5  S   UNL d   1      58.545   0.146  31.045  0.00  0.00    -0.044 SA
BRANCH   5   6
ATOM      6  C   UNL d   1      59.301   0.205  30.713  0.00  0.00     0.180 A 
ATOM      7  N   UNL d   1      59.567  -0.202  30.055  0.00  0.00    -0.284 N 
ATOM      8  C   UNL d   1      60.350   0.026  29.923  0.00  0.00     0.103 A 
ATOM      9  C   UNL d   1      60.562   0.582  30.512  0.00  0.00     0.120 A 
ATOM     10  N   UNL d   1      59.913   0.682  30.987  0.00  0.00    -0.219 NA
BRANCH   7  11
ATOM     11  C   UNL d   1      59.163  -0.746  29.584  0.00  0.00     0.066 A 
ATOM     12  C   UNL d   1      58.739  -0.486  28.926  0.00  0.00     0.018 A 
ATOM     13  C   UNL d   1      58.335  -1.030  28.455  0.00  0.00     0.002 A 
ATOM     14  C   UNL d   1      58.355  -1.834  28.643  0.00  0.00     0.000 A 
ATOM     15  C   UNL d   1      58.776  -2.087  29.297  0.00  0.00     0.002 A 
ATOM     16  C   UNL d   1      59.180  -1.543  29.768  0.00  0.00     0.018 A 
ENDBRANCH   7  11
ENDBRANCH   5   6
ENDBRANCH   4   5
ENDBRANCH   2   4
BRANCH   1  17
ATOM     17  C   UNL d   1      56.695   0.578  33.105  0.00  0.00     0.107 A 
ATOM     18  C   UNL d   1      56.562   0.629  33.909  0.00  0.00     0.114 A 
ATOM     19  C   UNL d   1      55.803   0.629  34.203  0.00  0.00     0.050 A 
ATOM     20  C   UNL d   1      55.158   0.577  33.686  0.00  0.00     0.096 A 
ATOM     21  C   UNL d   1      55.286   0.524  32.868  0.00  0.00     0.026 A 
ATOM     22  C   UNL d   1      56.058   0.525  32.583  0.00  0.00     0.023 A 
BRANCH  18  23
ATOM     23  O   UNL d   1      57.193   0.682  34.430  0.00  0.00    -0.327 OA
ATOM     24  C   UNL d   1      57.062   0.608  35.252  0.00  0.00     0.181 C 
ENDBRANCH  18  23
BRANCH  20  25
ATOM     25  O   UNL d   1      54.383   0.577  33.990  0.00  0.00    -0.328 OA
ATOM     26  C   UNL d   1      54.262   0.645  34.808  0.00  0.00     0.181 C 
ENDBRANCH  20  25
ENDBRANCH   1  17
TORSDOF 7
ENDMDL
MODEL 3
REMARK VINA RESULT:       0.3      1.666      5.442
REMARK  7 active torsions:
REMARK  status: ('A' for Active; 'I' for Inactive)
REMARK    1  A    between atoms: S_6  and  C_1 
REMARK    2  A    between atoms: C_12  and  N_2 
REMARK       I    between atoms: N_4  and  C_8 
REMARK    3  A    between atoms: C_5  and  N_4 
REMARK    4  A    between atoms: C_15  and  S_6 
REMARK    5  A    between atoms: O_18  and  C_7 
REMARK    6  A    between atoms: C_8  and  C_15 
REMARK    7  A    between atoms: O_19  and  C_16 
ROOT
ATOM      1  N   UNL d   1      58.040  -0.213  30.573  0.00  0.00    -0.206 NA
ATOM      2  C   UNL d   1      57.411  -0.267  31.092  0.00  0.00     0.286 C 
ATOM      3  O   UNL d   1      56.961  -0.955  31.134  0.00  0.00    -0.265 OA
ENDROOT
BRANCH   2   4
ATOM      4  C   UNL d   1      57.227   0.362  31.570  0.00  0.00     0.101 C 
BRANCH   4   5
ATOM      5  S   UNL d   1      56.797   0.249  32.267  0.00  0.00    -0.044 SA
BRANCH   5   6
ATOM      6  C   UNL d   1      57.144   0.408  33.001  0.00  0.00     0.180 A 
ATOM      7  N   UNL d   1      56.741   0.551  33.699  0.00  0.00    -0.284 N 
ATOM      8  C   UNL d   1      57.306   0.682  34.289  0.00  0.00     0.103 A 
ATOM      9  C   UNL d   1      58.064   0.616  33.942  0.00  0.00     0.120 A 
ATOM     10  N   UNL d   1      57.951   0.448  33.156  0.00  0.00    -0.219 NA
BRANCH   7  11
ATOM     11  C   UNL d   1      55.927   0.572  33.832  0.00  0.00     0.066 A 
ATOM     12  C   UNL d   1      55.407   0.650  33.196  0.00  0.00     0.018 A 
ATOM     13  C   UNL d   1      54.593   0.670  33.329  0.00  0.00     0.002 A 
ATOM     14  C   UNL d   1      54.299   0.612  34.098  0.00  0.00     0.000 A 
ATOM     15  C   UNL d   1      54.818   0.535  34.725  0.00  0.00     0.002 A 
ATOM     16  C   UNL d   1      55.632   0.515  34.592  0.00  0.00     0.018 A 
ENDBRANCH   7  11
ENDBRANCH   5   6
ENDBRANCH   4   5
ENDBRANCH   2   4
BRANCH   1  17
ATOM     17  C   UNL d   1      58.231  -0.845  30.087  0.00  0.00     0.107 A 
ATOM     18  C   UNL d   1      58.791  -0.760  29.499  0.00  0.00     0.114 A 
ATOM     19  C   UNL d   1      58.981  -1.388  29.016  0.00  0.00     0.050 A 
ATOM     20  C   UNL d   1      58.606  -2.119  29.120  0.00  0.00     0.096 A 
ATOM     21  C   UNL d   1      58.036  -2.212  29.716  0.00  0.00     0.026 A 
ATOM     22  C   UNL d   1      57.853  -1.570  30.197  0.00  0.00     0.023 A 
BRANCH  18  23
ATOM     23  O   UNL d   1      59.168  -0.041  29.387  0.00  0.00    -0.327 OA
ATOM     24  C   UNL d   1      59.766   0.031  28.808  0.00  0.00     0.181 C 
ENDBRANCH  18  23
BRANCH  20  25
ATOM     25  O   UNL d   1      58.803  -2.758  28.625  0.00  0.00    -0.328 OA
ATOM     26  C   UNL d   1      59.412  -3.277  28.844  0.00  0.00     0.181 C 
ENDBRANCH  20  25
ENDBRANCH   1  17
TORSDOF 7
ENDMDL
