MODEL 1
REMARK VINA RESULT:     -11.5      0.000      0.000
REMARK  0 active torsions:
REMARK  status: ('A' for Active; 'I' for Inactive)
ROOT
ATOM      1  C   UNL d   1      52.865  32.457  53.375  0.00  0.00     0.150 A 
ATOM      2  N   UNL d   1      53.311  32.880  53.934  0.00  0.00    -0.275 N 
ATOM      3  N   UNL d   1      52.383  32.974  52.973  0.00  0.00    -0.227 NA
ATOM      4  C   UNL d   1      53.852  32.548  54.437  0.00  0.00     0.149 A 
ATOM      5  N   UNL d   1      53.974  31.735  54.396  0.00  0.00    -0.228 NA
ATOM      6  C   UNL d   1      53.000  31.642  53.348  0.00  0.00     0.052 A 
ATOM      7  C   UNL d   1      53.066  33.674  53.841  0.00  0.00     0.084 A 
ATOM      8  C   UNL d   1      53.562  31.277  53.865  0.00  0.00     0.086 A 
ATOM      9  C   UNL d   1      52.523  33.734  53.280  0.00  0.00     0.099 A 
ATOM     10  C   UNL d   1      54.285  32.983  54.985  0.00  0.00     0.041 C 
ATOM     11  C   UNL d   1      52.571  31.183  52.798  0.00  0.00     0.004 A 
ATOM     12  C   UNL d   1      53.318  34.366  54.251  0.00  0.00     0.019 A 
ATOM     13  C   UNL d   1      53.677  30.467  53.817  0.00  0.00     0.019 A 
ATOM     14  C   UNL d   1      52.199  34.474  53.091  0.00  0.00     0.021 A 
ATOM     15  C   UNL d   1      52.706  30.368  52.771  0.00  0.00     0.000 A 
ATOM     16  C   UNL d   1      52.977  35.108  54.046  0.00  0.00     0.002 A 
ATOM     17  C   UNL d   1      52.448  35.147  53.495  0.00  0.00     0.002 A 
ATOM     18  C   UNL d   1      53.251  30.016  53.273  0.00  0.00     0.002 A 
ENDROOT
TORSDOF 0
ENDMDL
MODEL 2
REMARK VINA RESULT:     -11.5      0.616      3.166
REMARK  0 active torsions:
REMARK  status: ('A' for Active; 'I' for Inactive)
ROOT
ATOM      1  C   UNL d   1      52.588  32.507  53.118  0.00  0.00     0.150 A 
ATOM      2  N   UNL d   1      53.182  32.270  53.648  0.00  0.00    -0.275 N 
ATOM      3  N   UNL d   1      52.315  31.855  52.715  0.00  0.00    -0.227 NA
ATOM      4  C   UNL d   1      53.582  32.770  54.143  0.00  0.00     0.149 A 
ATOM      5  N   UNL d   1      53.392  33.570  54.126  0.00  0.00    -0.228 NA
ATOM      6  C   UNL d   1      52.410  33.314  53.113  0.00  0.00     0.052 A 
ATOM      7  C   UNL d   1      53.245  31.443  53.538  0.00  0.00     0.084 A 
ATOM      8  C   UNL d   1      52.817  33.852  53.623  0.00  0.00     0.086 A 
ATOM      9  C   UNL d   1      52.740  31.196  52.993  0.00  0.00     0.099 A 
ATOM     10  C   UNL d   1      54.168  32.517  54.663  0.00  0.00     0.041 C 
ATOM     11  C   UNL d   1      51.818  33.591  52.593  0.00  0.00     0.004 A 
ATOM     12  C   UNL d   1      53.753  30.887  53.917  0.00  0.00     0.019 A 
ATOM     13  C   UNL d   1      52.621  34.648  53.598  0.00  0.00     0.019 A 
ATOM     14  C   UNL d   1      52.705  30.392  52.791  0.00  0.00     0.021 A 
ATOM     15  C   UNL d   1      51.640  34.398  52.587  0.00  0.00     0.000 A 
ATOM     16  C   UNL d   1      53.703  30.075  53.698  0.00  0.00     0.002 A 
ATOM     17  C   UNL d   1      53.203  29.852  53.164  0.00  0.00     0.002 A 
ATOM     18  C   UNL d   1      52.036  34.917  53.083  0.00  0.00     0.002 A 
ENDROOT
TORSDOF 0
ENDMDL
MODEL 3
REMARK VINA RESULT:     -10.8      0.778      3.451
REMARK  0 active torsions:
REMARK  status: ('A' for Active; 'I' for Inactive)
ROOT
ATOM      1  C   UNL d   1      53.734  32.270  54.144  0.00  0.00     0.150 A 
ATOM      2  N   UNL d   1      53.108  32.240  53.598  0.00  0.00    -0.275 N 
ATOM      3  N   UNL d   1      54.032  31.521  54.249  0.00  0.00    -0.227 NA
ATOM      4  C   UNL d   1      52.678  32.882  53.356  0.00  0.00     0.149 A 
ATOM      5  N   UNL d   1      52.866  33.618  53.670  0.00  0.00    -0.228 NA
ATOM      6  C   UNL d   1      53.910  33.018  54.449  0.00  0.00     0.052 A 
ATOM      7  C   UNL d   1      53.053  31.433  53.385  0.00  0.00     0.084 A 
ATOM      8  C   UNL d   1      53.471  33.699  54.208  0.00  0.00     0.086 A 
ATOM      9  C   UNL d   1      53.592  31.008  53.764  0.00  0.00     0.099 A 
ATOM     10  C   UNL d   1      52.061  32.832  52.814  0.00  0.00     0.041 C 
ATOM     11  C   UNL d   1      54.533  33.089  55.001  0.00  0.00     0.004 A 
ATOM     12  C   UNL d   1      52.524  31.051  52.851  0.00  0.00     0.019 A 
ATOM     13  C   UNL d   1      53.667  34.430  54.526  0.00  0.00     0.019 A 
ATOM     14  C   UNL d   1      53.640  30.189  53.639  0.00  0.00     0.021 A 
ATOM     15  C   UNL d   1      54.710  33.836  55.306  0.00  0.00     0.000 A 
ATOM     16  C   UNL d   1      52.589  30.220  52.738  0.00  0.00     0.002 A 
ATOM     17  C   UNL d   1      53.121  29.822  53.116  0.00  0.00     0.002 A 
ATOM     18  C   UNL d   1      54.282  34.496  55.071  0.00  0.00     0.002 A 
ENDROOT
TORSDOF 0
ENDMDL
MODEL 4
REMARK VINA RESULT:     -10.2      1.101      2.899
REMARK  0 active torsions:
REMARK  status: ('A' for Active; 'I' for Inactive)
ROOT
ATOM      1  C   UNL d   1      52.551  33.912  53.755  0.00  0.00     0.150 A 
ATOM      2  N   UNL d   1      53.013  33.229  53.652  0.00  0.00    -0.275 N 
ATOM      3  N   UNL d   1      52.905  34.394  54.307  0.00  0.00    -0.227 NA
ATOM      4  C   UNL d   1      52.833  32.624  53.146  0.00  0.00     0.149 A 
ATOM      5  N   UNL d   1      52.145  32.683  52.698  0.00  0.00    -0.228 NA
ATOM      6  C   UNL d   1      51.863  33.954  53.298  0.00  0.00     0.052 A 
ATOM      7  C   UNL d   1      53.660  33.333  54.172  0.00  0.00     0.084 A 
ATOM      8  C   UNL d   1      51.659  33.332  52.763  0.00  0.00     0.086 A 
ATOM      9  C   UNL d   1      53.601  34.013  54.558  0.00  0.00     0.099 A 
ATOM     10  C   UNL d   1      53.303  31.955  53.057  0.00  0.00     0.041 C 
ATOM     11  C   UNL d   1      51.372  34.625  53.373  0.00  0.00     0.004 A 
ATOM     12  C   UNL d   1      54.319  32.828  54.319  0.00  0.00     0.019 A 
ATOM     13  C   UNL d   1      50.971  33.399  52.321  0.00  0.00     0.019 A 
ATOM     14  C   UNL d   1      54.184  34.233  55.106  0.00  0.00     0.021 A 
ATOM     15  C   UNL d   1      50.685  34.668  52.916  0.00  0.00     0.000 A 
ATOM     16  C   UNL d   1      54.900  33.069  54.879  0.00  0.00     0.002 A 
ATOM     17  C   UNL d   1      54.825  33.736  55.246  0.00  0.00     0.002 A 
ATOM     18  C   UNL d   1      50.489  34.063  52.398  0.00  0.00     0.002 A 
ENDROOT
TORSDOF 0
ENDMDL
MODEL 5
REMARK VINA RESULT:     -10.1      1.052      2.567
REMARK  0 active torsions:
REMARK  status: ('A' for Active; 'I' for Inactive)
ROOT
ATOM      1  C   UNL d   1      52.872  33.859  53.927  0.00  0.00     0.150 A 
ATOM      2  N   UNL d   1      52.573  33.236  53.465  0.00  0.00    -0.275 N 
ATOM      3  N   UNL d   1      52.372  34.498  53.869  0.00  0.00    -0.227 NA
ATOM      4  C   UNL d   1      52.924  32.511  53.389  0.00  0.00     0.149 A 
ATOM      5  N   UNL d   1      53.627  32.374  53.794  0.00  0.00    -0.228 NA
ATOM      6  C   UNL d   1      53.579  33.704  54.327  0.00  0.00     0.052 A 
ATOM      7  C   UNL d   1      51.870  33.542  53.131  0.00  0.00     0.084 A 
ATOM      8  C   UNL d   1      53.960  32.952  54.259  0.00  0.00     0.086 A 
ATOM      9  C   UNL d   1      51.748  34.280  53.364  0.00  0.00     0.099 A 
ATOM     10  C   UNL d   1      52.613  31.906  52.926  0.00  0.00     0.041 C 
ATOM     11  C   UNL d   1      53.911  34.305  54.801  0.00  0.00     0.004 A 
ATOM     12  C   UNL d   1      51.317  33.174  52.611  0.00  0.00     0.019 A 
ATOM     13  C   UNL d   1      54.660  32.824  54.667  0.00  0.00     0.019 A 
ATOM     14  C   UNL d   1      51.080  34.695  53.100  0.00  0.00     0.021 A 
ATOM     15  C   UNL d   1      54.617  34.151  55.202  0.00  0.00     0.000 A 
ATOM     16  C   UNL d   1      50.646  33.612  52.354  0.00  0.00     0.002 A 
ATOM     17  C   UNL d   1      50.544  34.332  52.592  0.00  0.00     0.002 A 
ATOM     18  C   UNL d   1      54.985  33.420  55.134  0.00  0.00     0.002 A 
ENDROOT
TORSDOF 0
ENDMDL
