MODEL 1
REMARK VINA RESULT:      -8.7      0.000      0.000
REMARK  5 active torsions:
REMARK  status: ('A' for Active; 'I' for Inactive)
REMARK    1  A    between atoms: C_3  and  N_1 
REMARK       I    between atoms: C_2  and  N_4 
REMARK    2  A    between atoms: C_10  and  C_2 
REMARK    3  A    between atoms: N_4  and  C_9 
REMARK    4  A    between atoms: C_13  and  C_10 
REMARK    5  A    between atoms: C_16  and  C_13 
ROOT
ATOM      1  C   UNL d   1      49.916  34.438  52.451  0.00  0.00     0.064 A 
ATOM      2  C   UNL d   1      50.039  33.997  53.144  0.00  0.00     0.020 A 
ATOM      3  C   UNL d   1      50.492  34.442  51.861  0.00  0.00     0.020 A 
ATOM      4  C   UNL d   1      51.303  33.569  52.658  0.00  0.00     0.135 A 
ATOM      5  C   UNL d   1      51.191  34.005  51.963  0.00  0.00     0.034 A 
ATOM      6  C   UNL d   1      50.733  33.565  53.243  0.00  0.00     0.034 A 
ENDROOT
BRANCH   4   7
ATOM      7  N   UNL d   1      51.996  33.135  52.762  0.00  0.00    -0.365 NA
ATOM      8  C   UNL d   1      52.694  32.696  52.865  0.00  0.00     0.328 C 
ATOM      9  O   UNL d   1      52.740  31.924  52.577  0.00  0.00    -0.251 OA
BRANCH   8  10
ATOM     10  C   UNL d   1      53.339  33.030  53.254  0.00  0.00     0.076 C 
BRANCH  10  11
ATOM     11  C   UNL d   1      53.784  32.583  53.776  0.00  0.00     0.006 C 
BRANCH  11  12
ATOM     12  C   UNL d   1      54.265  32.955  54.335  0.00  0.00     0.000 A 
ATOM     13  C   UNL d   1      54.934  33.373  54.088  0.00  0.00     0.000 A 
ATOM     14  C   UNL d   1      55.422  33.749  54.645  0.00  0.00     0.000 A 
ATOM     15  C   UNL d   1      55.237  33.705  55.448  0.00  0.00     0.000 A 
ATOM     16  C   UNL d   1      54.564  33.285  55.694  0.00  0.00     0.000 A 
ATOM     17  C   UNL d   1      54.080  32.911  55.138  0.00  0.00     0.000 A 
ENDBRANCH  11  12
ENDBRANCH  10  11
ENDBRANCH   8  10
ENDBRANCH   4   7
BRANCH   1  18
ATOM     18  N   UNL d   1      49.222  34.870  52.353  0.00  0.00    -0.300 N 
ATOM     19  C   UNL d   1      48.793  34.794  51.653  0.00  0.00     0.107 A 
ATOM     20  C   UNL d   1      48.099  35.226  51.554  0.00  0.00     0.142 A 
ATOM     21  O   UNL d   1      47.836  35.727  52.146  0.00  0.00    -0.300 OA
ATOM     22  C   UNL d   1      48.265  35.803  52.846  0.00  0.00     0.142 A 
ATOM     23  C   UNL d   1      48.964  35.372  52.951  0.00  0.00     0.107 A 
ENDBRANCH   1  18
TORSDOF 5
ENDMDL
MODEL 2
REMARK VINA RESULT:      -8.5      1.242      5.733
REMARK  5 active torsions:
REMARK  status: ('A' for Active; 'I' for Inactive)
REMARK    1  A    between atoms: C_3  and  N_1 
REMARK       I    between atoms: C_2  and  N_4 
REMARK    2  A    between atoms: C_10  and  C_2 
REMARK    3  A    between atoms: N_4  and  C_9 
REMARK    4  A    between atoms: C_13  and  C_10 
REMARK    5  A    between atoms: C_16  and  C_13 
ROOT
ATOM      1  C   UNL d   1      52.346  33.531  53.460  0.00  0.00     0.064 A 
ATOM      2  C   UNL d   1      51.642  33.095  53.530  0.00  0.00     0.020 A 
ATOM      3  C   UNL d   1      52.334  34.271  53.097  0.00  0.00     0.020 A 
ATOM      4  C   UNL d   1      50.924  34.133  52.878  0.00  0.00     0.135 A 
ATOM      5  C   UNL d   1      51.619  34.576  52.803  0.00  0.00     0.034 A 
ATOM      6  C   UNL d   1      50.935  33.399  53.238  0.00  0.00     0.034 A 
ENDROOT
BRANCH   4   7
ATOM      7  N   UNL d   1      50.214  34.434  52.587  0.00  0.00    -0.365 NA
ATOM      8  C   UNL d   1      49.498  34.736  52.293  0.00  0.00     0.328 C 
ATOM      9  O   UNL d   1      49.279  34.584  51.512  0.00  0.00    -0.251 OA
BRANCH   8  10
ATOM     10  C   UNL d   1      49.008  35.186  52.779  0.00  0.00     0.076 C 
BRANCH  10  11
ATOM     11  C   UNL d   1      48.392  35.619  52.458  0.00  0.00     0.006 C 
BRANCH  11  12
ATOM     12  C   UNL d   1      47.838  35.982  52.951  0.00  0.00     0.000 A 
ATOM     13  C   UNL d   1      47.057  36.070  52.698  0.00  0.00     0.000 A 
ATOM     14  C   UNL d   1      46.495  36.434  53.189  0.00  0.00     0.000 A 
ATOM     15  C   UNL d   1      46.720  36.709  53.934  0.00  0.00     0.000 A 
ATOM     16  C   UNL d   1      47.506  36.619  54.187  0.00  0.00     0.000 A 
ATOM     17  C   UNL d   1      48.063  36.256  53.696  0.00  0.00     0.000 A 
ENDBRANCH  11  12
ENDBRANCH  10  11
ENDBRANCH   8  10
ENDBRANCH   4   7
BRANCH   1  18
ATOM     18  N   UNL d   1      53.052  33.226  53.752  0.00  0.00    -0.300 N 
ATOM     19  C   UNL d   1      53.450  32.643  53.326  0.00  0.00     0.107 A 
ATOM     20  C   UNL d   1      54.156  32.337  53.617  0.00  0.00     0.142 A 
ATOM     21  O   UNL d   1      54.464  32.611  54.327  0.00  0.00    -0.300 OA
ATOM     22  C   UNL d   1      54.066  33.194  54.753  0.00  0.00     0.142 A 
ATOM     23  C   UNL d   1      53.355  33.504  54.465  0.00  0.00     0.107 A 
ENDBRANCH   1  18
TORSDOF 5
ENDMDL
MODEL 3
REMARK VINA RESULT:      -8.0      1.556      2.022
REMARK  5 active torsions:
REMARK  status: ('A' for Active; 'I' for Inactive)
REMARK    1  A    between atoms: C_3  and  N_1 
REMARK       I    between atoms: C_2  and  N_4 
REMARK    2  A    between atoms: C_10  and  C_2 
REMARK    3  A    between atoms: N_4  and  C_9 
REMARK    4  A    between atoms: C_13  and  C_10 
REMARK    5  A    between atoms: C_16  and  C_13 
ROOT
ATOM      1  C   UNL d   1      49.383  34.823  52.301  0.00  0.00     0.064 A 
ATOM      2  C   UNL d   1      49.662  34.812  53.083  0.00  0.00     0.020 A 
ATOM      3  C   UNL d   1      49.843  34.500  51.697  0.00  0.00     0.020 A 
ATOM      4  C   UNL d   1      50.851  34.159  52.659  0.00  0.00     0.135 A 
ATOM      5  C   UNL d   1      50.582  34.165  51.876  0.00  0.00     0.034 A 
ATOM      6  C   UNL d   1      50.396  34.480  53.256  0.00  0.00     0.034 A 
ENDROOT
BRANCH   4   7
ATOM      7  N   UNL d   1      51.584  33.828  52.837  0.00  0.00    -0.365 NA
ATOM      8  C   UNL d   1      52.324  33.495  53.017  0.00  0.00     0.328 C 
ATOM      9  O   UNL d   1      52.998  33.972  53.021  0.00  0.00    -0.251 OA
BRANCH   8  10
ATOM     10  C   UNL d   1      52.385  32.692  53.191  0.00  0.00     0.076 C 
BRANCH  10  11
ATOM     11  C   UNL d   1      53.083  32.289  53.045  0.00  0.00     0.006 C 
BRANCH  11  12
ATOM     12  C   UNL d   1      53.142  31.485  53.223  0.00  0.00     0.000 A 
ATOM     13  C   UNL d   1      53.636  31.235  53.835  0.00  0.00     0.000 A 
ATOM     14  C   UNL d   1      53.701  30.428  54.019  0.00  0.00     0.000 A 
ATOM     15  C   UNL d   1      53.269  29.874  53.587  0.00  0.00     0.000 A 
ATOM     16  C   UNL d   1      52.772  30.127  52.971  0.00  0.00     0.000 A 
ATOM     17  C   UNL d   1      52.709  30.931  52.790  0.00  0.00     0.000 A 
ENDBRANCH  11  12
ENDBRANCH  10  11
ENDBRANCH   8  10
ENDBRANCH   4   7
BRANCH   1  18
ATOM     18  N   UNL d   1      48.651  35.155  52.128  0.00  0.00    -0.300 N 
ATOM     19  C   UNL d   1      48.276  34.965  51.418  0.00  0.00     0.107 A 
ATOM     20  C   UNL d   1      47.543  35.297  51.244  0.00  0.00     0.142 A 
ATOM     21  O   UNL d   1      47.187  35.813  51.773  0.00  0.00    -0.300 OA
ATOM     22  C   UNL d   1      47.561  36.003  52.483  0.00  0.00     0.142 A 
ATOM     23  C   UNL d   1      48.298  35.672  52.662  0.00  0.00     0.107 A 
ENDBRANCH   1  18
TORSDOF 5
ENDMDL
