MODEL 1
REMARK VINA RESULT:      -5.8      0.000      0.000
REMARK  4 active torsions:
REMARK  status: ('A' for Active; 'I' for Inactive)
REMARK    1  A    between atoms: N_4  and  C_1 
REMARK    2  A    between atoms: N_2  and  N_4 
REMARK    3  A    between atoms: C_6  and  N_2 
REMARK    4  A    between atoms: C_8  and  C_6 
ROOT
ATOM      1  C   UNL d   1     -47.868  12.924  23.094  0.00  0.00     0.008 A 
ATOM      2  C   UNL d   1     -47.852  13.697  22.812  0.00  0.00     0.021 A 
ATOM      3  C   UNL d   1     -47.160  12.566  23.373  0.00  0.00     0.035 A 
ATOM      4 BR   UNL d   1     -47.176  11.778  23.661  0.00  0.00    -0.049 Br
ATOM      5  C   UNL d   1     -46.439  13.766  23.080  0.00  0.00     0.001 A 
ATOM      6  C   UNL d   1     -46.455  12.993  23.362  0.00  0.00     0.007 A 
ATOM      7  C   UNL d   1     -47.148  14.115  22.804  0.00  0.00     0.002 A 
ENDROOT
BRANCH   2   8
ATOM      8  C   UNL d   1     -48.556  14.068  22.529  0.00  0.00     0.122 C 
BRANCH   8   9
ATOM      9  N   UNL d   1     -49.028  14.543  23.040  0.00  0.00    -0.144 NA
BRANCH   9  10
ATOM     10  N   UNL d   1     -49.722  14.903  22.757  0.00  0.00    -0.115 NA
BRANCH  10  11
ATOM     11  C   UNL d   1     -50.230  15.273  23.269  0.00  0.00     0.260 C 
ATOM     12  S   UNL d   1     -51.021  14.995  23.368  0.00  0.00    -0.034 SA
ATOM     13  N   UNL d   1     -49.987  15.917  23.697  0.00  0.00    -0.113 N 
ENDBRANCH  10  11
ENDBRANCH   9  10
ENDBRANCH   8   9
ENDBRANCH   2   8
TORSDOF 4
ENDMDL
MODEL 2
REMARK VINA RESULT:      -5.4      2.714      3.570
REMARK  4 active torsions:
REMARK  status: ('A' for Active; 'I' for Inactive)
REMARK    1  A    between atoms: N_4  and  C_1 
REMARK    2  A    between atoms: N_2  and  N_4 
REMARK    3  A    between atoms: C_6  and  N_2 
REMARK    4  A    between atoms: C_8  and  C_6 
ROOT
ATOM      1  C   UNL d   1     -49.669  12.278  23.207  0.00  0.00     0.008 A 
ATOM      2  C   UNL d   1     -49.133  12.311  22.583  0.00  0.00     0.021 A 
ATOM      3  C   UNL d   1     -50.489  12.400  23.062  0.00  0.00     0.035 A 
ATOM      4 BR   UNL d   1     -51.035  12.367  23.698  0.00  0.00    -0.049 Br
ATOM      5  C   UNL d   1     -50.212  12.585  21.671  0.00  0.00     0.001 A 
ATOM      6  C   UNL d   1     -50.748  12.552  22.294  0.00  0.00     0.007 A 
ATOM      7  C   UNL d   1     -49.400  12.462  21.824  0.00  0.00     0.002 A 
ENDROOT
BRANCH   2   8
ATOM      8  C   UNL d   1     -48.308  12.190  22.717  0.00  0.00     0.122 C 
BRANCH   8   9
ATOM      9  N   UNL d   1     -47.779  12.845  22.763  0.00  0.00    -0.144 NA
BRANCH   9  10
ATOM     10  N   UNL d   1     -46.976  12.723  22.942  0.00  0.00    -0.115 NA
BRANCH  10  11
ATOM     11  C   UNL d   1     -46.445  13.332  22.872  0.00  0.00     0.260 C 
ATOM     12  S   UNL d   1     -45.775  13.263  22.363  0.00  0.00    -0.034 SA
ATOM     13  N   UNL d   1     -46.548  14.018  23.290  0.00  0.00    -0.113 N 
ENDBRANCH  10  11
ENDBRANCH   9  10
ENDBRANCH   8   9
ENDBRANCH   2   8
TORSDOF 4
ENDMDL
MODEL 3
REMARK VINA RESULT:      -5.4      2.538      3.696
REMARK  4 active torsions:
REMARK  status: ('A' for Active; 'I' for Inactive)
REMARK    1  A    between atoms: N_4  and  C_1 
REMARK    2  A    between atoms: N_2  and  N_4 
REMARK    3  A    between atoms: C_6  and  N_2 
REMARK    4  A    between atoms: C_8  and  C_6 
ROOT
ATOM      1  C   UNL d   1     -49.236  15.235  23.103  0.00  0.00     0.008 A 
ATOM      2  C   UNL d   1     -48.860  14.766  22.542  0.00  0.00     0.021 A 
ATOM      3  C   UNL d   1     -50.077  15.267  23.126  0.00  0.00     0.035 A 
ATOM      4 BR   UNL d   1     -50.461  15.746  23.698  0.00  0.00    -0.049 Br
ATOM      5  C   UNL d   1     -50.140  14.357  22.024  0.00  0.00     0.001 A 
ATOM      6  C   UNL d   1     -50.517  14.827  22.585  0.00  0.00     0.007 A 
ATOM      7  C   UNL d   1     -49.304  14.332  22.008  0.00  0.00     0.002 A 
ENDROOT
BRANCH   2   8
ATOM      8  C   UNL d   1     -48.017  14.725  22.509  0.00  0.00     0.122 C 
BRANCH   8   9
ATOM      9  N   UNL d   1     -47.611  14.019  22.725  0.00  0.00    -0.144 NA
BRANCH   9  10
ATOM     10  N   UNL d   1     -46.792  14.033  22.868  0.00  0.00    -0.115 NA
BRANCH  10  11
ATOM     11  C   UNL d   1     -46.375  13.340  22.921  0.00  0.00     0.260 C 
ATOM     12  S   UNL d   1     -45.762  13.163  22.367  0.00  0.00    -0.034 SA
ATOM     13  N   UNL d   1     -46.538  12.804  23.506  0.00  0.00    -0.113 N 
ENDBRANCH  10  11
ENDBRANCH   9  10
ENDBRANCH   8   9
ENDBRANCH   2   8
TORSDOF 4
ENDMDL
MODEL 4
REMARK VINA RESULT:      -5.3      1.264      1.506
REMARK  4 active torsions:
REMARK  status: ('A' for Active; 'I' for Inactive)
REMARK    1  A    between atoms: N_4  and  C_1 
REMARK    2  A    between atoms: N_2  and  N_4 
REMARK    3  A    between atoms: C_6  and  N_2 
REMARK    4  A    between atoms: C_8  and  C_6 
ROOT
ATOM      1  C   UNL d   1     -47.588  12.764  23.341  0.00  0.00     0.008 A 
ATOM      2  C   UNL d   1     -47.830  13.496  23.053  0.00  0.00     0.021 A 
ATOM      3  C   UNL d   1     -46.772  12.558  23.329  0.00  0.00     0.035 A 
ATOM      4 BR   UNL d   1     -46.525  11.812  23.623  0.00  0.00    -0.049 Br
ATOM      5  C   UNL d   1     -46.463  13.825  22.740  0.00  0.00     0.001 A 
ATOM      6  C   UNL d   1     -46.221  13.093  23.029  0.00  0.00     0.007 A 
ATOM      7  C   UNL d   1     -47.276  14.021  22.756  0.00  0.00     0.002 A 
ENDROOT
BRANCH   2   8
ATOM      8  C   UNL d   1     -48.645  13.714  23.059  0.00  0.00     0.122 C 
BRANCH   8   9
ATOM      9  N   UNL d   1     -49.155  13.493  22.425  0.00  0.00    -0.144 NA
BRANCH   9  10
ATOM     10  N   UNL d   1     -49.978  13.579  22.499  0.00  0.00    -0.115 NA
BRANCH  10  11
ATOM     11  C   UNL d   1     -50.462  13.448  21.862  0.00  0.00     0.260 C 
ATOM     12  S   UNL d   1     -51.055  14.010  21.649  0.00  0.00    -0.034 SA
ATOM     13  N   UNL d   1     -50.385  12.775  21.418  0.00  0.00    -0.113 N 
ENDBRANCH  10  11
ENDBRANCH   9  10
ENDBRANCH   8   9
ENDBRANCH   2   8
TORSDOF 4
ENDMDL
MODEL 5
REMARK VINA RESULT:      -3.9      8.630      9.324
REMARK  4 active torsions:
REMARK  status: ('A' for Active; 'I' for Inactive)
REMARK    1  A    between atoms: N_4  and  C_1 
REMARK    2  A    between atoms: N_2  and  N_4 
REMARK    3  A    between atoms: C_6  and  N_2 
REMARK    4  A    between atoms: C_8  and  C_6 
ROOT
ATOM      1  C   UNL d   1     -39.469  14.958  20.266  0.00  0.00     0.008 A 
ATOM      2  C   UNL d   1     -40.202  15.195  19.978  0.00  0.00     0.021 A 
ATOM      3  C   UNL d   1     -39.427  14.447  20.934  0.00  0.00     0.035 A 
ATOM      4 BR   UNL d   1     -38.679  14.205  21.228  0.00  0.00    -0.049 Br
ATOM      5  C   UNL d   1     -40.855  14.424  21.004  0.00  0.00     0.001 A 
ATOM      6  C   UNL d   1     -40.122  14.187  21.293  0.00  0.00     0.007 A 
ATOM      7  C   UNL d   1     -40.888  14.933  20.341  0.00  0.00     0.002 A 
ENDROOT
BRANCH   2   8
ATOM      8  C   UNL d   1     -40.257  15.708  19.309  0.00  0.00     0.122 C 
BRANCH   8   9
ATOM      9  N   UNL d   1     -40.460  15.404  18.550  0.00  0.00    -0.144 NA
BRANCH   9  10
ATOM     10  N   UNL d   1     -40.441  15.899  17.882  0.00  0.00    -0.115 NA
BRANCH  10  11
ATOM     11  C   UNL d   1     -40.665  15.615  17.156  0.00  0.00     0.260 C 
ATOM     12  S   UNL d   1     -41.348  15.921  16.765  0.00  0.00    -0.034 SA
ATOM     13  N   UNL d   1     -40.237  15.031  16.792  0.00  0.00    -0.113 N 
ENDBRANCH  10  11
ENDBRANCH   9  10
ENDBRANCH   8   9
ENDBRANCH   2   8
TORSDOF 4
ENDMDL
MODEL 6
REMARK VINA RESULT:      -3.7      8.931      9.720
REMARK  4 active torsions:
REMARK  status: ('A' for Active; 'I' for Inactive)
REMARK    1  A    between atoms: N_4  and  C_1 
REMARK    2  A    between atoms: N_2  and  N_4 
REMARK    3  A    between atoms: C_6  and  N_2 
REMARK    4  A    between atoms: C_8  and  C_6 
ROOT
ATOM      1  C   UNL d   1     -39.577  15.151  17.804  0.00  0.00     0.008 A 
ATOM      2  C   UNL d   1     -40.212  15.478  18.212  0.00  0.00     0.021 A 
ATOM      3  C   UNL d   1     -39.640  15.007  16.977  0.00  0.00     0.035 A 
ATOM      4 BR   UNL d   1     -38.992  14.675  16.560  0.00  0.00    -0.049 Br
ATOM      5  C   UNL d   1     -40.975  15.521  16.992  0.00  0.00     0.001 A 
ATOM      6  C   UNL d   1     -40.339  15.195  16.583  0.00  0.00     0.007 A 
ATOM      7  C   UNL d   1     -40.903  15.661  17.813  0.00  0.00     0.002 A 
ENDROOT
BRANCH   2   8
ATOM      8  C   UNL d   1     -40.161  15.627  19.042  0.00  0.00     0.122 C 
BRANCH   8   9
ATOM      9  N   UNL d   1     -40.332  15.018  19.600  0.00  0.00    -0.144 NA
BRANCH   9  10
ATOM     10  N   UNL d   1     -40.275  15.170  20.415  0.00  0.00    -0.115 NA
BRANCH  10  11
ATOM     11  C   UNL d   1     -40.388  14.571  20.951  0.00  0.00     0.260 C 
ATOM     12  S   UNL d   1     -39.758  14.315  21.451  0.00  0.00    -0.034 SA
ATOM     13  N   UNL d   1     -41.110  14.208  21.016  0.00  0.00    -0.113 N 
ENDBRANCH  10  11
ENDBRANCH   9  10
ENDBRANCH   8   9
ENDBRANCH   2   8
TORSDOF 4
ENDMDL
MODEL 7
REMARK VINA RESULT:      -3.4      3.279      4.044
REMARK  4 active torsions:
REMARK  status: ('A' for Active; 'I' for Inactive)
REMARK    1  A    between atoms: N_4  and  C_1 
REMARK    2  A    between atoms: N_2  and  N_4 
REMARK    3  A    between atoms: C_6  and  N_2 
REMARK    4  A    between atoms: C_8  and  C_6 
ROOT
ATOM      1  C   UNL d   1     -47.886  12.631  22.632  0.00  0.00     0.008 A 
ATOM      2  C   UNL d   1     -47.463  12.255  23.229  0.00  0.00     0.021 A 
ATOM      3  C   UNL d   1     -48.696  12.436  22.506  0.00  0.00     0.035 A 
ATOM      4 BR   UNL d   1     -49.128  12.820  21.898  0.00  0.00    -0.049 Br
ATOM      5  C   UNL d   1     -48.633  11.493  23.580  0.00  0.00     0.001 A 
ATOM      6  C   UNL d   1     -49.057  11.869  22.983  0.00  0.00     0.007 A 
ATOM      7  C   UNL d   1     -47.830  11.692  23.698  0.00  0.00     0.002 A 
ENDROOT
BRANCH   2   8
ATOM      8  C   UNL d   1     -46.651  12.441  23.365  0.00  0.00     0.122 C 
BRANCH   8   9
ATOM      9  N   UNL d   1     -46.144  12.648  22.724  0.00  0.00    -0.144 NA
BRANCH   9  10
ATOM     10  N   UNL d   1     -45.355  12.868  22.868  0.00  0.00    -0.115 NA
BRANCH  10  11
ATOM     11  C   UNL d   1     -44.788  12.751  22.300  0.00  0.00     0.260 C 
ATOM     12  S   UNL d   1     -44.237  12.115  22.365  0.00  0.00    -0.034 SA
ATOM     13  N   UNL d   1     -44.741  13.244  21.657  0.00  0.00    -0.113 N 
ENDBRANCH  10  11
ENDBRANCH   9  10
ENDBRANCH   8   9
ENDBRANCH   2   8
TORSDOF 4
ENDMDL
