MODEL 1
REMARK VINA RESULT:      -0.1      0.000      0.000
REMARK  3 active torsions:
REMARK  status: ('A' for Active; 'I' for Inactive)
REMARK    1  A    between atoms: C_5  and  C_1 
REMARK    2  A    between atoms: N_11  and  C_9 
REMARK    3  A    between atoms: C_17  and  N_11 
ROOT
ATOM      1  C   UNL d   1     -41.846-122.549 -53.890  0.00  0.00     0.075 A 
ATOM      2  C   UNL d   1     -41.666-122.711 -53.107  0.00  0.00     0.004 A 
ATOM      3  C   UNL d   1     -41.487-122.082 -52.589  0.00  0.00     0.004 A 
ATOM      4  C   UNL d   1     -41.849-121.756 -54.170  0.00  0.00     0.046 A 
ATOM      5  C   UNL d   1     -41.676-121.145 -53.671  0.00  0.00     0.196 A 
ATOM      6  C   UNL d   1     -41.496-121.307 -52.883  0.00  0.00     0.039 A 
ATOM      7  C   UNL d   1     -41.306-122.245 -51.801  0.00  0.00     0.018 A 
ATOM      8  C   UNL d   1     -41.304-123.037 -51.526  0.00  0.00     0.081 A 
ATOM      9  C   UNL d   1     -41.663-123.476 -52.837  0.00  0.00     0.002 A 
ATOM     10  C   UNL d   1     -41.482-123.638 -52.048  0.00  0.00     0.019 A 
ATOM     11  O   UNL d   1     -41.689-120.343 -53.991  0.00  0.00    -0.287 OA
ATOM     12  C   UNL d   1     -41.313-120.659 -52.357  0.00  0.00     0.003 A 
ATOM     13  C   UNL d   1     -41.123-121.598 -51.270  0.00  0.00     0.002 A 
ATOM     14  C   UNL d   1     -41.130-120.847 -51.552  0.00  0.00     0.000 A 
ENDROOT
BRANCH   8  15
ATOM     15  N   UNL d   1     -41.123-123.200 -50.738  0.00  0.00    -0.246 NA
BRANCH  15  16
ATOM     16  C   UNL d   1     -41.729-123.406 -50.202  0.00  0.00     0.081 A 
ATOM     17  C   UNL d   1     -41.574-123.404 -49.378  0.00  0.00     0.019 A 
ATOM     18  C   UNL d   1     -42.178-123.609 -48.847  0.00  0.00     0.002 A 
ATOM     19  C   UNL d   1     -42.898-123.806 -49.115  0.00  0.00     0.000 A 
ATOM     20  C   UNL d   1     -43.072-123.815 -49.914  0.00  0.00     0.002 A 
ATOM     21  C   UNL d   1     -42.486-123.615 -50.457  0.00  0.00     0.019 A 
ENDBRANCH  15  16
ENDBRANCH   8  15
BRANCH   1  22
ATOM     22  C   UNL d   1     -42.031-123.195 -54.425  0.00  0.00     0.419 C 
ATOM     23  F   UNL d   1     -42.200-123.815 -54.942  0.00  0.00    -0.166 F 
ATOM     24  F   UNL d   1     -42.830-123.166 -54.175  0.00  0.00    -0.166 F 
ATOM     25  F   UNL d   1     -41.219-123.200 -54.657  0.00  0.00    -0.166 F 
ENDBRANCH   1  22
TORSDOF 3
ENDMDL
MODEL 2
REMARK VINA RESULT:      -0.1      2.423      4.145
REMARK  3 active torsions:
REMARK  status: ('A' for Active; 'I' for Inactive)
REMARK    1  A    between atoms: C_5  and  C_1 
REMARK    2  A    between atoms: N_11  and  C_9 
REMARK    3  A    between atoms: C_17  and  N_11 
ROOT
ATOM      1  C   UNL d   1     -43.641-122.237 -49.907  0.00  0.00     0.075 A 
ATOM      2  C   UNL d   1     -43.017-122.441 -50.397  0.00  0.00     0.004 A 
ATOM      3  C   UNL d   1     -42.392-122.903 -50.095  0.00  0.00     0.004 A 
ATOM      4  C   UNL d   1     -43.652-122.491 -49.105  0.00  0.00     0.046 A 
ATOM      5  C   UNL d   1     -43.048-122.939 -48.809  0.00  0.00     0.196 A 
ATOM      6  C   UNL d   1     -42.421-123.144 -49.303  0.00  0.00     0.039 A 
ATOM      7  C   UNL d   1     -41.764-123.108 -50.589  0.00  0.00     0.018 A 
ATOM      8  C   UNL d   1     -41.757-122.853 -51.388  0.00  0.00     0.081 A 
ATOM      9  C   UNL d   1     -43.007-122.196 -51.171  0.00  0.00     0.002 A 
ATOM     10  C   UNL d   1     -42.379-122.402 -51.665  0.00  0.00     0.019 A 
ATOM     11  O   UNL d   1     -43.091-123.182 -47.982  0.00  0.00    -0.287 OA
ATOM     12  C   UNL d   1     -41.783-123.617 -48.988  0.00  0.00     0.003 A 
ATOM     13  C   UNL d   1     -41.123-123.583 -50.277  0.00  0.00     0.002 A 
ATOM     14  C   UNL d   1     -41.148-123.818 -49.510  0.00  0.00     0.000 A 
ENDROOT
BRANCH   8  15
ATOM     15  N   UNL d   1     -41.130-123.058 -51.881  0.00  0.00    -0.246 NA
BRANCH  15  16
ATOM     16  C   UNL d   1     -41.227-123.049 -52.710  0.00  0.00     0.081 A 
ATOM     17  C   UNL d   1     -41.288-123.772 -53.130  0.00  0.00     0.019 A 
ATOM     18  C   UNL d   1     -41.384-123.760 -53.954  0.00  0.00     0.002 A 
ATOM     19  C   UNL d   1     -41.418-123.070 -54.345  0.00  0.00     0.000 A 
ATOM     20  C   UNL d   1     -41.361-122.353 -53.957  0.00  0.00     0.002 A 
ATOM     21  C   UNL d   1     -41.265-122.344 -53.138  0.00  0.00     0.019 A 
ENDBRANCH  15  16
ENDBRANCH   8  15
BRANCH   1  22
ATOM     22  C   UNL d   1     -44.287-121.761 -50.216  0.00  0.00     0.419 C 
ATOM     23  F   UNL d   1     -44.911-121.312 -50.514  0.00  0.00    -0.166 F 
ATOM     24  F   UNL d   1     -43.831-121.069 -50.085  0.00  0.00    -0.166 F 
ATOM     25  F   UNL d   1     -44.720-122.475 -50.336  0.00  0.00    -0.166 F 
ENDBRANCH   1  22
TORSDOF 3
ENDMDL
MODEL 3
REMARK VINA RESULT:       0.9      2.166      4.182
REMARK  3 active torsions:
REMARK  status: ('A' for Active; 'I' for Inactive)
REMARK    1  A    between atoms: C_5  and  C_1 
REMARK    2  A    between atoms: N_11  and  C_9 
REMARK    3  A    between atoms: C_17  and  N_11 
ROOT
ATOM      1  C   UNL d   1     -41.203-120.863 -51.444  0.00  0.00     0.075 A 
ATOM      2  C   UNL d   1     -41.298-121.357 -52.091  0.00  0.00     0.004 A 
ATOM      3  C   UNL d   1     -41.337-122.182 -51.975  0.00  0.00     0.004 A 
ATOM      4  C   UNL d   1     -41.147-121.185 -50.669  0.00  0.00     0.046 A 
ATOM      5  C   UNL d   1     -41.184-121.983 -50.553  0.00  0.00     0.196 A 
ATOM      6  C   UNL d   1     -41.279-122.480 -51.204  0.00  0.00     0.039 A 
ATOM      7  C   UNL d   1     -41.432-122.679 -52.626  0.00  0.00     0.018 A 
ATOM      8  C   UNL d   1     -41.489-122.354 -53.398  0.00  0.00     0.081 A 
ATOM      9  C   UNL d   1     -41.353-121.047 -52.839  0.00  0.00     0.002 A 
ATOM     10  C   UNL d   1     -41.448-121.544 -53.490  0.00  0.00     0.019 A 
ATOM     11  O   UNL d   1     -41.123-122.280 -49.744  0.00  0.00    -0.287 OA
ATOM     12  C   UNL d   1     -41.319-123.324 -51.079  0.00  0.00     0.003 A 
ATOM     13  C   UNL d   1     -41.473-123.526 -52.506  0.00  0.00     0.002 A 
ATOM     14  C   UNL d   1     -41.417-123.817 -51.760  0.00  0.00     0.000 A 
ENDROOT
BRANCH   8  15
ATOM     15  N   UNL d   1     -41.583-122.851 -54.048  0.00  0.00    -0.246 NA
BRANCH  15  16
ATOM     16  C   UNL d   1     -41.835-122.540 -54.781  0.00  0.00     0.081 A 
ATOM     17  C   UNL d   1     -42.642-122.599 -55.002  0.00  0.00     0.019 A 
ATOM     18  C   UNL d   1     -42.890-122.289 -55.731  0.00  0.00     0.002 A 
ATOM     19  C   UNL d   1     -42.369-121.939 -56.217  0.00  0.00     0.000 A 
ATOM     20  C   UNL d   1     -41.578-121.870 -56.022  0.00  0.00     0.002 A 
ATOM     21  C   UNL d   1     -41.313-122.171 -55.303  0.00  0.00     0.019 A 
ENDBRANCH  15  16
ENDBRANCH   8  15
BRANCH   1  22
ATOM     22  C   UNL d   1     -41.162-120.013 -51.561  0.00  0.00     0.419 C 
ATOM     23  F   UNL d   1     -41.123-119.196 -51.664  0.00  0.00    -0.166 F 
ATOM     24  F   UNL d   1     -41.203-120.131 -52.390  0.00  0.00    -0.166 F 
ATOM     25  F   UNL d   1     -41.123-119.926 -50.723  0.00  0.00    -0.166 F 
ENDBRANCH   1  22
TORSDOF 3
ENDMDL
