MODEL 1
REMARK VINA RESULT:      -5.9      0.000      0.000
REMARK  4 active torsions:
REMARK  status: ('A' for Active; 'I' for Inactive)
REMARK    1  A    between atoms: S_8  and  C_1 
REMARK    2  A    between atoms: C_2  and  S_7 
REMARK    3  A    between atoms: S_7  and  C_13 
REMARK    4  A    between atoms: C_13  and  S_8 
ROOT
ATOM      1  C   UNL d   1     -41.499-122.913 -51.671  0.00  0.00     0.128 C 
ENDROOT
BRANCH   1   2
ATOM      2  S   UNL d   1     -41.123-123.094 -52.382  0.00  0.00    -0.076 SA
BRANCH   2   3
ATOM      3  C   UNL d   1     -41.434-122.784 -53.062  0.00  0.00     0.137 A 
ATOM      4  N   UNL d   1     -42.013-122.186 -53.173  0.00  0.00    -0.232 NA
ATOM      5  C   UNL d   1     -42.121-122.087 -53.970  0.00  0.00     0.088 A 
ATOM      6  C   UNL d   1     -42.605-121.593 -54.418  0.00  0.00     0.020 A 
ATOM      7  C   UNL d   1     -41.620-122.613 -54.368  0.00  0.00     0.049 A 
ATOM      8  C   UNL d   1     -42.595-121.617 -55.225  0.00  0.00     0.002 A 
ATOM      9  C   UNL d   1     -42.108-122.129 -55.642  0.00  0.00     0.001 A 
ATOM     10  C   UNL d   1     -41.610-122.636 -55.195  0.00  0.00     0.008 A 
ATOM     11  S   UNL d   1     -41.196-123.043 -53.816  0.00  0.00    -0.060 SA
ENDBRANCH   2   3
ENDBRANCH   1   2
BRANCH   1  12
ATOM     12  S   UNL d   1     -41.125-123.089 -50.958  0.00  0.00    -0.076 SA
BRANCH  12  13
ATOM     13  C   UNL d   1     -41.535-123.178 -50.248  0.00  0.00     0.137 A 
ATOM     14  N   UNL d   1     -42.318-123.302 -50.182  0.00  0.00    -0.232 NA
ATOM     15  C   UNL d   1     -42.483-123.357 -49.386  0.00  0.00     0.088 A 
ATOM     16  C   UNL d   1     -43.161-123.477 -48.960  0.00  0.00     0.020 A 
ATOM     17  C   UNL d   1     -41.768-123.260 -48.988  0.00  0.00     0.049 A 
ATOM     18  C   UNL d   1     -43.160-123.507 -48.134  0.00  0.00     0.002 A 
ATOM     19  C   UNL d   1     -42.424-123.407 -47.724  0.00  0.00     0.001 A 
ATOM     20  C   UNL d   1     -41.731-123.284 -48.164  0.00  0.00     0.008 A 
ATOM     21  S   UNL d   1     -41.174-123.147 -49.545  0.00  0.00    -0.060 SA
ENDBRANCH  12  13
ENDBRANCH   1  12
TORSDOF 4
ENDMDL
MODEL 2
REMARK VINA RESULT:      -4.2      0.832      5.314
REMARK  4 active torsions:
REMARK  status: ('A' for Active; 'I' for Inactive)
REMARK    1  A    between atoms: S_8  and  C_1 
REMARK    2  A    between atoms: C_2  and  S_7 
REMARK    3  A    between atoms: S_7  and  C_13 
REMARK    4  A    between atoms: C_13  and  S_8 
ROOT
ATOM      1  C   UNL d   1     -41.337-122.562 -50.974  0.00  0.00     0.128 C 
ENDROOT
BRANCH   1   2
ATOM      2  S   UNL d   1     -41.164-122.309 -50.209  0.00  0.00    -0.076 SA
BRANCH   2   3
ATOM      3  C   UNL d   1     -41.584-122.638 -49.599  0.00  0.00     0.137 A 
ATOM      4  N   UNL d   1     -42.395-122.853 -49.550  0.00  0.00    -0.232 NA
ATOM      5  C   UNL d   1     -42.528-123.161 -48.813  0.00  0.00     0.088 A 
ATOM      6  C   UNL d   1     -43.196-123.463 -48.437  0.00  0.00     0.020 A 
ATOM      7  C   UNL d   1     -41.814-123.146 -48.392  0.00  0.00     0.049 A 
ATOM      8  C   UNL d   1     -43.163-123.738 -47.679  0.00  0.00     0.002 A 
ATOM      9  C   UNL d   1     -42.469-123.734 -47.242  0.00  0.00     0.001 A 
ATOM     10  C   UNL d   1     -41.781-123.428 -47.615  0.00  0.00     0.008 A 
ATOM     11  S   UNL d   1     -41.232-122.826 -48.870  0.00  0.00    -0.060 SA
ENDBRANCH   2   3
ENDBRANCH   1   2
BRANCH   1  12
ATOM     12  S   UNL d   1     -41.188-122.059 -51.610  0.00  0.00    -0.076 SA
BRANCH  12  13
ATOM     13  C   UNL d   1     -41.339-122.272 -52.392  0.00  0.00     0.137 A 
ATOM     14  N   UNL d   1     -41.123-122.958 -52.732  0.00  0.00    -0.232 NA
ATOM     15  C   UNL d   1     -41.383-122.933 -53.503  0.00  0.00     0.088 A 
ATOM     16  C   UNL d   1     -41.340-123.447 -54.128  0.00  0.00     0.020 A 
ATOM     17  C   UNL d   1     -41.759-122.207 -53.603  0.00  0.00     0.049 A 
ATOM     18  C   UNL d   1     -41.664-123.267 -54.867  0.00  0.00     0.002 A 
ATOM     19  C   UNL d   1     -42.051-122.519 -54.970  0.00  0.00     0.001 A 
ATOM     20  C   UNL d   1     -42.093-121.995 -54.328  0.00  0.00     0.008 A 
ATOM     21  S   UNL d   1     -41.725-121.796 -52.892  0.00  0.00    -0.060 SA
ENDBRANCH  12  13
ENDBRANCH   1  12
TORSDOF 4
ENDMDL
