MODEL 1
REMARK VINA RESULT:      97.9      0.000      0.000
REMARK  5 active torsions:
REMARK  status: ('A' for Active; 'I' for Inactive)
REMARK    1  A    between atoms: C_10  and  C_3 
REMARK    2  A    between atoms: N_9  and  C_4 
REMARK    3  A    between atoms: C_16  and  N_12 
REMARK    4  A    between atoms: O_21  and  C_15 
REMARK    5  A    between atoms: C_20  and  C_16 
ROOT
ATOM      1  N   UNL d   1     -48.602  28.326  34.939  0.00  0.00    -0.196 N 
ATOM      2  C   UNL d   1     -48.250  28.804  35.508  0.00  0.00     0.167 A 
ATOM      3  C   UNL d   1     -47.691  29.311  35.307  0.00  0.00     0.057 A 
ATOM      4  C   UNL d   1     -49.176  27.813  35.178  0.00  0.00     0.152 A 
ATOM      5  N   UNL d   1     -47.802  28.900  33.981  0.00  0.00    -0.163 NA
ATOM      6  C   UNL d   1     -47.460  29.363  34.533  0.00  0.00     0.104 A 
ATOM      7  N   UNL d   1     -48.493  28.739  36.283  0.00  0.00    -0.227 NA
ATOM      8  C   UNL d   1     -49.407  27.757  35.932  0.00  0.00     0.057 A 
ATOM      9  C   UNL d   1     -49.060  28.227  36.493  0.00  0.00     0.086 A 
ATOM     10  C   UNL d   1     -46.867  29.899  34.311  0.00  0.00     0.023 C 
ATOM     11  C   UNL d   1     -49.303  28.167  37.288  0.00  0.00     0.021 C 
ENDROOT
BRANCH   4  12
ATOM     12  N   UNL d   1     -49.536  27.326  34.597  0.00  0.00    -0.286 N 
ATOM     13  C   UNL d   1     -50.307  27.237  34.873  0.00  0.00     0.101 A 
ATOM     14  C   UNL d   1     -50.856  26.781  34.443  0.00  0.00     0.100 A 
ATOM     15  N   UNL d   1     -50.638  26.408  33.732  0.00  0.00    -0.300 N 
ATOM     16  C   UNL d   1     -49.856  26.497  33.450  0.00  0.00     0.100 A 
ATOM     17  C   UNL d   1     -49.297  26.956  33.878  0.00  0.00     0.101 A 
BRANCH  15  18
ATOM     18  C   UNL d   1     -51.200  25.950  33.307  0.00  0.00     0.080 C 
BRANCH  18  19
ATOM     19  C   UNL d   1     -51.333  25.154  33.533  0.00  0.00     0.018 A 
ATOM     20  C   UNL d   1     -50.791  24.564  33.309  0.00  0.00     0.002 A 
ATOM     21  C   UNL d   1     -50.924  23.769  33.535  0.00  0.00     0.000 A 
ATOM     22  C   UNL d   1     -51.596  23.582  33.979  0.00  0.00     0.000 A 
ATOM     23  C   UNL d   1     -52.140  24.176  34.204  0.00  0.00     0.000 A 
ATOM     24  C   UNL d   1     -52.001  24.961  33.976  0.00  0.00     0.002 A 
ENDBRANCH  18  19
ENDBRANCH  15  18
ENDBRANCH   4  12
BRANCH   3  25
ATOM     25  C   UNL d   1     -47.346  29.779  35.865  0.00  0.00     0.027 A 
ATOM     26  C   UNL d   1     -47.464  30.579  35.855  0.00  0.00     0.094 A 
ATOM     27  C   UNL d   1     -47.121  31.044  36.410  0.00  0.00     0.024 A 
ATOM     28  C   UNL d   1     -46.659  30.710  36.975  0.00  0.00     0.002 A 
ATOM     29  C   UNL d   1     -46.546  29.919  36.979  0.00  0.00     0.000 A 
ATOM     30  C   UNL d   1     -46.884  29.461  36.434  0.00  0.00     0.002 A 
BRANCH  26  31
ATOM     31  O   UNL d   1     -47.946  30.917  35.264  0.00  0.00    -0.328 OA
ATOM     32  C   UNL d   1     -48.173  31.722  35.322  0.00  0.00     0.181 C 
ENDBRANCH  26  31
ENDBRANCH   3  25
TORSDOF 5
ENDMDL
MODEL 2
REMARK VINA RESULT:      98.2      1.209      1.885
REMARK  5 active torsions:
REMARK  status: ('A' for Active; 'I' for Inactive)
REMARK    1  A    between atoms: C_10  and  C_3 
REMARK    2  A    between atoms: N_9  and  C_4 
REMARK    3  A    between atoms: C_16  and  N_12 
REMARK    4  A    between atoms: O_21  and  C_15 
REMARK    5  A    between atoms: C_20  and  C_16 
ROOT
ATOM      1  N   UNL d   1     -48.381  29.809  34.397  0.00  0.00    -0.196 N 
ATOM      2  C   UNL d   1     -47.960  30.357  34.842  0.00  0.00     0.167 A 
ATOM      3  C   UNL d   1     -47.759  31.046  34.532  0.00  0.00     0.057 A 
ATOM      4  C   UNL d   1     -48.573  29.107  34.745  0.00  0.00     0.152 A 
ATOM      5  N   UNL d   1     -48.379  30.684  33.338  0.00  0.00    -0.163 NA
ATOM      6  C   UNL d   1     -47.970  31.216  33.770  0.00  0.00     0.104 A 
ATOM      7  N   UNL d   1     -47.756  30.171  35.607  0.00  0.00    -0.227 NA
ATOM      8  C   UNL d   1     -48.371  28.934  35.488  0.00  0.00     0.057 A 
ATOM      9  C   UNL d   1     -47.956  29.474  35.926  0.00  0.00     0.086 A 
ATOM     10  C   UNL d   1     -47.762  31.946  33.433  0.00  0.00     0.023 C 
ATOM     11  C   UNL d   1     -47.743  29.291  36.712  0.00  0.00     0.021 C 
ENDROOT
BRANCH   4  12
ATOM     12  N   UNL d   1     -49.003  28.548  34.291  0.00  0.00    -0.286 N 
ATOM     13  C   UNL d   1     -48.771  27.824  34.610  0.00  0.00     0.101 A 
ATOM     14  C   UNL d   1     -49.081  27.113  34.305  0.00  0.00     0.100 A 
ATOM     15  N   UNL d   1     -49.627  27.119  33.677  0.00  0.00    -0.300 N 
ATOM     16  C   UNL d   1     -49.864  27.852  33.352  0.00  0.00     0.100 A 
ATOM     17  C   UNL d   1     -49.556  28.573  33.654  0.00  0.00     0.101 A 
BRANCH  15  18
ATOM     18  C   UNL d   1     -49.933  26.395  33.378  0.00  0.00     0.080 C 
BRANCH  18  19
ATOM     19  C   UNL d   1     -50.750  26.232  33.461  0.00  0.00     0.018 A 
ATOM     20  C   UNL d   1     -51.309  26.833  33.321  0.00  0.00     0.002 A 
ATOM     21  C   UNL d   1     -52.126  26.669  33.403  0.00  0.00     0.000 A 
ATOM     22  C   UNL d   1     -52.366  25.910  33.624  0.00  0.00     0.000 A 
ATOM     23  C   UNL d   1     -51.804  25.307  33.764  0.00  0.00     0.000 A 
ATOM     24  C   UNL d   1     -50.997  25.477  33.680  0.00  0.00     0.002 A 
ENDBRANCH  18  19
ENDBRANCH  15  18
ENDBRANCH   4  12
BRANCH   3  25
ATOM     25  C   UNL d   1     -47.347  31.583  34.967  0.00  0.00     0.027 A 
ATOM     26  C   UNL d   1     -47.650  32.322  35.098  0.00  0.00     0.094 A 
ATOM     27  C   UNL d   1     -47.239  32.856  35.531  0.00  0.00     0.024 A 
ATOM     28  C   UNL d   1     -46.525  32.653  35.835  0.00  0.00     0.002 A 
ATOM     29  C   UNL d   1     -46.230  31.922  35.703  0.00  0.00     0.000 A 
ATOM     30  C   UNL d   1     -46.634  31.396  35.277  0.00  0.00     0.002 A 
BRANCH  26  31
ATOM     31  O   UNL d   1     -48.393  32.524  34.777  0.00  0.00    -0.328 OA
ATOM     32  C   UNL d   1     -48.648  33.323  34.788  0.00  0.00     0.181 C 
ENDBRANCH  26  31
ENDBRANCH   3  25
TORSDOF 5
ENDMDL
