MODEL 1
REMARK VINA RESULT:      -8.6      0.000      0.000
REMARK  4 active torsions:
REMARK  status: ('A' for Active; 'I' for Inactive)
REMARK    1  A    between atoms: C_2  and  N_1 
REMARK    2  A    between atoms: N_7  and  C_3 
REMARK    3  A    between atoms: C_12  and  N_7 
REMARK    4  A    between atoms: C_14  and  C_12 
ROOT
ATOM      1  C   UNL d   1      53.200  33.901  54.215  0.00  0.00     0.200 A 
ATOM      2  C   UNL d   1      53.620  33.184  54.275  0.00  0.00     0.189 A 
ATOM      3  C   UNL d   1      53.479  34.557  54.609  0.00  0.00     0.210 A 
ATOM      4  N   UNL d   1      54.309  33.141  54.726  0.00  0.00    -0.203 NA
ATOM      5  N   UNL d   1      54.155  34.531  55.057  0.00  0.00    -0.202 NA
ATOM      6  C   UNL d   1      54.575  33.813  55.116  0.00  0.00     0.202 A 
ATOM      7  N   UNL d   1      53.059  35.275  54.549  0.00  0.00    -0.125 N 
ENDROOT
BRANCH   2   8
ATOM      8  N   UNL d   1      53.357  32.514  53.888  0.00  0.00    -0.224 NA
BRANCH   8   9
ATOM      9  C   UNL d   1      53.829  31.849  53.839  0.00  0.00     0.101 C 
BRANCH   9  10
ATOM     10  C   UNL d   1      53.502  31.122  53.616  0.00  0.00     0.019 A 
ATOM     11  C   UNL d   1      53.184  31.028  52.880  0.00  0.00     0.004 A 
ATOM     12  C   UNL d   1      52.855  30.296  52.658  0.00  0.00     0.030 A 
ATOM     13  C   UNL d   1      52.857  29.669  53.194  0.00  0.00     0.140 A 
ATOM     14  C   UNL d   1      53.175  29.762  53.931  0.00  0.00     0.030 A 
ATOM     15  F   UNL d   1      52.531  28.949  52.969  0.00  0.00    -0.204 F 
ATOM     16  C   UNL d   1      53.502  30.486  54.154  0.00  0.00     0.004 A 
ENDBRANCH   9  10
ENDBRANCH   8   9
ENDBRANCH   2   8
BRANCH   1  17
ATOM     17  N   UNL d   1      52.516  33.949  53.769  0.00  0.00    -0.107 N 
ATOM     18  O   UNL d   1      52.564  34.205  52.999  0.00  0.00    -0.531 OA
ATOM     19  O   UNL d   1      51.795  33.739  54.097  0.00  0.00    -0.531 OA
ENDBRANCH   1  17
TORSDOF 4
ENDMDL
MODEL 2
REMARK VINA RESULT:      -8.3      2.433      3.343
REMARK  4 active torsions:
REMARK  status: ('A' for Active; 'I' for Inactive)
REMARK    1  A    between atoms: C_2  and  N_1 
REMARK    2  A    between atoms: N_7  and  C_3 
REMARK    3  A    between atoms: C_12  and  N_7 
REMARK    4  A    between atoms: C_14  and  C_12 
ROOT
ATOM      1  C   UNL d   1      53.894  33.832  54.484  0.00  0.00     0.200 A 
ATOM      2  C   UNL d   1      53.419  33.428  53.930  0.00  0.00     0.189 A 
ATOM      3  C   UNL d   1      54.603  33.502  54.710  0.00  0.00     0.210 A 
ATOM      4  N   UNL d   1      53.666  32.706  53.618  0.00  0.00    -0.203 NA
ATOM      5  N   UNL d   1      54.859  32.793  54.412  0.00  0.00    -0.202 NA
ATOM      6  C   UNL d   1      54.384  32.390  53.858  0.00  0.00     0.202 A 
ATOM      7  N   UNL d   1      55.078  33.906  55.264  0.00  0.00    -0.125 N 
ENDROOT
BRANCH   2   8
ATOM      8  N   UNL d   1      52.703  33.741  53.689  0.00  0.00    -0.224 NA
BRANCH   8   9
ATOM      9  C   UNL d   1      52.231  33.339  53.157  0.00  0.00     0.101 C 
BRANCH   9  10
ATOM     10  C   UNL d   1      51.525  33.678  52.889  0.00  0.00     0.019 A 
ATOM     11  C   UNL d   1      50.854  33.625  53.336  0.00  0.00     0.004 A 
ATOM     12  C   UNL d   1      50.144  33.966  53.065  0.00  0.00     0.030 A 
ATOM     13  C   UNL d   1      50.132  34.357  52.338  0.00  0.00     0.140 A 
ATOM     14  C   UNL d   1      50.803  34.411  51.892  0.00  0.00     0.030 A 
ATOM     15  F   UNL d   1      49.429  34.692  52.076  0.00  0.00    -0.204 F 
ATOM     16  C   UNL d   1      51.507  34.074  52.157  0.00  0.00     0.004 A 
ENDBRANCH   9  10
ENDBRANCH   8   9
ENDBRANCH   2   8
BRANCH   1  17
ATOM     17  N   UNL d   1      53.653  34.548  54.796  0.00  0.00    -0.107 N 
ATOM     18  O   UNL d   1      53.251  34.556  55.502  0.00  0.00    -0.531 OA
ATOM     19  O   UNL d   1      53.818  35.246  54.399  0.00  0.00    -0.531 OA
ENDBRANCH   1  17
TORSDOF 4
ENDMDL
MODEL 3
REMARK VINA RESULT:      -8.1      2.780      3.772
REMARK  4 active torsions:
REMARK  status: ('A' for Active; 'I' for Inactive)
REMARK    1  A    between atoms: C_2  and  N_1 
REMARK    2  A    between atoms: N_7  and  C_3 
REMARK    3  A    between atoms: C_12  and  N_7 
REMARK    4  A    between atoms: C_14  and  C_12 
ROOT
ATOM      1  C   UNL d   1      53.116  31.944  53.328  0.00  0.00     0.200 A 
ATOM      2  C   UNL d   1      52.899  32.749  53.339  0.00  0.00     0.189 A 
ATOM      3  C   UNL d   1      53.797  31.713  53.711  0.00  0.00     0.210 A 
ATOM      4  N   UNL d   1      53.368  33.301  53.732  0.00  0.00    -0.203 NA
ATOM      5  N   UNL d   1      54.269  32.245  54.101  0.00  0.00    -0.202 NA
ATOM      6  C   UNL d   1      54.052  33.050  54.112  0.00  0.00     0.202 A 
ATOM      7  N   UNL d   1      54.014  30.908  53.700  0.00  0.00    -0.125 N 
ENDROOT
BRANCH   2   8
ATOM      8  N   UNL d   1      52.220  33.002  52.962  0.00  0.00    -0.224 NA
BRANCH   8   9
ATOM      9  C   UNL d   1      52.009  33.791  52.969  0.00  0.00     0.101 C 
BRANCH   9  10
ATOM     10  C   UNL d   1      51.283  34.031  52.652  0.00  0.00     0.019 A 
ATOM     11  C   UNL d   1      51.202  34.132  51.854  0.00  0.00     0.004 A 
ATOM     12  C   UNL d   1      50.471  34.373  51.536  0.00  0.00     0.030 A 
ATOM     13  C   UNL d   1      49.832  34.507  52.040  0.00  0.00     0.140 A 
ATOM     14  C   UNL d   1      49.912  34.406  52.838  0.00  0.00     0.030 A 
ATOM     15  F   UNL d   1      49.113  34.745  51.721  0.00  0.00    -0.204 F 
ATOM     16  C   UNL d   1      50.635  34.167  53.156  0.00  0.00     0.004 A 
ENDBRANCH   9  10
ENDBRANCH   8   9
ENDBRANCH   2   8
BRANCH   1  17
ATOM     17  N   UNL d   1      52.654  31.392  52.940  0.00  0.00    -0.107 N 
ATOM     18  O   UNL d   1      52.814  31.220  52.163  0.00  0.00    -0.531 OA
ATOM     19  O   UNL d   1      52.038  31.021  53.334  0.00  0.00    -0.531 OA
ENDBRANCH   1  17
TORSDOF 4
ENDMDL
MODEL 4
REMARK VINA RESULT:      -7.1      2.412      3.418
REMARK  4 active torsions:
REMARK  status: ('A' for Active; 'I' for Inactive)
REMARK    1  A    between atoms: C_2  and  N_1 
REMARK    2  A    between atoms: N_7  and  C_3 
REMARK    3  A    between atoms: C_12  and  N_7 
REMARK    4  A    between atoms: C_14  and  C_12 
ROOT
ATOM      1  C   UNL d   1      51.454  33.913  53.022  0.00  0.00     0.200 A 
ATOM      2  C   UNL d   1      51.939  33.329  53.367  0.00  0.00     0.189 A 
ATOM      3  C   UNL d   1      50.694  33.717  52.804  0.00  0.00     0.210 A 
ATOM      4  N   UNL d   1      51.652  32.565  53.484  0.00  0.00    -0.203 NA
ATOM      5  N   UNL d   1      50.397  32.971  52.913  0.00  0.00    -0.202 NA
ATOM      6  C   UNL d   1      50.883  32.387  53.258  0.00  0.00     0.202 A 
ATOM      7  N   UNL d   1      50.209  34.301  52.459  0.00  0.00    -0.125 N 
ENDROOT
BRANCH   2   8
ATOM      8  N   UNL d   1      52.704  33.505  53.593  0.00  0.00    -0.224 NA
BRANCH   8   9
ATOM      9  C   UNL d   1      53.163  32.948  53.977  0.00  0.00     0.101 C 
BRANCH   9  10
ATOM     10  C   UNL d   1      53.862  33.176  54.357  0.00  0.00     0.019 A 
ATOM     11  C   UNL d   1      54.568  33.138  53.965  0.00  0.00     0.004 A 
ATOM     12  C   UNL d   1      55.271  33.368  54.348  0.00  0.00     0.030 A 
ATOM     13  C   UNL d   1      55.241  33.633  55.129  0.00  0.00     0.140 A 
ATOM     14  C   UNL d   1      54.536  33.671  55.521  0.00  0.00     0.030 A 
ATOM     15  F   UNL d   1      55.938  33.858  55.502  0.00  0.00    -0.204 F 
ATOM     16  C   UNL d   1      53.838  33.444  55.145  0.00  0.00     0.004 A 
ENDBRANCH   9  10
ENDBRANCH   8   9
ENDBRANCH   2   8
BRANCH   1  17
ATOM     17  N   UNL d   1      51.734  34.672  52.904  0.00  0.00    -0.107 N 
ATOM     18  O   UNL d   1      51.597  35.237  53.471  0.00  0.00    -0.531 OA
ATOM     19  O   UNL d   1      52.148  34.856  52.220  0.00  0.00    -0.531 OA
ENDBRANCH   1  17
TORSDOF 4
ENDMDL
