MODEL 1
REMARK VINA RESULT:       4.5      0.000      0.000
REMARK  1 active torsions:
REMARK  status: ('A' for Active; 'I' for Inactive)
REMARK    1  A    between atoms: C_11  and  C_9 
ROOT
ATOM      1  C   UNL d   1     -50.886  26.284  33.307  0.00  0.00     0.215 A 
ATOM      2  N   UNL d   1     -50.390  25.631  33.308  0.00  0.00    -0.219 NA
ATOM      3  S   UNL d   1     -51.662  26.020  33.306  0.00  0.00    -0.045 SA
ATOM      4  C   UNL d   1     -51.647  25.191  33.307  0.00  0.00     0.050 A 
ATOM      5  C   UNL d   1     -50.862  24.951  33.308  0.00  0.00     0.090 A 
ATOM      6  C   UNL d   1     -52.254  24.632  33.307  0.00  0.00     0.008 A 
ATOM      7  N   UNL d   1     -50.643  27.078  33.306  0.00  0.00    -0.120 N 
ATOM      8  C   UNL d   1     -50.671  24.148  33.309  0.00  0.00     0.020 A 
ATOM      9  C   UNL d   1     -52.058  23.844  33.308  0.00  0.00     0.001 A 
ATOM     10  C   UNL d   1     -51.269  23.603  33.309  0.00  0.00     0.002 A 
ENDROOT
BRANCH   9  11
ATOM     11  C   UNL d   1     -52.662  23.279  33.308  0.00  0.00     0.000 C 
ATOM     12  C   UNL d   1     -53.446  23.519  33.310  0.00  0.00     0.000 C 
ENDBRANCH   9  11
TORSDOF 1
ENDMDL
