MODEL 1
REMARK VINA RESULT:      -7.4      0.000      0.000
REMARK  5 active torsions:
REMARK  status: ('A' for Active; 'I' for Inactive)
REMARK    1  A    between atoms: C_11  and  N_3 
REMARK    2  A    between atoms: C_10  and  C_4 
REMARK    3  A    between atoms: C_15  and  C_11 
REMARK    4  A    between atoms: N_13  and  C_16 
REMARK    5  A    between atoms: C_16  and  C_15 
ROOT
ATOM      1  C   UNL d   1     -48.956  13.008  23.194  0.00  0.00     0.137 A 
ATOM      2  N   UNL d   1     -49.643  13.412  22.943  0.00  0.00    -0.259 N 
ATOM      3  N   UNL d   1     -48.327  13.539  23.129  0.00  0.00    -0.287 N 
ATOM      4  C   UNL d   1     -49.005  12.227  23.442  0.00  0.00     0.054 A 
ATOM      5  C   UNL d   1     -50.374  13.019  22.945  0.00  0.00     0.266 A 
ATOM      6  C   UNL d   1     -49.432  14.180  22.728  0.00  0.00     0.084 A 
ATOM      7  C   UNL d   1     -48.607  14.259  22.844  0.00  0.00     0.082 A 
ATOM      8  C   UNL d   1     -49.731  11.835  23.445  0.00  0.00     0.009 A 
ATOM      9  C   UNL d   1     -50.422  12.226  23.197  0.00  0.00     0.061 A 
ATOM     10  O   UNL d   1     -51.059  13.414  22.697  0.00  0.00    -0.267 OA
ATOM     11  C   UNL d   1     -49.866  14.818  22.443  0.00  0.00     0.019 A 
ATOM     12  C   UNL d   1     -49.780  11.046  23.695  0.00  0.00     0.000 C 
ATOM     13  C   UNL d   1     -48.249  14.974  22.672  0.00  0.00     0.019 A 
ATOM     14  C   UNL d   1     -49.490  15.527  22.276  0.00  0.00     0.002 A 
ATOM     15  C   UNL d   1     -48.673  15.606  22.391  0.00  0.00     0.002 A 
ENDROOT
BRANCH   3  16
ATOM     16  C   UNL d   1     -47.516  13.625  23.241  0.00  0.00     0.125 C 
BRANCH  16  17
ATOM     17  C   UNL d   1     -46.988  13.210  22.762  0.00  0.00     0.231 C 
ATOM     18  O   UNL d   1     -47.136  13.125  21.955  0.00  0.00    -0.283 OA
BRANCH  17  19
ATOM     19  C   UNL d   1     -46.308  12.879  23.090  0.00  0.00     0.124 C 
BRANCH  19  20
ATOM     20  N   UNL d   1     -45.607  12.863  22.659  0.00  0.00    -0.300 N 
ATOM     21  C   UNL d   1     -45.163  12.169  22.631  0.00  0.00     0.080 A 
ATOM     22  C   UNL d   1     -44.458  12.146  22.200  0.00  0.00     0.019 A 
ATOM     23  C   UNL d   1     -44.200  12.820  21.797  0.00  0.00     0.003 A 
ATOM     24  C   UNL d   1     -44.645  13.513  21.825  0.00  0.00     0.019 A 
ATOM     25  C   UNL d   1     -43.501  12.804  21.367  0.00  0.00     0.000 C 
ATOM     26  C   UNL d   1     -45.350  13.537  22.255  0.00  0.00     0.080 A 
ENDBRANCH  19  20
ENDBRANCH  17  19
ENDBRANCH  16  17
ENDBRANCH   3  16
BRANCH   4  27
ATOM     27  C   UNL d   1     -48.331  11.831  23.689  0.00  0.00     0.125 C 
ATOM     28  N   UNL d   1     -48.297  11.008  23.696  0.00  0.00    -0.146 N 
ENDBRANCH   4  27
TORSDOF 5
ENDMDL
MODEL 2
REMARK VINA RESULT:      -7.2      0.637      2.333
REMARK  5 active torsions:
REMARK  status: ('A' for Active; 'I' for Inactive)
REMARK    1  A    between atoms: C_11  and  N_3 
REMARK    2  A    between atoms: C_10  and  C_4 
REMARK    3  A    between atoms: C_15  and  C_11 
REMARK    4  A    between atoms: N_13  and  C_16 
REMARK    5  A    between atoms: C_16  and  C_15 
ROOT
ATOM      1  C   UNL d   1     -48.957  13.681  23.051  0.00  0.00     0.137 A 
ATOM      2  N   UNL d   1     -49.634  13.193  23.090  0.00  0.00    -0.259 N 
ATOM      3  N   UNL d   1     -48.306  13.206  23.231  0.00  0.00    -0.287 N 
ATOM      4  C   UNL d   1     -49.033  14.475  22.860  0.00  0.00     0.054 A 
ATOM      5  C   UNL d   1     -50.382  13.515  22.934  0.00  0.00     0.266 A 
ATOM      6  C   UNL d   1     -49.395  12.429  23.292  0.00  0.00     0.084 A 
ATOM      7  C   UNL d   1     -48.563  12.437  23.380  0.00  0.00     0.082 A 
ATOM      8  C   UNL d   1     -49.777  14.797  22.705  0.00  0.00     0.009 A 
ATOM      9  C   UNL d   1     -50.458  14.322  22.740  0.00  0.00     0.061 A 
ATOM     10  O   UNL d   1     -51.058  13.036  22.971  0.00  0.00    -0.267 OA
ATOM     11  C   UNL d   1     -49.809  11.728  23.408  0.00  0.00     0.019 A 
ATOM     12  C   UNL d   1     -49.853  15.600  22.511  0.00  0.00     0.000 C 
ATOM     13  C   UNL d   1     -48.178  11.744  23.582  0.00  0.00     0.019 A 
ATOM     14  C   UNL d   1     -49.407  11.043  23.610  0.00  0.00     0.002 A 
ATOM     15  C   UNL d   1     -48.583  11.051  23.697  0.00  0.00     0.002 A 
ENDROOT
BRANCH   3  16
ATOM     16  C   UNL d   1     -47.488  13.206  23.320  0.00  0.00     0.125 C 
BRANCH  16  17
ATOM     17  C   UNL d   1     -47.002  13.290  22.658  0.00  0.00     0.231 C 
ATOM     18  O   UNL d   1     -47.236  12.986  21.928  0.00  0.00    -0.283 OA
BRANCH  17  19
ATOM     19  C   UNL d   1     -46.278  13.678  22.726  0.00  0.00     0.124 C 
BRANCH  19  20
ATOM     20  N   UNL d   1     -45.588  13.314  22.464  0.00  0.00    -0.300 N 
ATOM     21  C   UNL d   1     -45.345  12.607  22.811  0.00  0.00     0.080 A 
ATOM     22  C   UNL d   1     -44.653  12.236  22.553  0.00  0.00     0.019 A 
ATOM     23  C   UNL d   1     -44.206  12.575  21.947  0.00  0.00     0.003 A 
ATOM     24  C   UNL d   1     -44.449  13.282  21.600  0.00  0.00     0.019 A 
ATOM     25  C   UNL d   1     -43.517  12.212  21.685  0.00  0.00     0.000 C 
ATOM     26  C   UNL d   1     -45.141  13.654  21.858  0.00  0.00     0.080 A 
ENDBRANCH  19  20
ENDBRANCH  17  19
ENDBRANCH  16  17
ENDBRANCH   3  16
BRANCH   4  27
ATOM     27  C   UNL d   1     -48.369  14.955  22.821  0.00  0.00     0.125 C 
ATOM     28  N   UNL d   1     -48.425  15.745  22.597  0.00  0.00    -0.146 N 
ENDBRANCH   4  27
TORSDOF 5
ENDMDL
MODEL 3
REMARK VINA RESULT:      -6.8      1.303      1.758
REMARK  5 active torsions:
REMARK  status: ('A' for Active; 'I' for Inactive)
REMARK    1  A    between atoms: C_11  and  N_3 
REMARK    2  A    between atoms: C_10  and  C_4 
REMARK    3  A    between atoms: C_15  and  C_11 
REMARK    4  A    between atoms: N_13  and  C_16 
REMARK    5  A    between atoms: C_16  and  C_15 
ROOT
ATOM      1  C   UNL d   1     -48.517  12.901  23.105  0.00  0.00     0.137 A 
ATOM      2  N   UNL d   1     -48.745  13.587  22.687  0.00  0.00    -0.259 N 
ATOM      3  N   UNL d   1     -47.715  12.983  23.284  0.00  0.00    -0.287 N 
ATOM      4  C   UNL d   1     -49.066  12.310  23.258  0.00  0.00     0.054 A 
ATOM      5  C   UNL d   1     -49.529  13.668  22.429  0.00  0.00     0.266 A 
ATOM      6  C   UNL d   1     -48.088  14.080  22.614  0.00  0.00     0.084 A 
ATOM      7  C   UNL d   1     -47.442  13.701  22.988  0.00  0.00     0.082 A 
ATOM      8  C   UNL d   1     -49.846  12.391  23.002  0.00  0.00     0.009 A 
ATOM      9  C   UNL d   1     -50.085  13.069  22.585  0.00  0.00     0.061 A 
ATOM     10  O   UNL d   1     -49.762  14.348  22.014  0.00  0.00    -0.267 OA
ATOM     11  C   UNL d   1     -47.979  14.816  22.264  0.00  0.00     0.019 A 
ATOM     12  C   UNL d   1     -50.401  11.793  23.157  0.00  0.00     0.000 C 
ATOM     13  C   UNL d   1     -46.714  14.074  22.997  0.00  0.00     0.019 A 
ATOM     14  C   UNL d   1     -47.242  15.175  22.282  0.00  0.00     0.002 A 
ATOM     15  C   UNL d   1     -46.603  14.799  22.653  0.00  0.00     0.002 A 
ENDROOT
BRANCH   3  16
ATOM     16  C   UNL d   1     -47.076  12.616  23.650  0.00  0.00     0.125 C 
BRANCH  16  17
ATOM     17  C   UNL d   1     -46.677  12.004  23.267  0.00  0.00     0.231 C 
ATOM     18  O   UNL d   1     -46.525  12.049  22.457  0.00  0.00    -0.283 OA
BRANCH  17  19
ATOM     19  C   UNL d   1     -46.428  11.344  23.693  0.00  0.00     0.124 C 
BRANCH  19  20
ATOM     20  N   UNL d   1     -45.669  11.045  23.586  0.00  0.00    -0.300 N 
ATOM     21  C   UNL d   1     -45.529  10.241  23.698  0.00  0.00     0.080 A 
ATOM     22  C   UNL d   1     -44.769   9.934  23.592  0.00  0.00     0.019 A 
ATOM     23  C   UNL d   1     -44.150  10.436  23.375  0.00  0.00     0.003 A 
ATOM     24  C   UNL d   1     -44.289  11.240  23.263  0.00  0.00     0.019 A 
ATOM     25  C   UNL d   1     -43.391  10.138  23.268  0.00  0.00     0.000 C 
ATOM     26  C   UNL d   1     -45.050  11.548  23.368  0.00  0.00     0.080 A 
ENDBRANCH  19  20
ENDBRANCH  17  19
ENDBRANCH  16  17
ENDBRANCH   3  16
BRANCH   4  27
ATOM     27  C   UNL d   1     -48.842  11.637  23.668  0.00  0.00     0.125 C 
ATOM     28  N   UNL d   1     -49.328  10.972  23.695  0.00  0.00    -0.146 N 
ENDBRANCH   4  27
TORSDOF 5
ENDMDL
MODEL 4
REMARK VINA RESULT:      -4.5      7.853     11.029
REMARK  5 active torsions:
REMARK  status: ('A' for Active; 'I' for Inactive)
REMARK    1  A    between atoms: C_11  and  N_3 
REMARK    2  A    between atoms: C_10  and  C_4 
REMARK    3  A    between atoms: C_15  and  C_11 
REMARK    4  A    between atoms: N_13  and  C_16 
REMARK    5  A    between atoms: C_16  and  C_15 
ROOT
ATOM      1  C   UNL d   1     -38.067  13.735  17.552  0.00  0.00     0.137 A 
ATOM      2  N   UNL d   1     -38.015  13.064  17.056  0.00  0.00    -0.259 N 
ATOM      3  N   UNL d   1     -38.079  13.459  18.330  0.00  0.00    -0.287 N 
ATOM      4  C   UNL d   1     -38.094  14.487  17.225  0.00  0.00     0.054 A 
ATOM      5  C   UNL d   1     -37.992  13.163  16.233  0.00  0.00     0.266 A 
ATOM      6  C   UNL d   1     -37.996  12.389  17.529  0.00  0.00     0.084 A 
ATOM      7  C   UNL d   1     -38.036  12.636  18.328  0.00  0.00     0.082 A 
ATOM      8  C   UNL d   1     -38.071  14.587  16.406  0.00  0.00     0.009 A 
ATOM      9  C   UNL d   1     -38.020  13.927  15.902  0.00  0.00     0.061 A 
ATOM     10  O   UNL d   1     -37.941  12.502  15.735  0.00  0.00    -0.267 OA
ATOM     11  C   UNL d   1     -37.949  11.586  17.355  0.00  0.00     0.019 A 
ATOM     12  C   UNL d   1     -38.100  15.348  16.076  0.00  0.00     0.000 C 
ATOM     13  C   UNL d   1     -38.027  12.071  18.919  0.00  0.00     0.019 A 
ATOM     14  C   UNL d   1     -37.941  11.034  17.960  0.00  0.00     0.002 A 
ATOM     15  C   UNL d   1     -37.980  11.280  18.751  0.00  0.00     0.002 A 
ENDROOT
BRANCH   3  16
ATOM     16  C   UNL d   1     -38.118  13.695  19.117  0.00  0.00     0.125 C 
BRANCH  16  17
ATOM     17  C   UNL d   1     -38.850  13.844  19.467  0.00  0.00     0.231 C 
ATOM     18  O   UNL d   1     -39.547  13.629  19.082  0.00  0.00    -0.283 OA
BRANCH  17  19
ATOM     19  C   UNL d   1     -38.887  14.211  20.204  0.00  0.00     0.124 C 
BRANCH  19  20
ATOM     20  N   UNL d   1     -39.559  14.635  20.421  0.00  0.00    -0.300 N 
ATOM     21  C   UNL d   1     -39.585  15.449  20.295  0.00  0.00     0.080 A 
ATOM     22  C   UNL d   1     -40.256  15.880  20.510  0.00  0.00     0.019 A 
ATOM     23  C   UNL d   1     -40.901  15.493  20.853  0.00  0.00     0.003 A 
ATOM     24  C   UNL d   1     -40.875  14.679  20.979  0.00  0.00     0.019 A 
ATOM     25  C   UNL d   1     -41.571  15.916  21.070  0.00  0.00     0.000 C 
ATOM     26  C   UNL d   1     -40.204  14.247  20.763  0.00  0.00     0.080 A 
ENDBRANCH  19  20
ENDBRANCH  17  19
ENDBRANCH  16  17
ENDBRANCH   3  16
BRANCH   4  27
ATOM     27  C   UNL d   1     -38.145  15.145  17.711  0.00  0.00     0.125 C 
ATOM     28  N   UNL d   1     -37.983  15.900  17.426  0.00  0.00    -0.146 N 
ENDBRANCH   4  27
TORSDOF 5
ENDMDL
