MODEL 1
REMARK VINA RESULT:      32.6      0.000      0.000
REMARK  5 active torsions:
REMARK  status: ('A' for Active; 'I' for Inactive)
REMARK    1  A    between atoms: C_11  and  N_1 
REMARK    2  A    between atoms: C_2  and  S_13 
REMARK       I    between atoms: C_12  and  N_14 
REMARK    3  A    between atoms: C_18  and  C_12 
REMARK    4  A    between atoms: S_13  and  C_18 
REMARK    5  A    between atoms: N_14  and  C_19 
ROOT
ATOM      1  C   UNL d   1      15.028  12.555  -0.282  0.00  0.00     0.286 C 
ATOM      2  N   UNL d   1      15.541  13.145  -0.015  0.00  0.00    -0.208 NA
ATOM      3  O   UNL d   1      15.120  11.779  -0.017  0.00  0.00    -0.265 OA
ENDROOT
BRANCH   1   4
ATOM      4  C   UNL d   1      14.422  12.747  -0.816  0.00  0.00     0.101 C 
BRANCH   4   5
ATOM      5  S   UNL d   1      14.051  12.142  -1.244  0.00  0.00    -0.037 SA
BRANCH   5   6
ATOM      6  C   UNL d   1      13.824  12.283  -2.035  0.00  0.00     0.215 A 
ATOM      7  N   UNL d   1      13.970  11.779  -2.677  0.00  0.00    -0.214 NA
ATOM      8  C   UNL d   1      13.652  12.131  -3.354  0.00  0.00     0.107 A 
ATOM      9  C   UNL d   1      13.632  11.887  -4.139  0.00  0.00     0.021 A 
ATOM     10  C   UNL d   1      13.313  12.843  -3.131  0.00  0.00     0.120 A 
ATOM     11  C   UNL d   1      13.268  12.363  -4.707  0.00  0.00     0.002 A 
ATOM     12  C   UNL d   1      12.925  13.082  -4.486  0.00  0.00     0.002 A 
ATOM     13  C   UNL d   1      12.948  13.324  -3.693  0.00  0.00     0.026 A 
ATOM     14  O   UNL d   1      13.415  12.945  -2.317  0.00  0.00    -0.283 OA
ENDBRANCH   5   6
ENDBRANCH   4   5
ENDBRANCH   1   4
BRANCH   2  15
ATOM     15  C   UNL d   1      15.452  13.918  -0.276  0.00  0.00     0.085 A 
ATOM     16  C   UNL d   1      16.117  14.340  -0.561  0.00  0.00     0.021 A 
ATOM     17  C   UNL d   1      16.029  15.105  -0.819  0.00  0.00     0.021 A 
ATOM     18  C   UNL d   1      15.290  15.478  -0.807  0.00  0.00     0.086 A 
ATOM     19  C   UNL d   1      14.637  15.060  -0.526  0.00  0.00     0.021 A 
ATOM     20  C   UNL d   1      14.719  14.279  -0.261  0.00  0.00     0.021 A 
BRANCH  18  21
ATOM     21  N   UNL d   1      15.201  16.251  -1.068  0.00  0.00    -0.189 N 
ATOM     22  N   UNL d   1      15.516  16.927  -0.716  0.00  0.00    -0.038 NA
ATOM     23  N   UNL d   1      15.286  17.576  -1.166  0.00  0.00    -0.022 NA
ATOM     24  N   UNL d   1      14.831  17.311  -1.796  0.00  0.00    -0.104 NA
ATOM     25  C   UNL d   1      14.778  16.488  -1.735  0.00  0.00     0.226 A 
ENDBRANCH  18  21
ENDBRANCH   2  15
TORSDOF 5
ENDMDL
