MODEL 1
REMARK VINA RESULT:      58.9      0.000      0.000
REMARK  3 active torsions:
REMARK  status: ('A' for Active; 'I' for Inactive)
REMARK    1  A    between atoms: C_11  and  N_3 
REMARK    2  A    between atoms: C_10  and  N_6 
REMARK    3  A    between atoms: C_9  and  C_7 
ROOT
ATOM      1  C   UNL d   1      46.112 -16.500  43.419  0.00  0.00     0.106 A 
ATOM      2  C   UNL d   1      45.829 -16.736  44.175  0.00  0.00     0.186 A 
ATOM      3  N   UNL d   1      46.194 -17.851  43.499  0.00  0.00    -0.240 N 
ATOM      4  C   UNL d   1      45.891 -17.569  44.195  0.00  0.00     0.292 A 
ATOM      5  C   UNL d   1      46.333 -17.173  43.010  0.00  0.00     0.271 A 
ATOM      6  N   UNL d   1      45.739 -15.414  44.120  0.00  0.00    -0.211 N 
ATOM      7  C   UNL d   1      46.052 -15.682  43.396  0.00  0.00     0.117 A 
ATOM      8  O   UNL d   1      45.608 -16.082  44.586  0.00  0.00    -0.223 OA
ATOM      9  O   UNL d   1      46.643 -17.213  42.246  0.00  0.00    -0.266 OA
ATOM     10  O   UNL d   1      45.668 -18.046  44.852  0.00  0.00    -0.264 OA
ENDROOT
BRANCH   6  11
ATOM     11  C   UNL d   1      45.588 -14.631  44.331  0.00  0.00     0.088 A 
ATOM     12  C   UNL d   1      44.825 -14.318  44.203  0.00  0.00     0.021 A 
ATOM     13  C   UNL d   1      44.654 -13.535  44.408  0.00  0.00     0.013 A 
ATOM     14  C   UNL d   1      45.255 -13.049  44.748  0.00  0.00     0.058 A 
ATOM     15  C   UNL d   1      46.019 -13.372  44.872  0.00  0.00     0.013 A 
ATOM     16 CL   UNL d   1      45.106 -12.282  44.954  0.00  0.00    -0.082 Cl
ATOM     17  C   UNL d   1      46.171 -14.155  44.662  0.00  0.00     0.021 A 
ENDBRANCH   6  11
BRANCH   7  18
ATOM     18  C   UNL d   1      46.266 -15.205  42.761  0.00  0.00     0.118 A 
ATOM     19  O   UNL d   1      46.473 -15.433  41.993  0.00  0.00    -0.304 OA
ATOM     20  C   UNL d   1      46.644 -14.755  41.552  0.00  0.00     0.123 A 
ATOM     21  C   UNL d   1      46.536 -14.107  42.074  0.00  0.00     0.029 A 
ATOM     22  C   UNL d   1      46.310 -14.393  42.790  0.00  0.00     0.028 A 
ENDBRANCH   7  18
BRANCH   3  23
ATOM     23  C   UNL d   1      46.292 -18.663  43.428  0.00  0.00     0.070 A 
ATOM     24  C   UNL d   1      46.184 -19.050  42.702  0.00  0.00     0.018 A 
ATOM     25  C   UNL d   1      46.285 -19.866  42.647  0.00  0.00     0.002 A 
ATOM     26  C   UNL d   1      46.489 -20.306  43.286  0.00  0.00     0.000 A 
ATOM     27  C   UNL d   1      46.601 -19.919  44.031  0.00  0.00     0.002 A 
ATOM     28  C   UNL d   1      46.505 -19.114  44.103  0.00  0.00     0.018 A 
ENDBRANCH   3  23
TORSDOF 3
ENDMDL
