MODEL 1
REMARK VINA RESULT:      -0.3      0.000      0.000
REMARK  5 active torsions:
REMARK  status: ('A' for Active; 'I' for Inactive)
REMARK    1  A    between atoms: N_2  and  S_1 
REMARK    2  A    between atoms: C_3  and  S_1 
REMARK    3  A    between atoms: C_15  and  C_11 
REMARK    4  A    between atoms: O_17  and  C_12 
REMARK    5  A    between atoms: C_21  and  O_17 
ROOT
ATOM      1  C   UNL d   1     -42.215-122.759 -49.843  0.00  0.00     0.128 A 
ATOM      2  C   UNL d   1     -41.705-122.918 -49.216  0.00  0.00     0.015 A 
ATOM      3  C   UNL d   1     -41.990-122.919 -48.442  0.00  0.00     0.001 A 
ATOM      4  C   UNL d   1     -43.009-122.603 -49.696  0.00  0.00     0.112 A 
ATOM      5  C   UNL d   1     -42.786-122.762 -48.295  0.00  0.00     0.002 A 
ATOM      6  C   UNL d   1     -43.295-122.604 -48.922  0.00  0.00     0.025 A 
ENDROOT
BRANCH   1   7
ATOM      7  S   UNL d   1     -41.930-122.758 -50.617  0.00  0.00     0.288 S 
ATOM      8  O   UNL d   1     -42.233-123.517 -50.730  0.00  0.00    -0.198 OA
ATOM      9  O   UNL d   1     -41.626-121.999 -50.504  0.00  0.00    -0.198 OA
BRANCH   7  10
ATOM     10  N   UNL d   1     -41.644-122.756 -51.391  0.00  0.00    -0.152 N 
ATOM     11  N   UNL d   1     -41.608-123.403 -51.898  0.00  0.00    -0.155 NA
ATOM     12  C   UNL d   1     -41.287-123.158 -52.615  0.00  0.00     0.104 A 
ATOM     13  C   UNL d   1     -41.154-123.632 -53.277  0.00  0.00     0.022 C 
ATOM     14  C   UNL d   1     -41.123-122.352 -52.553  0.00  0.00     0.041 A 
ATOM     15  C   UNL d   1     -41.343-122.105 -51.798  0.00  0.00     0.096 A 
ATOM     16  C   UNL d   1     -41.274-121.339 -51.500  0.00  0.00     0.022 C 
ENDBRANCH   7  10
ENDBRANCH   1   7
BRANCH   4  17
ATOM     17  O   UNL d   1     -43.523-122.443 -50.324  0.00  0.00    -0.304 OA
BRANCH  17  18
ATOM     18  C   UNL d   1     -44.326-122.328 -50.182  0.00  0.00     0.123 C 
ATOM     19  C   UNL d   1     -44.769-121.829 -50.675  0.00  0.00     0.029 C 
ENDBRANCH  17  18
ENDBRANCH   4  17
BRANCH   3  20
ATOM     20  C   UNL d   1     -41.482-123.077 -47.815  0.00  0.00     0.000 C 
ATOM     21  C   UNL d   1     -41.327-122.491 -47.246  0.00  0.00     0.000 C 
ATOM     22  C   UNL d   1     -41.123-123.817 -47.749  0.00  0.00     0.000 C 
ENDBRANCH   3  20
TORSDOF 5
ENDMDL
MODEL 2
REMARK VINA RESULT:       0.4      1.149      4.089
REMARK  5 active torsions:
REMARK  status: ('A' for Active; 'I' for Inactive)
REMARK    1  A    between atoms: N_2  and  S_1 
REMARK    2  A    between atoms: C_3  and  S_1 
REMARK    3  A    between atoms: C_15  and  C_11 
REMARK    4  A    between atoms: O_17  and  C_12 
REMARK    5  A    between atoms: C_21  and  O_17 
ROOT
ATOM      1  C   UNL d   1     -41.641-122.352 -52.211  0.00  0.00     0.128 A 
ATOM      2  C   UNL d   1     -41.825-122.853 -52.837  0.00  0.00     0.015 A 
ATOM      3  C   UNL d   1     -41.703-122.605 -53.615  0.00  0.00     0.001 A 
ATOM      4  C   UNL d   1     -41.335-121.603 -52.361  0.00  0.00     0.112 A 
ATOM      5  C   UNL d   1     -41.396-121.856 -53.766  0.00  0.00     0.002 A 
ATOM      6  C   UNL d   1     -41.212-121.355 -53.138  0.00  0.00     0.025 A 
ENDROOT
BRANCH   1   7
ATOM      7  S   UNL d   1     -41.764-122.599 -51.434  0.00  0.00     0.288 S 
ATOM      8  O   UNL d   1     -42.405-122.084 -51.371  0.00  0.00    -0.198 OA
ATOM      9  O   UNL d   1     -41.123-123.115 -51.497  0.00  0.00    -0.198 OA
BRANCH   7  10
ATOM     10  N   UNL d   1     -41.886-122.847 -50.657  0.00  0.00    -0.152 N 
ATOM     11  N   UNL d   1     -41.305-123.066 -50.118  0.00  0.00    -0.155 NA
ATOM     12  C   UNL d   1     -41.668-123.275 -49.409  0.00  0.00     0.104 A 
ATOM     13  C   UNL d   1     -41.287-123.528 -48.722  0.00  0.00     0.022 C 
ATOM     14  C   UNL d   1     -42.482-123.184 -49.509  0.00  0.00     0.041 A 
ATOM     15  C   UNL d   1     -42.616-122.921 -50.278  0.00  0.00     0.096 A 
ATOM     16  C   UNL d   1     -43.352-122.758 -50.612  0.00  0.00     0.022 C 
ENDBRANCH   7  10
ENDBRANCH   1   7
BRANCH   4  17
ATOM     17  O   UNL d   1     -41.149-121.098 -51.733  0.00  0.00    -0.304 OA
BRANCH  17  18
ATOM     18  C   UNL d   1     -41.122-120.283 -51.853  0.00  0.00     0.123 C 
ATOM     19  C   UNL d   1     -41.140-119.766 -51.205  0.00  0.00     0.029 C 
ENDBRANCH  17  18
ENDBRANCH   4  17
BRANCH   3  20
ATOM     20  C   UNL d   1     -41.886-123.106 -54.242  0.00  0.00     0.000 C 
ATOM     21  C   UNL d   1     -41.469-123.817 -54.343  0.00  0.00     0.000 C 
ATOM     22  C   UNL d   1     -42.485-122.903 -54.772  0.00  0.00     0.000 C 
ENDBRANCH   3  20
TORSDOF 5
ENDMDL
