MODEL 1
REMARK VINA RESULT:      49.4      0.000      0.000
REMARK  7 active torsions:
REMARK  status: ('A' for Active; 'I' for Inactive)
REMARK    1  A    between atoms: C_4  and  N_1 
REMARK       I    between atoms: C_2  and  N_6 
REMARK    2  A    between atoms: C_3  and  C_2 
REMARK    3  A    between atoms: C_5  and  C_3 
REMARK    4  A    between atoms: C_12  and  C_5 
REMARK    5  A    between atoms: N_6  and  C_11 
REMARK    6  A    between atoms: O_22  and  C_13 
REMARK    7  A    between atoms: C_25  and  O_22 
ROOT
ATOM      1  C   UNL d   1      13.650  14.682  -5.499  0.00  0.00     0.328 C 
ATOM      2  N   UNL d   1      13.713  15.495  -5.592  0.00  0.00    -0.365 NA
ATOM      3  O   UNL d   1      13.876  14.176  -6.110  0.00  0.00    -0.251 OA
ENDROOT
BRANCH   1   4
ATOM      4  C   UNL d   1      13.360  14.368  -4.795  0.00  0.00     0.076 C 
BRANCH   4   5
ATOM      5  C   UNL d   1      13.116  13.579  -4.764  0.00  0.00     0.006 C 
BRANCH   5   6
ATOM      6  C   UNL d   1      13.290  13.124  -4.095  0.00  0.00     0.000 A 
ATOM      7  C   UNL d   1      13.298  13.483  -3.345  0.00  0.00     0.002 A 
ATOM      8  C   UNL d   1      13.471  13.036  -2.676  0.00  0.00     0.025 A 
ATOM      9  C   UNL d   1      13.636  12.227  -2.747  0.00  0.00     0.100 A 
ATOM     10  C   UNL d   1      13.629  11.868  -3.487  0.00  0.00     0.025 A 
ATOM     11  C   UNL d   1      13.456  12.315  -4.166  0.00  0.00     0.002 A 
BRANCH   9  12
ATOM     12  O   UNL d   1      13.809  11.780  -2.076  0.00  0.00    -0.305 OA
BRANCH  12  13
ATOM     13  C   UNL d   1      14.075  12.154  -1.393  0.00  0.00     0.123 C 
ATOM     14  C   UNL d   1      14.623  11.779  -0.903  0.00  0.00     0.029 C 
ENDBRANCH  12  13
ENDBRANCH   9  12
ENDBRANCH   5   6
ENDBRANCH   4   5
ENDBRANCH   1   4
BRANCH   2  15
ATOM     15  C   UNL d   1      13.780  16.313  -5.693  0.00  0.00     0.135 A 
ATOM     16  C   UNL d   1      13.362  16.698  -6.297  0.00  0.00     0.034 A 
ATOM     17  C   UNL d   1      13.438  17.515  -6.386  0.00  0.00     0.020 A 
ATOM     18  C   UNL d   1      13.924  17.946  -5.878  0.00  0.00     0.064 A 
ATOM     19  C   UNL d   1      14.338  17.562  -5.279  0.00  0.00     0.020 A 
ATOM     20  C   UNL d   1      14.265  16.747  -5.186  0.00  0.00     0.034 A 
BRANCH  18  21
ATOM     21  N   UNL d   1      13.997  18.761  -5.970  0.00  0.00    -0.300 N 
ATOM     22  C   UNL d   1      13.343  19.211  -6.193  0.00  0.00     0.107 A 
ATOM     23  C   UNL d   1      13.412  20.023  -6.286  0.00  0.00     0.142 A 
ATOM     24  O   UNL d   1      14.141  20.391  -6.154  0.00  0.00    -0.300 OA
ATOM     25  C   UNL d   1      14.795  19.941  -5.931  0.00  0.00     0.142 A 
ATOM     26  C   UNL d   1      14.727  19.123  -5.837  0.00  0.00     0.107 A 
ENDBRANCH  18  21
ENDBRANCH   2  15
TORSDOF 7
ENDMDL
MODEL 2
REMARK VINA RESULT:      51.3      1.367      6.402
REMARK  7 active torsions:
REMARK  status: ('A' for Active; 'I' for Inactive)
REMARK    1  A    between atoms: C_4  and  N_1 
REMARK       I    between atoms: C_2  and  N_6 
REMARK    2  A    between atoms: C_3  and  C_2 
REMARK    3  A    between atoms: C_5  and  C_3 
REMARK    4  A    between atoms: C_12  and  C_5 
REMARK    5  A    between atoms: N_6  and  C_11 
REMARK    6  A    between atoms: O_22  and  C_13 
REMARK    7  A    between atoms: C_25  and  O_22 
ROOT
ATOM      1  C   UNL d   1      13.502  14.277  -5.140  0.00  0.00     0.328 C 
ATOM      2  N   UNL d   1      13.636  13.922  -4.412  0.00  0.00    -0.365 NA
ATOM      3  O   UNL d   1      13.334  13.815  -5.802  0.00  0.00    -0.251 OA
ENDROOT
BRANCH   1   4
ATOM      4  C   UNL d   1      13.535  15.097  -5.211  0.00  0.00     0.076 C 
BRANCH   4   5
ATOM      5  C   UNL d   1      13.282  15.461  -5.909  0.00  0.00     0.006 C 
BRANCH   5   6
ATOM      6  C   UNL d   1      13.438  16.266  -6.028  0.00  0.00     0.000 A 
ATOM      7  C   UNL d   1      12.811  16.785  -6.196  0.00  0.00     0.002 A 
ATOM      8  C   UNL d   1      12.960  17.586  -6.315  0.00  0.00     0.025 A 
ATOM      9  C   UNL d   1      13.735  17.877  -6.269  0.00  0.00     0.100 A 
ATOM     10  C   UNL d   1      14.358  17.366  -6.103  0.00  0.00     0.025 A 
ATOM     11  C   UNL d   1      14.213  16.557  -5.982  0.00  0.00     0.002 A 
BRANCH   9  12
ATOM     12  O   UNL d   1      13.883  18.678  -6.388  0.00  0.00    -0.305 OA
BRANCH  12  13
ATOM     13  C   UNL d   1      13.687  19.222  -5.802  0.00  0.00     0.123 C 
ATOM     14  C   UNL d   1      13.989  19.990  -5.833  0.00  0.00     0.029 C 
ENDBRANCH  12  13
ENDBRANCH   9  12
ENDBRANCH   5   6
ENDBRANCH   4   5
ENDBRANCH   1   4
BRANCH   2  15
ATOM     15  C   UNL d   1      13.770  13.557  -3.683  0.00  0.00     0.135 A 
ATOM     16  C   UNL d   1      13.494  12.788  -3.539  0.00  0.00     0.034 A 
ATOM     17  C   UNL d   1      13.635  12.436  -2.806  0.00  0.00     0.020 A 
ATOM     18  C   UNL d   1      14.047  12.845  -2.220  0.00  0.00     0.064 A 
ATOM     19  C   UNL d   1      14.320  13.608  -2.364  0.00  0.00     0.020 A 
ATOM     20  C   UNL d   1      14.181  13.963  -3.094  0.00  0.00     0.034 A 
BRANCH  18  21
ATOM     21  N   UNL d   1      14.185  12.490  -1.490  0.00  0.00    -0.300 N 
ATOM     22  C   UNL d   1      13.564  12.135  -1.079  0.00  0.00     0.107 A 
ATOM     23  C   UNL d   1      13.698  11.780  -0.353  0.00  0.00     0.142 A 
ATOM     24  O   UNL d   1      14.460  11.780  -0.030  0.00  0.00    -0.300 OA
ATOM     25  C   UNL d   1      15.081  12.135  -0.440  0.00  0.00     0.142 A 
ATOM     26  C   UNL d   1      14.947  12.492  -1.173  0.00  0.00     0.107 A 
ENDBRANCH  18  21
ENDBRANCH   2  15
TORSDOF 7
ENDMDL
