MODEL 1
REMARK VINA RESULT:      15.7      0.000      0.000
REMARK  1 active torsions:
REMARK  status: ('A' for Active; 'I' for Inactive)
REMARK    1  A    between atoms: N_11  and  C_7 
ROOT
ATOM      1  C   UNL d   1     -54.711-102.326 -38.881  0.00  0.00     0.201 A 
ATOM      2  C   UNL d   1     -54.712-101.572 -38.539  0.00  0.00     0.141 A 
ATOM      3  N   UNL d   1     -54.711-102.406 -39.701  0.00  0.00    -0.036 NA
ATOM      4  C   UNL d   1     -54.712-101.658 -37.719  0.00  0.00     0.040 A 
ATOM      5  N   UNL d   1     -54.711-102.880 -38.270  0.00  0.00    -0.225 NA
ATOM      6  N   UNL d   1     -54.712-100.893 -39.019  0.00  0.00    -0.129 NA
ATOM      7  C   UNL d   1     -54.712-101.733 -40.185  0.00  0.00     0.788 A 
ATOM      8  C   UNL d   1     -54.712-102.465 -37.553  0.00  0.00     0.085 A 
ATOM      9  N   UNL d   1     -54.712-100.982 -39.842  0.00  0.00     0.048 NA
ATOM     10  C   UNL d   1     -54.713-101.110 -37.105  0.00  0.00     0.003 A 
ATOM     11  C   UNL d   1     -54.712-102.732 -36.771  0.00  0.00     0.019 A 
ATOM     12  C   UNL d   1     -54.713-101.370 -36.325  0.00  0.00     0.000 A 
ATOM     13  C   UNL d   1     -54.712-102.185 -36.158  0.00  0.00     0.002 A 
ATOM     14  C   UNL d   1     -54.713-100.821 -35.700  0.00  0.00     0.000 C 
ENDROOT
BRANCH   7  15
ATOM     15  N   UNL d   1     -54.711-101.822 -41.007  0.00  0.00     0.069 NA
ATOM     16  N   UNL d   1     -54.716-102.535 -41.420  0.00  0.00    -0.006 N 
ENDBRANCH   7  15
TORSDOF 1
ENDMDL
