MODEL 1
REMARK VINA RESULT:      -1.9      0.000      0.000
REMARK  6 active torsions:
REMARK  status: ('A' for Active; 'I' for Inactive)
REMARK    1  A    between atoms: C_4  and  N_1 
REMARK    2  A    between atoms: C_3  and  C_2 
REMARK    3  A    between atoms: S_6  and  C_11 
REMARK    4  A    between atoms: C_7  and  S_6 
REMARK    5  A    between atoms: C_8  and  C_10 
REMARK    6  A    between atoms: C_11  and  C_8 
ROOT
ATOM      1  C   UNL d   1      57.097  -0.660  31.448  0.00  0.00     0.202 C 
ATOM      2  O   UNL d   1      56.991  -1.429  31.150  0.00  0.00    -0.286 OA
ENDROOT
BRANCH   1   3
ATOM      3  C   UNL d   1      56.621  -0.392  32.070  0.00  0.00     0.040 A 
ATOM      4  C   UNL d   1      56.494   0.417  32.174  0.00  0.00     0.005 A 
ATOM      5  C   UNL d   1      56.018   0.660  32.798  0.00  0.00     0.024 A 
ATOM      6  C   UNL d   1      55.667   0.114  33.317  0.00  0.00     0.127 A 
ATOM      7  C   UNL d   1      55.800  -0.690  33.204  0.00  0.00     0.024 A 
ATOM      8  C   UNL d   1      56.277  -0.928  32.580  0.00  0.00     0.005 A 
BRANCH   6   9
ATOM      9  N   UNL d   1      55.178   0.362  33.959  0.00  0.00    -0.114 N 
ATOM     10  O   UNL d   1      55.486   0.341  34.723  0.00  0.00    -0.532 OA
ATOM     11  O   UNL d   1      54.395   0.620  33.802  0.00  0.00    -0.532 OA
ENDBRANCH   6   9
ENDBRANCH   1   3
BRANCH   1  12
ATOM     12  C   UNL d   1      57.666  -0.170  31.132  0.00  0.00     0.077 C 
BRANCH  12  13
ATOM     13  S   UNL d   1      58.051  -0.370  30.420  0.00  0.00    -0.083 SA
BRANCH  13  14
ATOM     14  C   UNL d   1      58.793  -0.014  30.214  0.00  0.00     0.035 A 
ATOM     15  C   UNL d   1      59.019  -0.002  29.424  0.00  0.00     0.070 A 
ATOM     16  C   UNL d   1      59.751   0.350  29.221  0.00  0.00     0.007 A 
ATOM     17  C   UNL d   1      60.237   0.682  29.813  0.00  0.00     0.000 A 
ATOM     18  C   UNL d   1      59.991   0.659  30.591  0.00  0.00     0.001 A 
ATOM     19  C   UNL d   1      59.269   0.311  30.792  0.00  0.00     0.007 A 
BRANCH  15  20
ATOM     20  C   UNL d   1      58.528  -0.338  28.818  0.00  0.00     0.211 C 
ATOM     21  O   UNL d   1      57.945   0.134  28.455  0.00  0.00    -0.644 OA
ATOM     22  O   UNL d   1      58.620  -1.126  28.585  0.00  0.00    -0.644 OA
ENDBRANCH  15  20
ENDBRANCH  13  14
ENDBRANCH  12  13
ENDBRANCH   1  12
TORSDOF 6
ENDMDL
MODEL 2
REMARK VINA RESULT:      -0.5      1.982      5.269
REMARK  6 active torsions:
REMARK  status: ('A' for Active; 'I' for Inactive)
REMARK    1  A    between atoms: C_4  and  N_1 
REMARK    2  A    between atoms: C_3  and  C_2 
REMARK    3  A    between atoms: S_6  and  C_11 
REMARK    4  A    between atoms: C_7  and  S_6 
REMARK    5  A    between atoms: C_8  and  C_10 
REMARK    6  A    between atoms: C_11  and  C_8 
ROOT
ATOM      1  C   UNL d   1      56.233  -0.730  32.522  0.00  0.00     0.202 C 
ATOM      2  O   UNL d   1      56.216  -1.512  32.806  0.00  0.00    -0.286 OA
ENDROOT
BRANCH   1   3
ATOM      3  C   UNL d   1      56.760  -0.524  31.919  0.00  0.00     0.040 A 
ATOM      4  C   UNL d   1      57.148  -1.113  31.489  0.00  0.00     0.005 A 
ATOM      5  C   UNL d   1      57.666  -0.884  30.895  0.00  0.00     0.024 A 
ATOM      6  C   UNL d   1      57.806  -0.084  30.721  0.00  0.00     0.127 A 
ATOM      7  C   UNL d   1      57.414   0.496  31.155  0.00  0.00     0.024 A 
ATOM      8  C   UNL d   1      56.897   0.263  31.749  0.00  0.00     0.005 A 
BRANCH   6   9
ATOM      9  N   UNL d   1      58.339   0.153  30.110  0.00  0.00    -0.114 N 
ATOM     10  O   UNL d   1      58.061   0.188  29.335  0.00  0.00    -0.532 OA
ATOM     11  O   UNL d   1      59.131   0.346  30.309  0.00  0.00    -0.532 OA
ENDBRANCH   6   9
ENDBRANCH   1   3
BRANCH   1  12
ATOM     12  C   UNL d   1      55.734  -0.168  32.836  0.00  0.00     0.077 C 
BRANCH  12  13
ATOM     13  S   UNL d   1      55.723  -0.019  33.656  0.00  0.00    -0.083 SA
BRANCH  13  14
ATOM     14  C   UNL d   1      55.007   0.218  34.043  0.00  0.00     0.035 A 
ATOM     15  C   UNL d   1      55.041   0.447  34.832  0.00  0.00     0.070 A 
ATOM     16  C   UNL d   1      54.334   0.682  35.214  0.00  0.00     0.007 A 
ATOM     17  C   UNL d   1      53.610   0.682  34.797  0.00  0.00     0.000 A 
ATOM     18  C   UNL d   1      53.601   0.450  34.014  0.00  0.00     0.001 A 
ATOM     19  C   UNL d   1      54.299   0.219  33.637  0.00  0.00     0.007 A 
BRANCH  15  20
ATOM     20  C   UNL d   1      55.775   0.449  35.260  0.00  0.00     0.211 C 
ATOM     21  O   UNL d   1      55.774   0.275  36.075  0.00  0.00    -0.644 OA
ATOM     22  O   UNL d   1      56.488   0.621  34.879  0.00  0.00    -0.644 OA
ENDBRANCH  15  20
ENDBRANCH  13  14
ENDBRANCH  12  13
ENDBRANCH   1  12
TORSDOF 6
ENDMDL
MODEL 3
REMARK VINA RESULT:      -0.3      2.217      4.859
REMARK  6 active torsions:
REMARK  status: ('A' for Active; 'I' for Inactive)
REMARK    1  A    between atoms: C_4  and  N_1 
REMARK    2  A    between atoms: C_3  and  C_2 
REMARK    3  A    between atoms: S_6  and  C_11 
REMARK    4  A    between atoms: C_7  and  S_6 
REMARK    5  A    between atoms: C_8  and  C_10 
REMARK    6  A    between atoms: C_11  and  C_8 
ROOT
ATOM      1  C   UNL d   1      57.836  -0.423  30.363  0.00  0.00     0.202 C 
ATOM      2  O   UNL d   1      57.234  -0.037  29.938  0.00  0.00    -0.286 OA
ENDROOT
BRANCH   1   3
ATOM      3  C   UNL d   1      58.414  -0.853  29.957  0.00  0.00     0.040 A 
ATOM      4  C   UNL d   1      58.878  -1.405  30.359  0.00  0.00     0.005 A 
ATOM      5  C   UNL d   1      59.446  -1.820  29.935  0.00  0.00     0.024 A 
ATOM      6  C   UNL d   1      59.560  -1.696  29.121  0.00  0.00     0.127 A 
ATOM      7  C   UNL d   1      59.093  -1.143  28.730  0.00  0.00     0.024 A 
ATOM      8  C   UNL d   1      58.527  -0.731  29.158  0.00  0.00     0.005 A 
BRANCH   6   9
ATOM      9  N   UNL d   1      60.143  -2.122  28.684  0.00  0.00    -0.114 N 
ATOM     10  O   UNL d   1      60.831  -1.730  28.455  0.00  0.00    -0.532 OA
ATOM     11  O   UNL d   1      60.007  -2.928  28.495  0.00  0.00    -0.532 OA
ENDBRANCH   6   9
ENDBRANCH   1   3
BRANCH   1  12
ATOM     12  C   UNL d   1      57.859  -0.378  31.176  0.00  0.00     0.077 C 
BRANCH  12  13
ATOM     13  S   UNL d   1      57.185  -0.563  31.631  0.00  0.00    -0.083 SA
BRANCH  13  14
ATOM     14  C   UNL d   1      57.116  -0.294  32.432  0.00  0.00     0.035 A 
ATOM     15  C   UNL d   1      56.518  -0.604  32.903  0.00  0.00     0.070 A 
ATOM     16  C   UNL d   1      56.451  -0.338  33.694  0.00  0.00     0.007 A 
ATOM     17  C   UNL d   1      56.983   0.231  33.994  0.00  0.00     0.000 A 
ATOM     18  C   UNL d   1      57.570   0.524  33.507  0.00  0.00     0.001 A 
ATOM     19  C   UNL d   1      57.636   0.262  32.727  0.00  0.00     0.007 A 
BRANCH  15  20
ATOM     20  C   UNL d   1      55.974  -1.183  32.602  0.00  0.00     0.211 C 
ATOM     21  O   UNL d   1      56.194  -1.986  32.592  0.00  0.00    -0.644 OA
ATOM     22  O   UNL d   1      55.229  -0.959  32.320  0.00  0.00    -0.644 OA
ENDBRANCH  15  20
ENDBRANCH  13  14
ENDBRANCH  12  13
ENDBRANCH   1  12
TORSDOF 6
ENDMDL
MODEL 4
REMARK VINA RESULT:       0.6      2.031      4.808
REMARK  6 active torsions:
REMARK  status: ('A' for Active; 'I' for Inactive)
REMARK    1  A    between atoms: C_4  and  N_1 
REMARK    2  A    between atoms: C_3  and  C_2 
REMARK    3  A    between atoms: S_6  and  C_11 
REMARK    4  A    between atoms: C_7  and  S_6 
REMARK    5  A    between atoms: C_8  and  C_10 
REMARK    6  A    between atoms: C_11  and  C_8 
ROOT
ATOM      1  C   UNL d   1      57.564   0.259  30.807  0.00  0.00     0.202 C 
ATOM      2  O   UNL d   1      56.854   0.480  30.436  0.00  0.00    -0.286 OA
ENDROOT
BRANCH   1   3
ATOM      3  C   UNL d   1      58.236   0.103  30.349  0.00  0.00     0.040 A 
ATOM      4  C   UNL d   1      58.277  -0.587  29.898  0.00  0.00     0.005 A 
ATOM      5  C   UNL d   1      58.953  -0.721  29.451  0.00  0.00     0.024 A 
ATOM      6  C   UNL d   1      59.586  -0.182  29.446  0.00  0.00     0.127 A 
ATOM      7  C   UNL d   1      59.535   0.503  29.899  0.00  0.00     0.024 A 
ATOM      8  C   UNL d   1      58.857   0.632  30.344  0.00  0.00     0.005 A 
BRANCH   6   9
ATOM      9  N   UNL d   1      60.282  -0.318  28.987  0.00  0.00    -0.114 N 
ATOM     10  O   UNL d   1      60.538   0.272  28.473  0.00  0.00    -0.532 OA
ATOM     11  O   UNL d   1      60.690  -1.046  29.068  0.00  0.00    -0.532 OA
ENDBRANCH   6   9
ENDBRANCH   1   3
BRANCH   1  12
ATOM     12  C   UNL d   1      57.602   0.196  31.619  0.00  0.00     0.077 C 
BRANCH  12  13
ATOM     13  S   UNL d   1      56.920   0.019  32.064  0.00  0.00    -0.083 SA
BRANCH  13  14
ATOM     14  C   UNL d   1      56.913   0.123  32.905  0.00  0.00     0.035 A 
ATOM     15  C   UNL d   1      56.324  -0.246  33.344  0.00  0.00     0.070 A 
ATOM     16  C   UNL d   1      56.317  -0.143  34.175  0.00  0.00     0.007 A 
ATOM     17  C   UNL d   1      56.900   0.326  34.546  0.00  0.00     0.000 A 
ATOM     18  C   UNL d   1      57.476   0.682  34.089  0.00  0.00     0.001 A 
ATOM     19  C   UNL d   1      57.482   0.581  33.269  0.00  0.00     0.007 A 
BRANCH  15  20
ATOM     20  C   UNL d   1      55.728  -0.723  32.971  0.00  0.00     0.211 C 
ATOM     21  O   UNL d   1      54.957  -0.422  32.882  0.00  0.00    -0.644 OA
ATOM     22  O   UNL d   1      55.904  -1.483  32.695  0.00  0.00    -0.644 OA
ENDBRANCH  15  20
ENDBRANCH  13  14
ENDBRANCH  12  13
ENDBRANCH   1  12
TORSDOF 6
ENDMDL
