MODEL 1
REMARK VINA RESULT:      -1.9      0.000      0.000
REMARK  5 active torsions:
REMARK  status: ('A' for Active; 'I' for Inactive)
REMARK    1  A    between atoms: N_2  and  C_3 
REMARK       I    between atoms: C_4  and  N_5 
REMARK    2  A    between atoms: C_8  and  C_4 
REMARK    3  A    between atoms: N_5  and  C_9 
REMARK    4  A    between atoms: C_14  and  N_5 
REMARK    5  A    between atoms: C_20  and  C_14 
ROOT
ATOM      1  C   UNL d   1      58.301  -1.152  29.288  0.00  0.00     0.265 C 
ATOM      2  N   UNL d   1      59.103  -1.143  29.089  0.00  0.00    -0.273 N 
ATOM      3  O   UNL d   1      57.778  -1.628  28.856  0.00  0.00    -0.267 OA
ENDROOT
BRANCH   2   4
ATOM      4  C   UNL d   1      59.636  -0.674  29.511  0.00  0.00     0.079 A 
ATOM      5  C   UNL d   1      60.122  -0.094  29.186  0.00  0.00     0.116 A 
ATOM      6  S   UNL d   1      60.565   0.239  29.801  0.00  0.00     0.213 S 
ATOM      7  O   UNL d   1      61.081   0.681  30.265  0.00  0.00    -0.217 OA
ATOM      8  O   UNL d   1      60.819   0.650  29.136  0.00  0.00    -0.217 OA
ATOM      9  C   UNL d   1      60.346  -0.142  30.506  0.00  0.00     0.100 A 
ATOM     10  C   UNL d   1      59.772  -0.707  30.328  0.00  0.00     0.030 A 
ENDBRANCH   2   4
BRANCH   2  11
ATOM     11  C   UNL d   1      59.380  -1.612  28.456  0.00  0.00     0.083 C 
BRANCH  11  12
ATOM     12  C   UNL d   1      59.492  -2.420  28.564  0.00  0.00     0.018 A 
ATOM     13  C   UNL d   1      60.251  -2.709  28.740  0.00  0.00     0.013 A 
ATOM     14  C   UNL d   1      60.366  -3.521  28.849  0.00  0.00     0.058 A 
ATOM     15 CL   UNL d   1      61.111  -3.810  29.024  0.00  0.00    -0.082 Cl
ATOM     16  C   UNL d   1      59.726  -4.040  28.782  0.00  0.00     0.011 A 
ATOM     17  C   UNL d   1      58.972  -3.747  28.606  0.00  0.00     0.001 A 
ATOM     18  C   UNL d   1      58.856  -2.943  28.497  0.00  0.00     0.002 A 
ENDBRANCH  11  12
ENDBRANCH   2  11
BRANCH   1  19
ATOM     19  C   UNL d   1      58.032  -0.693  29.908  0.00  0.00     0.058 A 
ATOM     20  C   UNL d   1      57.666  -1.053  30.555  0.00  0.00     0.029 A 
ATOM     21  C   UNL d   1      57.397  -0.594  31.176  0.00  0.00     0.137 A 
ATOM     22  C   UNL d   1      57.492   0.223  31.153  0.00  0.00     0.080 A 
ATOM     23  C   UNL d   1      57.857   0.582  30.506  0.00  0.00     0.013 A 
ATOM     24 CL   UNL d   1      57.217   0.682  31.783  0.00  0.00    -0.081 Cl
ATOM     25  C   UNL d   1      58.127   0.123  29.885  0.00  0.00     0.006 A 
BRANCH  21  26
ATOM     26  N   UNL d   1      57.031  -0.954  31.823  0.00  0.00    -0.113 N 
ATOM     27  O   UNL d   1      57.303  -0.803  32.578  0.00  0.00    -0.532 OA
ATOM     28  O   UNL d   1      56.396  -1.461  31.699  0.00  0.00    -0.532 OA
ENDBRANCH  21  26
ENDBRANCH   1  19
TORSDOF 5
ENDMDL
