MODEL 1
REMARK VINA RESULT:      73.3      0.000      0.000
REMARK  4 active torsions:
REMARK  status: ('A' for Active; 'I' for Inactive)
REMARK    1  A    between atoms: C_23  and  N_1 
REMARK       I    between atoms: N_7  and  C_10 
REMARK    2  A    between atoms: C_10  and  C_25 
REMARK    3  A    between atoms: C_26  and  C_23 
REMARK    4  A    between atoms: C_25  and  C_26 
ROOT
ATOM      1  N   UNL d   1     -54.924-101.529 -40.340  0.00  0.00    -0.249 N 
ATOM      2  C   UNL d   1     -54.901-102.081 -39.730  0.00  0.00     0.268 A 
ATOM      3  C   UNL d   1     -54.908-100.732 -40.169  0.00  0.00     0.208 A 
ATOM      4  C   UNL d   1     -54.861-101.831 -38.944  0.00  0.00     0.076 A 
ATOM      5  C   UNL d   1     -54.845-101.034 -38.772  0.00  0.00     0.090 A 
ATOM      6  N   UNL d   1     -54.869-100.504 -39.390  0.00  0.00    -0.218 NA
ATOM      7  C   UNL d   1     -54.838-102.385 -38.328  0.00  0.00     0.033 A 
ATOM      8  C   UNL d   1     -54.805-100.807 -37.987  0.00  0.00     0.046 A 
ATOM      9  C   UNL d   1     -54.797-102.137 -37.530  0.00  0.00     0.119 A 
ATOM     10  C   UNL d   1     -54.782-101.338 -37.371  0.00  0.00     0.121 A 
ATOM     11  S   UNL d   1     -54.932-100.192 -40.797  0.00  0.00    -0.038 SA
ATOM     12  O   UNL d   1     -54.917-102.870 -39.899  0.00  0.00    -0.267 OA
ATOM     13  O   UNL d   1     -54.768-102.537 -36.813  0.00  0.00    -0.300 OA
ATOM     14  O   UNL d   1     -54.742-101.271 -36.543  0.00  0.00    -0.299 OA
ATOM     15  C   UNL d   1     -54.733-102.005 -36.195  0.00  0.00     0.304 A 
ENDROOT
BRANCH   1  16
ATOM     16  C   UNL d   1     -54.965-101.777 -41.139  0.00  0.00     0.085 C 
BRANCH  16  17
ATOM     17  C   UNL d   1     -55.211-101.256 -41.703  0.00  0.00     0.024 C 
BRANCH  17  18
ATOM     18  C   UNL d   1     -55.587-101.540 -42.366  0.00  0.00     0.063 C 
BRANCH  18  19
ATOM     19  C   UNL d   1     -55.153-101.727 -43.021  0.00  0.00     0.265 C 
ATOM     20  N   UNL d   1     -55.151-101.210 -43.663  0.00  0.00    -0.272 N 
ATOM     21  C   UNL d   1     -55.594-100.506 -43.622  0.00  0.00     0.083 A 
ATOM     22  C   UNL d   1     -54.712-101.390 -44.336  0.00  0.00     0.083 A 
ATOM     23  C   UNL d   1     -55.595 -99.984 -44.263  0.00  0.00     0.018 A 
ATOM     24  C   UNL d   1     -56.033 -99.288 -44.224  0.00  0.00     0.002 A 
ATOM     25  C   UNL d   1     -55.153-100.161 -44.949  0.00  0.00     0.003 A 
ATOM     26  C   UNL d   1     -56.033 -98.766 -44.867  0.00  0.00     0.000 A 
ATOM     27  C   UNL d   1     -55.593 -98.942 -45.549  0.00  0.00     0.000 A 
ATOM     28  C   UNL d   1     -55.154 -99.641 -45.586  0.00  0.00     0.000 A 
ATOM     29  C   UNL d   1     -54.712-100.867 -44.981  0.00  0.00     0.019 A 
ATOM     30  O   UNL d   1     -54.722-102.442 -43.022  0.00  0.00    -0.267 OA
ENDBRANCH  18  19
ENDBRANCH  17  18
ENDBRANCH  16  17
ENDBRANCH   1  16
TORSDOF 4
ENDMDL
