MODEL 1
REMARK VINA RESULT:      43.0      0.000      0.000
REMARK  4 active torsions:
REMARK  status: ('A' for Active; 'I' for Inactive)
REMARK    1  A    between atoms: C_7  and  C_1 
REMARK    2  A    between atoms: C_8  and  C_3 
REMARK    3  A    between atoms: C_10  and  C_6 
REMARK    4  A    between atoms: C_9  and  C_8 
ROOT
ATOM      1  C   UNL d   1      14.676  14.019  -1.717  0.00  0.00     0.293 A 
ATOM      2  N   UNL d   1      14.537  14.813  -1.920  0.00  0.00    -0.223 N 
ATOM      3  C   UNL d   1      14.364  13.406  -2.195  0.00  0.00     0.113 A 
ATOM      4  C   UNL d   1      14.085  14.994  -2.601  0.00  0.00     0.356 A 
ATOM      5  N   UNL d   1      13.772  14.382  -3.081  0.00  0.00    -0.192 NA
ATOM      6  C   UNL d   1      13.912  13.588  -2.878  0.00  0.00     0.094 A 
ATOM      7  O   UNL d   1      13.955  15.793  -2.791  0.00  0.00    -0.244 OA
ATOM      8  O   UNL d   1      14.921  13.307  -1.353  0.00  0.00    -0.267 OA
ATOM      9  C   UNL d   1      14.838  15.418  -1.458  0.00  0.00     0.106 C 
ENDROOT
BRANCH   3  10
ATOM     10  C   UNL d   1      14.503  12.613  -1.993  0.00  0.00     0.207 C 
ATOM     11  O   UNL d   1      14.943  12.127  -2.490  0.00  0.00    -0.286 OA
BRANCH  10  12
ATOM     12  C   UNL d   1      14.194  12.306  -1.277  0.00  0.00     0.069 A 
ATOM     13  S   UNL d   1      13.421  12.173  -1.007  0.00  0.00    -0.083 SA
ATOM     14  C   UNL d   1      13.475  11.856  -0.245  0.00  0.00     0.035 A 
ATOM     15  C   UNL d   1      14.248  11.780  -0.014  0.00  0.00     0.008 A 
ATOM     16  C   UNL d   1      14.709  12.058  -0.651  0.00  0.00     0.010 A 
ENDBRANCH  10  12
ENDBRANCH   3  10
BRANCH   1  17
ATOM     17  C   UNL d   1      15.058  14.451  -1.136  0.00  0.00     0.469 C 
ATOM     18  F   UNL d   1      15.732  14.409  -1.142  0.00  0.00    -0.162 F 
ATOM     19  F   UNL d   1      15.434  14.902  -0.532  0.00  0.00    -0.162 F 
ATOM     20  F   UNL d   1      14.674  14.854  -0.648  0.00  0.00    -0.162 F 
ENDBRANCH   1  17
BRANCH   6  21
ATOM     21  C   UNL d   1      13.608  12.988  -3.344  0.00  0.00     0.021 A 
ATOM     22  C   UNL d   1      13.828  12.924  -4.129  0.00  0.00     0.043 A 
ATOM     23  C   UNL d   1      13.517  12.313  -4.603  0.00  0.00     0.196 A 
ATOM     24  O   UNL d   1      13.739  12.253  -5.384  0.00  0.00    -0.287 OA
ATOM     25  C   UNL d   1      12.993  11.780  -4.278  0.00  0.00     0.042 A 
ATOM     26  C   UNL d   1      12.770  11.840  -3.494  0.00  0.00     0.003 A 
ATOM     27  C   UNL d   1      13.077  12.444  -3.027  0.00  0.00     0.002 A 
ENDBRANCH   6  21
TORSDOF 4
ENDMDL
