MODEL 1
REMARK VINA RESULT:      25.9      0.000      0.000
REMARK  4 active torsions:
REMARK  status: ('A' for Active; 'I' for Inactive)
REMARK    1  A    between atoms: S_3  and  N_1 
REMARK    2  A    between atoms: C_7  and  C_4 
REMARK    3  A    between atoms: C_10  and  C_5 
REMARK    4  A    between atoms: C_21  and  C_20 
ROOT
ATOM      1  N   UNL d   1      14.188  12.391  -1.648  0.00  0.00    -0.155 N 
ATOM      2  N   UNL d   1      13.878  11.937  -2.276  0.00  0.00    -0.153 NA
ATOM      3  C   UNL d   1      13.810  12.432  -2.927  0.00  0.00     0.126 A 
ATOM      4  C   UNL d   1      14.303  13.147  -1.922  0.00  0.00     0.096 A 
ATOM      5  C   UNL d   1      14.080  13.185  -2.692  0.00  0.00     0.043 A 
ENDROOT
BRANCH   4   6
ATOM      6  C   UNL d   1      14.603  13.773  -1.477  0.00  0.00     0.018 A 
ATOM      7  C   UNL d   1      14.543  14.567  -1.742  0.00  0.00     0.002 A 
ATOM      8  C   UNL d   1      14.843  15.193  -1.297  0.00  0.00     0.000 A 
ATOM      9  C   UNL d   1      15.204  15.027  -0.587  0.00  0.00     0.000 A 
ATOM     10  C   UNL d   1      15.279  14.279  -0.302  0.00  0.00     0.000 A 
ATOM     11  C   UNL d   1      14.979  13.652  -0.747  0.00  0.00     0.002 A 
BRANCH   9  12
ATOM     12  C   UNL d   1      15.503  15.653  -0.142  0.00  0.00     0.000 C 
ATOM     13  C   UNL d   1      15.409  16.430  -0.407  0.00  0.00     0.000 C 
ENDBRANCH   9  12
ENDBRANCH   4   6
BRANCH   1  14
ATOM     14  S   UNL d   1      14.333  12.080  -0.897  0.00  0.00     0.266 S 
ATOM     15  O   UNL d   1      13.597  12.359  -0.639  0.00  0.00    -0.203 OA
ATOM     16  O   UNL d   1      15.065  11.794  -1.127  0.00  0.00    -0.203 OA
ATOM     17  C   UNL d   1      14.452  11.779  -0.140  0.00  0.00     0.165 C 
ENDBRANCH   1  14
BRANCH   3  18
ATOM     18  C   UNL d   1      13.528  12.228  -3.678  0.00  0.00     0.119 A 
ATOM     19  O   UNL d   1      13.948  12.354  -4.367  0.00  0.00    -0.304 OA
ATOM     20  C   UNL d   1      13.459  12.066  -4.994  0.00  0.00     0.123 A 
ATOM     21  C   UNL d   1      12.769  11.779  -4.655  0.00  0.00     0.029 A 
ATOM     22  C   UNL d   1      12.805  11.875  -3.855  0.00  0.00     0.028 A 
ENDBRANCH   3  18
TORSDOF 4
ENDMDL
