MODEL 1
REMARK VINA RESULT:      27.7      0.000      0.000
REMARK  1 active torsions:
REMARK  status: ('A' for Active; 'I' for Inactive)
REMARK    1  A    between atoms: N_14  and  C_8 
ROOT
ATOM      1  C   UNL d   1     -52.304  24.758  33.307  0.00  0.00     0.056 A 
ATOM      2  C   UNL d   1     -50.391  26.335  33.306  0.00  0.00     0.074 A 
ATOM      3  C   UNL d   1     -52.168  23.944  33.307  0.00  0.00    -0.012 A 
ATOM      4  C   UNL d   1     -51.668  25.281  33.307  0.00  0.00    -0.016 A 
ATOM      5  C   UNL d   1     -50.254  25.517  33.306  0.00  0.00    -0.014 A 
ATOM      6  C   UNL d   1     -50.889  24.993  33.307  0.00  0.00    -0.007 A 
ATOM      7  C   UNL d   1     -51.398  23.658  33.307  0.00  0.00    -0.004 A 
ATOM      8  C   UNL d   1     -49.654  26.711  33.306  0.00  0.00     0.089 A 
ATOM      9  C   UNL d   1     -51.170  26.623  33.306  0.00  0.00    -0.017 A 
ATOM     10  C   UNL d   1     -50.754  24.179  33.307  0.00  0.00    -0.001 A 
ATOM     11  C   UNL d   1     -51.804  26.100  33.307  0.00  0.00    -0.008 A 
ATOM     12  C   UNL d   1     -53.074  25.047  33.307  0.00  0.00    -0.015 A 
ATOM     13  C   UNL d   1     -49.435  25.391  33.306  0.00  0.00    -0.002 A 
ATOM     14  C   UNL d   1     -52.803  23.424  33.307  0.00  0.00     0.038 A 
ATOM     15  C   UNL d   1     -49.073  26.136  33.306  0.00  0.00     0.017 A 
ATOM     16  C   UNL d   1     -53.713  24.523  33.307  0.00  0.00     0.038 A 
ATOM     17  C   UNL d   1     -53.578  23.709  33.307  0.00  0.00     0.195 A 
ATOM     18  C   UNL d   1     -52.440  25.575  33.307  0.00  0.00     0.013 C 
ATOM     19  C   UNL d   1     -50.526  27.148  33.306  0.00  0.00     0.015 C 
ATOM     20  O   UNL d   1     -54.213  23.189  33.307  0.00  0.00    -0.287 OA
ENDROOT
BRANCH   8  21
ATOM     21  N   UNL d   1     -49.537  27.529  33.306  0.00  0.00    -0.131 NA
ATOM     22  N   UNL d   1     -49.060  27.917  33.861  0.00  0.00    -0.023 N 
ENDBRANCH   8  21
TORSDOF 1
ENDMDL
MODEL 2
REMARK VINA RESULT:      28.4      2.414      3.773
REMARK  1 active torsions:
REMARK  status: ('A' for Active; 'I' for Inactive)
REMARK    1  A    between atoms: N_14  and  C_8 
ROOT
ATOM      1  C   UNL d   1     -50.753  26.177  33.397  0.00  0.00     0.056 A 
ATOM      2  C   UNL d   1     -52.606  24.530  33.356  0.00  0.00     0.074 A 
ATOM      3  C   UNL d   1     -49.970  25.919  33.378  0.00  0.00    -0.012 A 
ATOM      4  C   UNL d   1     -51.368  25.630  33.383  0.00  0.00    -0.016 A 
ATOM      5  C   UNL d   1     -51.818  24.270  33.337  0.00  0.00    -0.014 A 
ATOM      6  C   UNL d   1     -51.203  24.816  33.350  0.00  0.00    -0.007 A 
ATOM      7  C   UNL d   1     -49.805  25.114  33.346  0.00  0.00    -0.004 A 
ATOM      8  C   UNL d   1     -53.090  23.860  33.336  0.00  0.00     0.089 A 
ATOM      9  C   UNL d   1     -52.771  25.343  33.388  0.00  0.00    -0.017 A 
ATOM     10  C   UNL d   1     -50.420  24.558  33.332  0.00  0.00    -0.001 A 
ATOM     11  C   UNL d   1     -52.156  25.889  33.402  0.00  0.00    -0.008 A 
ATOM     12  C   UNL d   1     -50.921  26.982  33.429  0.00  0.00    -0.015 A 
ATOM     13  C   UNL d   1     -51.820  23.441  33.306  0.00  0.00    -0.002 A 
ATOM     14  C   UNL d   1     -49.358  26.466  33.392  0.00  0.00     0.038 A 
ATOM     15  C   UNL d   1     -52.611  23.198  33.306  0.00  0.00     0.017 A 
ATOM     16  C   UNL d   1     -50.305  27.533  33.443  0.00  0.00     0.038 A 
ATOM     17  C   UNL d   1     -49.522  27.275  33.424  0.00  0.00     0.195 A 
ATOM     18  C   UNL d   1     -51.540  26.437  33.415  0.00  0.00     0.013 C 
ATOM     19  C   UNL d   1     -53.388  24.788  33.374  0.00  0.00     0.015 C 
ATOM     20  O   UNL d   1     -48.910  27.823  33.438  0.00  0.00    -0.287 OA
ENDROOT
BRANCH   8  21
ATOM     21  N   UNL d   1     -53.916  23.869  33.346  0.00  0.00    -0.131 NA
ATOM     22  N   UNL d   1     -54.375  23.189  33.465  0.00  0.00    -0.023 N 
ENDBRANCH   8  21
TORSDOF 1
ENDMDL
