MODEL 1
REMARK VINA RESULT:      -6.9      0.000      0.000
REMARK  5 active torsions:
REMARK  status: ('A' for Active; 'I' for Inactive)
REMARK    1  A    between atoms: C_7  and  N_1 
REMARK    2  A    between atoms: C_10  and  C_2 
REMARK    3  A    between atoms: C_11  and  C_5 
REMARK    4  A    between atoms: C_9  and  C_7 
REMARK    5  A    between atoms: O_16  and  C_9 
ROOT
ATOM      1  N   UNL d   1     -39.759  14.941  18.822  0.00  0.00    -0.286 N 
ATOM      2  C   UNL d   1     -39.130  14.708  18.341  0.00  0.00     0.148 A 
ATOM      3  N   UNL d   1     -38.526  14.250  18.657  0.00  0.00    -0.228 NA
ATOM      4  C   UNL d   1     -39.173  14.258  19.916  0.00  0.00     0.035 A 
ATOM      5  C   UNL d   1     -39.772  14.710  19.611  0.00  0.00     0.067 A 
ATOM      6  C   UNL d   1     -38.545  14.026  19.435  0.00  0.00     0.084 A 
ATOM      7  C   UNL d   1     -39.190  14.033  20.698  0.00  0.00     0.014 A 
ATOM      8  C   UNL d   1     -37.944  13.572  19.744  0.00  0.00     0.020 A 
ATOM      9  C   UNL d   1     -38.586  13.574  21.014  0.00  0.00     0.058 A 
ATOM     10  C   UNL d   1     -37.957  13.342  20.533  0.00  0.00     0.013 A 
ATOM     11 CL   UNL d   1     -38.602  13.342  21.816  0.00  0.00    -0.082 Cl
ENDROOT
BRANCH   2  12
ATOM     12  C   UNL d   1     -38.741  14.709  17.565  0.00  0.00     0.035 A 
ATOM     13  C   UNL d   1     -38.337  15.426  17.274  0.00  0.00     0.003 A 
ATOM     14  C   UNL d   1     -37.950  15.420  16.496  0.00  0.00     0.000 A 
ATOM     15  C   UNL d   1     -37.966  14.690  16.006  0.00  0.00     0.000 A 
ATOM     16  C   UNL d   1     -38.372  13.978  16.305  0.00  0.00     0.000 A 
ATOM     17  C   UNL d   1     -38.757  13.986  17.078  0.00  0.00     0.003 A 
ENDBRANCH   2  12
BRANCH   1  18
ATOM     18  C   UNL d   1     -40.363  15.399  18.506  0.00  0.00     0.150 C 
BRANCH  18  19
ATOM     19  C   UNL d   1     -40.806  15.130  17.873  0.00  0.00     0.314 C 
ATOM     20  O   UNL d   1     -41.040  14.339  17.845  0.00  0.00    -0.257 OA
BRANCH  19  21
ATOM     21  O   UNL d   1     -41.016  15.636  17.271  0.00  0.00    -0.295 OA
ATOM     22  C   UNL d   1     -41.770  15.593  16.946  0.00  0.00     0.185 C 
ENDBRANCH  19  21
ENDBRANCH  18  19
ENDBRANCH   1  18
BRANCH   5  23
ATOM     23  C   UNL d   1     -40.400  14.943  20.092  0.00  0.00     0.016 A 
ATOM     24  C   UNL d   1     -40.417  15.690  20.405  0.00  0.00     0.001 A 
ATOM     25  C   UNL d   1     -41.046  15.922  20.886  0.00  0.00     0.000 A 
ATOM     26  C   UNL d   1     -41.647  15.403  21.046  0.00  0.00     0.000 A 
ATOM     27  C   UNL d   1     -41.642  14.631  20.731  0.00  0.00     0.000 A 
ATOM     28  C   UNL d   1     -41.008  14.411  20.251  0.00  0.00     0.001 A 
ENDBRANCH   5  23
TORSDOF 5
ENDMDL
MODEL 2
REMARK VINA RESULT:      -4.1      8.088     10.144
REMARK  5 active torsions:
REMARK  status: ('A' for Active; 'I' for Inactive)
REMARK    1  A    between atoms: C_7  and  N_1 
REMARK    2  A    between atoms: C_10  and  C_2 
REMARK    3  A    between atoms: C_11  and  C_5 
REMARK    4  A    between atoms: C_9  and  C_7 
REMARK    5  A    between atoms: O_16  and  C_9 
ROOT
ATOM      1  N   UNL d   1     -48.430  13.603  22.583  0.00  0.00    -0.286 N 
ATOM      2  C   UNL d   1     -47.805  13.083  22.720  0.00  0.00     0.148 A 
ATOM      3  N   UNL d   1     -47.959  12.335  23.024  0.00  0.00    -0.228 NA
ATOM      4  C   UNL d   1     -49.344  12.628  23.052  0.00  0.00     0.035 A 
ATOM      5  C   UNL d   1     -49.199  13.366  22.753  0.00  0.00     0.067 A 
ATOM      6  C   UNL d   1     -48.719  12.108  23.188  0.00  0.00     0.084 A 
ATOM      7  C   UNL d   1     -50.107  12.397  23.218  0.00  0.00     0.014 A 
ATOM      8  C   UNL d   1     -48.867  11.366  23.489  0.00  0.00     0.020 A 
ATOM      9  C   UNL d   1     -50.261  11.650  23.522  0.00  0.00     0.058 A 
ATOM     10  C   UNL d   1     -49.636  11.129  23.658  0.00  0.00     0.013 A 
ATOM     11 CL   UNL d   1     -51.044  11.412  23.693  0.00  0.00    -0.082 Cl
ENDROOT
BRANCH   2  12
ATOM     12  C   UNL d   1     -46.954  12.913  22.699  0.00  0.00     0.035 A 
ATOM     13  C   UNL d   1     -46.524  12.721  23.434  0.00  0.00     0.003 A 
ATOM     14  C   UNL d   1     -45.672  12.552  23.407  0.00  0.00     0.000 A 
ATOM     15  C   UNL d   1     -45.247  12.574  22.637  0.00  0.00     0.000 A 
ATOM     16  C   UNL d   1     -45.686  12.766  21.907  0.00  0.00     0.000 A 
ATOM     17  C   UNL d   1     -46.532  12.934  21.936  0.00  0.00     0.003 A 
ENDBRANCH   2  12
BRANCH   1  18
ATOM     18  C   UNL d   1     -48.276  14.351  22.280  0.00  0.00     0.150 C 
BRANCH  18  19
ATOM     19  C   UNL d   1     -47.855  14.901  22.715  0.00  0.00     0.314 C 
ATOM     20  O   UNL d   1     -47.939  14.923  23.536  0.00  0.00    -0.257 OA
BRANCH  19  21
ATOM     21  O   UNL d   1     -47.356  15.427  22.345  0.00  0.00    -0.295 OA
ATOM     22  C   UNL d   1     -47.646  15.920  21.754  0.00  0.00     0.185 C 
ENDBRANCH  19  21
ENDBRANCH  18  19
ENDBRANCH   1  18
BRANCH   5  23
ATOM     23  C   UNL d   1     -49.824  13.887  22.616  0.00  0.00     0.016 A 
ATOM     24  C   UNL d   1     -50.143  13.952  21.874  0.00  0.00     0.001 A 
ATOM     25  C   UNL d   1     -50.768  14.473  21.737  0.00  0.00     0.000 A 
ATOM     26  C   UNL d   1     -51.064  14.919  22.345  0.00  0.00     0.000 A 
ATOM     27  C   UNL d   1     -50.746  14.862  23.114  0.00  0.00     0.000 A 
ATOM     28  C   UNL d   1     -50.121  14.337  23.237  0.00  0.00     0.001 A 
ENDBRANCH   5  23
TORSDOF 5
ENDMDL
