MODEL 1
REMARK VINA RESULT:     109.6      0.000      0.000
REMARK  5 active torsions:
REMARK  status: ('A' for Active; 'I' for Inactive)
REMARK    1  A    between atoms: C_12  and  C_4 
REMARK    2  A    between atoms: N_10  and  C_5 
REMARK    3  A    between atoms: C_11  and  C_8 
REMARK    4  A    between atoms: C_14  and  N_10 
REMARK    5  A    between atoms: C_15  and  C_14 
ROOT
ATOM      1  C   UNL d   1      58.548  47.580  50.793  0.00  0.00     0.167 A 
ATOM      2  N   UNL d   1      58.939  46.857  50.956  0.00  0.00    -0.195 N 
ATOM      3  N   UNL d   1      58.978  48.272  50.744  0.00  0.00    -0.231 NA
ATOM      4  C   UNL d   1      57.747  47.592  50.685  0.00  0.00     0.057 A 
ATOM      5  C   UNL d   1      59.738  46.868  51.061  0.00  0.00     0.167 A 
ATOM      6  N   UNL d   1      57.709  46.193  50.895  0.00  0.00    -0.161 NA
ATOM      7  C   UNL d   1      60.180  47.557  51.014  0.00  0.00     0.054 A 
ATOM      8  C   UNL d   1      59.795  48.268  50.853  0.00  0.00     0.063 A 
ATOM      9  C   UNL d   1      57.324  46.904  50.734  0.00  0.00     0.124 A 
ENDROOT
BRANCH   5  10
ATOM     10  N   UNL d   1      60.136  46.133  51.227  0.00  0.00    -0.224 NA
BRANCH  10  11
ATOM     11  C   UNL d   1      60.883  45.747  51.142  0.00  0.00     0.120 C 
BRANCH  11  12
ATOM     12  C   UNL d   1      61.163  45.505  50.381  0.00  0.00     0.101 A 
ATOM     13  N   UNL d   1      60.841  44.810  50.011  0.00  0.00    -0.242 NA
ATOM     14  C   UNL d   1      61.128  44.572  49.247  0.00  0.00     0.099 A 
ATOM     15  C   UNL d   1      61.733  45.028  48.855  0.00  0.00     0.021 A 
ATOM     16  C   UNL d   1      62.051  45.727  49.239  0.00  0.00     0.003 A 
ATOM     17  C   UNL d   1      61.765  45.959  49.995  0.00  0.00     0.021 A 
ENDBRANCH  11  12
ENDBRANCH  10  11
ENDBRANCH   5  10
BRANCH   8  18
ATOM     18  C   UNL d   1      60.241  48.994  50.801  0.00  0.00     0.036 C 
ATOM     19  C   UNL d   1      60.684  49.708  50.746  0.00  0.00     0.006 C 
ATOM     20  C   UNL d   1      59.987  49.677  51.240  0.00  0.00     0.006 C 
ATOM     21  C   UNL d   1      60.938  49.030  50.308  0.00  0.00     0.006 C 
ENDBRANCH   8  18
BRANCH   4  22
ATOM     22  C   UNL d   1      57.361  48.304  50.524  0.00  0.00     0.004 A 
ATOM     23  C   UNL d   1      56.933  48.375  49.849  0.00  0.00     0.000 A 
ATOM     24  C   UNL d   1      56.548  49.087  49.688  0.00  0.00     0.000 A 
ATOM     25  C   UNL d   1      56.603  49.705  50.207  0.00  0.00     0.000 A 
ATOM     26  C   UNL d   1      57.041  49.626  50.892  0.00  0.00     0.000 A 
ATOM     27  C   UNL d   1      57.426  48.914  51.053  0.00  0.00     0.000 A 
ENDBRANCH   4  22
TORSDOF 5
ENDMDL
