MODEL 1
REMARK VINA RESULT:       9.3      0.000      0.000
REMARK  7 active torsions:
REMARK  status: ('A' for Active; 'I' for Inactive)
REMARK    1  A    between atoms: P_4  and  C_1 
REMARK    2  A    between atoms: N_7  and  C_3 
REMARK    3  A    between atoms: C_9  and  P_4 
REMARK    4  A    between atoms: C_10  and  P_4 
REMARK    5  A    between atoms: C_11  and  C_5 
REMARK    6  A    between atoms: C_12  and  N_7 
REMARK    7  A    between atoms: C_13  and  C_12 
ROOT
ATOM      1  C   UNL d   1      32.262  18.247 -22.895  0.00  0.00     0.161 A 
ATOM      2  N   UNL d   1      32.669  18.895 -22.573  0.00  0.00    -0.215 NA
ATOM      3  C   UNL d   1      31.474  18.510 -23.146  0.00  0.00     0.205 A 
ATOM      4  C   UNL d   1      32.194  19.550 -22.603  0.00  0.00     0.184 A 
ATOM      5  O   UNL d   1      31.435  19.354 -22.955  0.00  0.00    -0.270 OA
ENDROOT
BRANCH   1   6
ATOM      6  P   UNL d   1      32.361  17.540 -23.028  0.00  0.00     0.195 P 
ATOM      7  O   UNL d   1      32.474  18.147 -23.535  0.00  0.00    -0.305 OA
BRANCH   6   8
ATOM      8  C   UNL d   1      32.614  17.161 -23.727  0.00  0.00     0.038 A 
ATOM      9  C   UNL d   1      32.485  16.361 -23.824  0.00  0.00     0.004 A 
ATOM     10  C   UNL d   1      32.735  15.986 -24.515  0.00  0.00     0.000 A 
ATOM     11  C   UNL d   1      33.110  16.419 -25.097  0.00  0.00     0.000 A 
ATOM     12  C   UNL d   1      33.240  17.220 -25.000  0.00  0.00     0.000 A 
ATOM     13  C   UNL d   1      32.990  17.595 -24.309  0.00  0.00     0.004 A 
ENDBRANCH   6   8
BRANCH   6  14
ATOM     14  C   UNL d   1      32.291  16.701 -22.599  0.00  0.00     0.038 A 
ATOM     15  C   UNL d   1      31.912  15.984 -22.500  0.00  0.00     0.004 A 
ATOM     16  C   UNL d   1      32.187  15.454 -21.961  0.00  0.00     0.000 A 
ATOM     17  C   UNL d   1      32.859  15.633 -21.502  0.00  0.00     0.000 A 
ATOM     18  C   UNL d   1      33.237  16.337 -21.594  0.00  0.00     0.000 A 
ATOM     19  C   UNL d   1      32.963  16.880 -22.139  0.00  0.00     0.004 A 
ENDBRANCH   6  14
ENDBRANCH   1   6
BRANCH   3  20
ATOM     20  N   UNL d   1      31.066  17.929 -23.452  0.00  0.00    -0.219 NA
BRANCH  20  21
ATOM     21  C   UNL d   1      30.544  17.686 -24.050  0.00  0.00     0.101 C 
BRANCH  21  22
ATOM     22  C   UNL d   1      29.742  17.694 -23.934  0.00  0.00     0.019 A 
ATOM     23  C   UNL d   1      29.275  18.297 -24.256  0.00  0.00     0.002 A 
ATOM     24  C   UNL d   1      28.440  18.294 -24.128  0.00  0.00     0.000 A 
ATOM     25  C   UNL d   1      28.084  17.697 -23.685  0.00  0.00     0.000 A 
ATOM     26  C   UNL d   1      28.564  17.079 -23.354  0.00  0.00     0.000 A 
ATOM     27  C   UNL d   1      29.394  17.084 -23.483  0.00  0.00     0.002 A 
ENDBRANCH  21  22
ENDBRANCH  20  21
ENDBRANCH   3  20
BRANCH   4  28
ATOM     28  C   UNL d   1      32.446  20.288 -22.321  0.00  0.00     0.041 A 
ATOM     29  C   UNL d   1      32.786  20.363 -21.553  0.00  0.00     0.004 A 
ATOM     30  C   UNL d   1      33.033  21.122 -21.291  0.00  0.00     0.000 A 
ATOM     31  C   UNL d   1      32.952  21.785 -21.764  0.00  0.00     0.000 A 
ATOM     32  C   UNL d   1      32.610  21.706 -22.535  0.00  0.00     0.000 A 
ATOM     33  C   UNL d   1      32.359  20.943 -22.806  0.00  0.00     0.004 A 
ENDBRANCH   4  28
TORSDOF 7
ENDMDL
MODEL 2
REMARK VINA RESULT:       9.4      1.214      4.143
REMARK  7 active torsions:
REMARK  status: ('A' for Active; 'I' for Inactive)
REMARK    1  A    between atoms: P_4  and  C_1 
REMARK    2  A    between atoms: N_7  and  C_3 
REMARK    3  A    between atoms: C_9  and  P_4 
REMARK    4  A    between atoms: C_10  and  P_4 
REMARK    5  A    between atoms: C_11  and  C_5 
REMARK    6  A    between atoms: C_12  and  N_7 
REMARK    7  A    between atoms: C_13  and  C_12 
ROOT
ATOM      1  C   UNL d   1      31.415  19.061 -23.811  0.00  0.00     0.161 A 
ATOM      2  N   UNL d   1      30.588  19.000 -23.818  0.00  0.00    -0.215 NA
ATOM      3  C   UNL d   1      31.751  18.340 -24.159  0.00  0.00     0.205 A 
ATOM      4  C   UNL d   1      30.375  18.290 -24.146  0.00  0.00     0.184 A 
ATOM      5  O   UNL d   1      31.074  17.845 -24.373  0.00  0.00    -0.270 OA
ENDROOT
BRANCH   1   6
ATOM      6  P   UNL d   1      31.936  19.525 -23.607  0.00  0.00     0.195 P 
ATOM      7  O   UNL d   1      31.587  19.476 -24.323  0.00  0.00    -0.305 OA
BRANCH   6   8
ATOM      8  C   UNL d   1      32.313  20.126 -24.044  0.00  0.00     0.038 A 
ATOM      9  C   UNL d   1      32.867  19.928 -24.611  0.00  0.00     0.004 A 
ATOM     10  C   UNL d   1      33.241  20.523 -25.044  0.00  0.00     0.000 A 
ATOM     11  C   UNL d   1      33.054  21.305 -24.902  0.00  0.00     0.000 A 
ATOM     12  C   UNL d   1      32.500  21.504 -24.335  0.00  0.00     0.000 A 
ATOM     13  C   UNL d   1      32.126  20.909 -23.902  0.00  0.00     0.004 A 
ENDBRANCH   6   8
BRANCH   6  14
ATOM     14  C   UNL d   1      32.461  19.745 -22.852  0.00  0.00     0.038 A 
ATOM     15  C   UNL d   1      33.184  19.767 -22.474  0.00  0.00     0.004 A 
ATOM     16  C   UNL d   1      33.240  20.071 -21.731  0.00  0.00     0.000 A 
ATOM     17  C   UNL d   1      32.562  20.363 -21.344  0.00  0.00     0.000 A 
ATOM     18  C   UNL d   1      31.846  20.344 -21.711  0.00  0.00     0.000 A 
ATOM     19  C   UNL d   1      31.782  20.037 -22.465  0.00  0.00     0.004 A 
ENDBRANCH   6  14
ENDBRANCH   1   6
BRANCH   3  20
ATOM     20  N   UNL d   1      32.524  18.364 -24.167  0.00  0.00    -0.219 NA
BRANCH  20  21
ATOM     21  C   UNL d   1      33.232  17.932 -24.187  0.00  0.00     0.101 C 
BRANCH  21  22
ATOM     22  C   UNL d   1      33.228  17.126 -24.263  0.00  0.00     0.019 A 
ATOM     23  C   UNL d   1      33.241  16.772 -25.012  0.00  0.00     0.002 A 
ATOM     24  C   UNL d   1      33.236  15.929 -25.077  0.00  0.00     0.000 A 
ATOM     25  C   UNL d   1      33.219  15.454 -24.404  0.00  0.00     0.000 A 
ATOM     26  C   UNL d   1      33.206  15.818 -23.636  0.00  0.00     0.000 A 
ATOM     27  C   UNL d   1      33.211  16.656 -23.573  0.00  0.00     0.002 A 
ENDBRANCH  21  22
ENDBRANCH  20  21
ENDBRANCH   3  20
BRANCH   4  28
ATOM     28  C   UNL d   1      29.582  18.066 -24.230  0.00  0.00     0.041 A 
ATOM     29  C   UNL d   1      29.191  18.135 -24.975  0.00  0.00     0.004 A 
ATOM     30  C   UNL d   1      28.387  17.901 -25.034  0.00  0.00     0.000 A 
ATOM     31  C   UNL d   1      27.978  17.609 -24.388  0.00  0.00     0.000 A 
ATOM     32  C   UNL d   1      28.373  17.541 -23.642  0.00  0.00     0.000 A 
ATOM     33  C   UNL d   1      29.185  17.776 -23.575  0.00  0.00     0.004 A 
ENDBRANCH   4  28
TORSDOF 7
ENDMDL
