MODEL 1
REMARK VINA RESULT:      -4.5      0.000      0.000
REMARK  7 active torsions:
REMARK  status: ('A' for Active; 'I' for Inactive)
REMARK    1  A    between atoms: C_6  and  N_2 
REMARK    2  A    between atoms: C_7  and  C_3 
REMARK    3  A    between atoms: C_8  and  C_6 
REMARK    4  A    between atoms: O_13  and  C_7 
REMARK    5  A    between atoms: C_14  and  C_8 
REMARK    6  A    between atoms: C_9  and  O_12 
REMARK    7  A    between atoms: O_12  and  C_14 
ROOT
ATOM      1  N   UNL d   1      60.301  -1.250  29.104  0.00  0.00    -0.225 NA
ATOM      2  N   UNL d   1      59.015  -1.158  29.551  0.00  0.00    -0.287 N 
ATOM      3  C   UNL d   1      59.748  -0.744  29.491  0.00  0.00     0.172 A 
ATOM      4  C   UNL d   1      59.105  -1.911  29.207  0.00  0.00     0.083 A 
ATOM      5  C   UNL d   1      59.900  -1.968  28.931  0.00  0.00     0.099 A 
ATOM      6  C   UNL d   1      58.589  -2.549  29.103  0.00  0.00     0.019 A 
ATOM      7  C   UNL d   1      60.161  -2.662  28.558  0.00  0.00     0.021 A 
ATOM      8  C   UNL d   1      58.857  -3.245  28.727  0.00  0.00     0.002 A 
ATOM      9  C   UNL d   1      59.640  -3.301  28.456  0.00  0.00     0.002 A 
ENDROOT
BRANCH   2  10
ATOM     10  C   UNL d   1      58.416  -0.723  29.922  0.00  0.00     0.084 C 
BRANCH  10  11
ATOM     11  C   UNL d   1      58.027  -1.046  30.574  0.00  0.00     0.046 C 
BRANCH  11  12
ATOM     12  C   UNL d   1      57.512  -0.586  31.007  0.00  0.00     0.124 C 
BRANCH  12  13
ATOM     13  O   UNL d   1      56.828  -0.921  31.314  0.00  0.00    -0.305 OA
BRANCH  13  14
ATOM     14  C   UNL d   1      56.481  -0.603  31.988  0.00  0.00     0.100 A 
ATOM     15  C   UNL d   1      56.222  -1.097  32.580  0.00  0.00     0.025 A 
ATOM     16  C   UNL d   1      55.880  -0.785  33.246  0.00  0.00     0.002 A 
ATOM     17  C   UNL d   1      55.792   0.038  33.325  0.00  0.00     0.000 A 
ATOM     18  C   UNL d   1      56.057   0.527  32.720  0.00  0.00     0.002 A 
ATOM     19  C   UNL d   1      56.401   0.202  32.053  0.00  0.00     0.025 A 
ENDBRANCH  13  14
ENDBRANCH  12  13
ENDBRANCH  11  12
ENDBRANCH  10  11
ENDBRANCH   2  10
BRANCH   3  20
ATOM     20  C   UNL d   1      59.973  -0.076  29.699  0.00  0.00     0.154 C 
BRANCH  20  21
ATOM     21  O   UNL d   1      60.753   0.158  29.788  0.00  0.00    -0.323 OA
ATOM     22  C   UNL d   1      61.133   0.682  30.302  0.00  0.00     0.182 C 
ENDBRANCH  20  21
ENDBRANCH   3  20
TORSDOF 7
ENDMDL
MODEL 2
REMARK VINA RESULT:      -1.8      2.128      5.144
REMARK  7 active torsions:
REMARK  status: ('A' for Active; 'I' for Inactive)
REMARK    1  A    between atoms: C_6  and  N_2 
REMARK    2  A    between atoms: C_7  and  C_3 
REMARK    3  A    between atoms: C_8  and  C_6 
REMARK    4  A    between atoms: O_13  and  C_7 
REMARK    5  A    between atoms: C_14  and  C_8 
REMARK    6  A    between atoms: C_9  and  O_12 
REMARK    7  A    between atoms: O_12  and  C_14 
ROOT
ATOM      1  N   UNL d   1      56.967   0.536  34.238  0.00  0.00    -0.225 NA
ATOM      2  N   UNL d   1      56.983   0.597  32.875  0.00  0.00    -0.287 N 
ATOM      3  C   UNL d   1      57.469   0.614  33.564  0.00  0.00     0.172 A 
ATOM      4  C   UNL d   1      56.189   0.510  33.110  0.00  0.00     0.083 A 
ATOM      5  C   UNL d   1      56.179   0.473  33.953  0.00  0.00     0.099 A 
ATOM      6  C   UNL d   1      55.477   0.460  32.690  0.00  0.00     0.019 A 
ATOM      7  C   UNL d   1      55.459   0.386  34.355  0.00  0.00     0.021 A 
ATOM      8  C   UNL d   1      54.756   0.373  33.101  0.00  0.00     0.002 A 
ATOM      9  C   UNL d   1      54.747   0.336  33.931  0.00  0.00     0.002 A 
ENDROOT
BRANCH   2  10
ATOM     10  C   UNL d   1      57.406   0.669  32.167  0.00  0.00     0.084 C 
BRANCH  10  11
ATOM     11  C   UNL d   1      57.357   0.068  31.603  0.00  0.00     0.046 C 
BRANCH  11  12
ATOM     12  C   UNL d   1      57.810   0.109  30.927  0.00  0.00     0.124 C 
BRANCH  12  13
ATOM     13  O   UNL d   1      57.619  -0.362  30.282  0.00  0.00    -0.305 OA
BRANCH  13  14
ATOM     14  C   UNL d   1      58.191  -0.535  29.717  0.00  0.00     0.100 A 
ATOM     15  C   UNL d   1      58.448   0.050  29.212  0.00  0.00     0.025 A 
ATOM     16  C   UNL d   1      59.012  -0.118  28.654  0.00  0.00     0.002 A 
ATOM     17  C   UNL d   1      59.328  -0.885  28.596  0.00  0.00     0.000 A 
ATOM     18  C   UNL d   1      59.060  -1.466  29.111  0.00  0.00     0.002 A 
ATOM     19  C   UNL d   1      58.492  -1.287  29.669  0.00  0.00     0.025 A 
ENDBRANCH  13  14
ENDBRANCH  12  13
ENDBRANCH  11  12
ENDBRANCH  10  11
ENDBRANCH   2  10
BRANCH   3  20
ATOM     20  C   UNL d   1      58.192   0.678  33.675  0.00  0.00     0.154 C 
BRANCH  20  21
ATOM     21  O   UNL d   1      58.565   0.682  34.404  0.00  0.00    -0.323 OA
ATOM     22  C   UNL d   1      59.358   0.676  34.636  0.00  0.00     0.182 C 
ENDBRANCH  20  21
ENDBRANCH   3  20
TORSDOF 7
ENDMDL
MODEL 3
REMARK VINA RESULT:      -1.7      8.825      9.125
REMARK  7 active torsions:
REMARK  status: ('A' for Active; 'I' for Inactive)
REMARK    1  A    between atoms: C_6  and  N_2 
REMARK    2  A    between atoms: C_7  and  C_3 
REMARK    3  A    between atoms: C_8  and  C_6 
REMARK    4  A    between atoms: O_13  and  C_7 
REMARK    5  A    between atoms: C_14  and  C_8 
REMARK    6  A    between atoms: C_9  and  O_12 
REMARK    7  A    between atoms: O_12  and  C_14 
ROOT
ATOM      1  N   UNL d   1      58.584  -9.795  30.013  0.00  0.00    -0.225 NA
ATOM      2  N   UNL d   1      59.244  -9.806  31.207  0.00  0.00    -0.287 N 
ATOM      3  C   UNL d   1      58.480  -9.804  30.849  0.00  0.00     0.172 A 
ATOM      4  C   UNL d   1      59.820  -9.798  30.606  0.00  0.00     0.083 A 
ATOM      5  C   UNL d   1      59.412  -9.791  29.867  0.00  0.00     0.099 A 
ATOM      6  C   UNL d   1      60.647  -9.796  30.616  0.00  0.00     0.019 A 
ATOM      7  C   UNL d   1      59.841  -9.782  29.157  0.00  0.00     0.021 A 
ATOM      8  C   UNL d   1      61.073  -9.787  29.899  0.00  0.00     0.002 A 
ATOM      9  C   UNL d   1      60.672  -9.780  29.171  0.00  0.00     0.002 A 
ENDROOT
BRANCH   2  10
ATOM     10  C   UNL d   1      59.225  -9.815  32.035  0.00  0.00     0.084 C 
BRANCH  10  11
ATOM     11  C   UNL d   1      59.842  -9.466  32.458  0.00  0.00     0.046 C 
BRANCH  11  12
ATOM     12  C   UNL d   1      59.870  -9.541  33.269  0.00  0.00     0.124 C 
BRANCH  12  13
ATOM     13  O   UNL d   1      59.670  -8.900  33.742  0.00  0.00    -0.305 OA
BRANCH  13  14
ATOM     14  C   UNL d   1      59.904  -8.885  34.531  0.00  0.00     0.100 A 
ATOM     15  C   UNL d   1      59.488  -9.315  35.083  0.00  0.00     0.025 A 
ATOM     16  C   UNL d   1      59.716  -9.301  35.861  0.00  0.00     0.002 A 
ATOM     17  C   UNL d   1      60.373  -8.850  36.096  0.00  0.00     0.000 A 
ATOM     18  C   UNL d   1      60.785  -8.420  35.530  0.00  0.00     0.002 A 
ATOM     19  C   UNL d   1      60.547  -8.441  34.749  0.00  0.00     0.025 A 
ENDBRANCH  13  14
ENDBRANCH  12  13
ENDBRANCH  11  12
ENDBRANCH  10  11
ENDBRANCH   2  10
BRANCH   3  20
ATOM     20  C   UNL d   1      57.795  -9.809  31.115  0.00  0.00     0.154 C 
BRANCH  20  21
ATOM     21  O   UNL d   1      57.113  -9.684  30.678  0.00  0.00    -0.323 OA
ATOM     22  C   UNL d   1      56.310  -9.799  30.834  0.00  0.00     0.182 C 
ENDBRANCH  20  21
ENDBRANCH   3  20
TORSDOF 7
ENDMDL
