MODEL 1
REMARK VINA RESULT:      -5.7      0.000      0.000
REMARK  0 active torsions:
REMARK  status: ('A' for Active; 'I' for Inactive)
ROOT
ATOM      1  C   UNL d   1     -41.553-122.551 -53.486  0.00  0.00     0.086 A 
ATOM      2  S   UNL d   1     -41.578-122.110 -52.794  0.00  0.00    -0.081 SA
ATOM      3  C   UNL d   1     -41.379-123.376 -53.449  0.00  0.00     0.090 A 
ATOM      4  N   UNL d   1     -41.236-123.727 -52.721  0.00  0.00    -0.244 NA
ATOM      5  C   UNL d   1     -41.436-122.462 -52.067  0.00  0.00     0.047 A 
ATOM      6  C   UNL d   1     -41.265-123.268 -52.030  0.00  0.00     0.087 A 
ATOM      7  C   UNL d   1     -41.696-122.200 -54.232  0.00  0.00     0.203 A 
ATOM      8  O   UNL d   1     -41.870-121.376 -54.269  0.00  0.00    -0.286 OA
ATOM      9  C   UNL d   1     -41.355-123.817 -54.159  0.00  0.00     0.020 A 
ATOM     10  C   UNL d   1     -41.671-122.640 -54.923  0.00  0.00     0.043 A 
ATOM     11  C   UNL d   1     -41.501-123.447 -54.887  0.00  0.00     0.005 A 
ATOM     12  C   UNL d   1     -41.461-122.021 -51.374  0.00  0.00     0.008 A 
ATOM     13  C   UNL d   1     -41.123-123.623 -51.302  0.00  0.00     0.020 A 
ATOM     14  C   UNL d   1     -41.314-122.394 -50.646  0.00  0.00     0.001 A 
ATOM     15  C   UNL d   1     -41.148-123.179 -50.611  0.00  0.00     0.002 A 
ENDROOT
TORSDOF 0
ENDMDL
MODEL 2
REMARK VINA RESULT:      -5.6      0.831      2.889
REMARK  0 active torsions:
REMARK  status: ('A' for Active; 'I' for Inactive)
ROOT
ATOM      1  C   UNL d   1     -41.268-122.567 -51.954  0.00  0.00     0.086 A 
ATOM      2  S   UNL d   1     -41.339-122.163 -52.665  0.00  0.00    -0.081 SA
ATOM      3  C   UNL d   1     -41.265-123.411 -51.953  0.00  0.00     0.090 A 
ATOM      4  N   UNL d   1     -41.333-123.817 -52.663  0.00  0.00    -0.244 NA
ATOM      5  C   UNL d   1     -41.408-122.570 -53.374  0.00  0.00     0.047 A 
ATOM      6  C   UNL d   1     -41.405-123.395 -53.373  0.00  0.00     0.087 A 
ATOM      7  C   UNL d   1     -41.198-122.161 -51.226  0.00  0.00     0.203 A 
ATOM      8  O   UNL d   1     -41.201-121.318 -51.227  0.00  0.00    -0.286 OA
ATOM      9  C   UNL d   1     -41.192-123.815 -51.224  0.00  0.00     0.020 A 
ATOM     10  C   UNL d   1     -41.126-122.565 -50.516  0.00  0.00     0.043 A 
ATOM     11  C   UNL d   1     -41.124-123.390 -50.515  0.00  0.00     0.005 A 
ATOM     12  C   UNL d   1     -41.479-122.166 -54.085  0.00  0.00     0.008 A 
ATOM     13  C   UNL d   1     -41.473-123.805 -54.083  0.00  0.00     0.020 A 
ATOM     14  C   UNL d   1     -41.547-122.594 -54.794  0.00  0.00     0.001 A 
ATOM     15  C   UNL d   1     -41.544-123.397 -54.793  0.00  0.00     0.002 A 
ENDROOT
TORSDOF 0
ENDMDL
MODEL 3
REMARK VINA RESULT:      -3.9      1.424      2.006
REMARK  0 active torsions:
REMARK  status: ('A' for Active; 'I' for Inactive)
ROOT
ATOM      1  C   UNL d   1     -41.599-122.293 -51.553  0.00  0.00     0.086 A 
ATOM      2  S   UNL d   1     -41.832-121.994 -50.825  0.00  0.00    -0.081 SA
ATOM      3  C   UNL d   1     -41.599-123.127 -51.680  0.00  0.00     0.090 A 
ATOM      4  N   UNL d   1     -41.832-123.629 -51.073  0.00  0.00    -0.244 NA
ATOM      5  C   UNL d   1     -42.065-122.496 -50.219  0.00  0.00     0.047 A 
ATOM      6  C   UNL d   1     -42.064-123.311 -50.343  0.00  0.00     0.087 A 
ATOM      7  C   UNL d   1     -41.361-121.788 -52.176  0.00  0.00     0.203 A 
ATOM      8  O   UNL d   1     -41.361-120.955 -52.049  0.00  0.00    -0.286 OA
ATOM      9  C   UNL d   1     -41.360-123.424 -52.425  0.00  0.00     0.020 A 
ATOM     10  C   UNL d   1     -41.128-122.087 -52.903  0.00  0.00     0.043 A 
ATOM     11  C   UNL d   1     -41.128-122.903 -53.027  0.00  0.00     0.005 A 
ATOM     12  C   UNL d   1     -42.298-122.197 -49.491  0.00  0.00     0.008 A 
ATOM     13  C   UNL d   1     -42.297-123.817 -49.738  0.00  0.00     0.020 A 
ATOM     14  C   UNL d   1     -42.530-122.721 -48.889  0.00  0.00     0.001 A 
ATOM     15  C   UNL d   1     -42.530-123.514 -49.010  0.00  0.00     0.002 A 
ENDROOT
TORSDOF 0
ENDMDL
MODEL 4
REMARK VINA RESULT:      -3.8      2.673      3.762
REMARK  0 active torsions:
REMARK  status: ('A' for Active; 'I' for Inactive)
ROOT
ATOM      1  C   UNL d   1     -42.263-122.698 -49.786  0.00  0.00     0.086 A 
ATOM      2  S   UNL d   1     -42.634-122.738 -49.054  0.00  0.00    -0.081 SA
ATOM      3  C   UNL d   1     -41.493-123.029 -49.881  0.00  0.00     0.090 A 
ATOM      4  N   UNL d   1     -41.124-123.387 -49.241  0.00  0.00    -0.244 NA
ATOM      5  C   UNL d   1     -42.264-123.096 -48.415  0.00  0.00     0.047 A 
ATOM      6  C   UNL d   1     -41.511-123.419 -48.508  0.00  0.00     0.087 A 
ATOM      7  C   UNL d   1     -42.632-122.335 -50.443  0.00  0.00     0.203 A 
ATOM      8  O   UNL d   1     -43.402-122.005 -50.347  0.00  0.00    -0.286 OA
ATOM      9  C   UNL d   1     -41.122-122.984 -50.630  0.00  0.00     0.020 A 
ATOM     10  C   UNL d   1     -42.262-122.295 -51.173  0.00  0.00     0.043 A 
ATOM     11  C   UNL d   1     -41.509-122.619 -51.267  0.00  0.00     0.005 A 
ATOM     12  C   UNL d   1     -42.635-123.136 -47.684  0.00  0.00     0.008 A 
ATOM     13  C   UNL d   1     -41.139-123.779 -47.869  0.00  0.00     0.020 A 
ATOM     14  C   UNL d   1     -42.246-123.502 -47.047  0.00  0.00     0.001 A 
ATOM     15  C   UNL d   1     -41.512-123.817 -47.138  0.00  0.00     0.002 A 
ENDROOT
TORSDOF 0
ENDMDL
