MODEL 1
REMARK VINA RESULT:      -9.3      0.000      0.000
REMARK  3 active torsions:
REMARK  status: ('A' for Active; 'I' for Inactive)
REMARK    1  A    between atoms: N_9  and  C_4 
REMARK       I    between atoms: C_7  and  N_10 
REMARK    2  A    between atoms: C_8  and  C_7 
REMARK    3  A    between atoms: N_10  and  N_9 
ROOT
ATOM      1  C   UNL d   1      51.441  34.222  52.399  0.00  0.00     0.297 C 
ATOM      2  N   UNL d   1      50.667  34.427  52.591  0.00  0.00    -0.104 NA
ATOM      3  O   UNL d   1      51.631  34.006  51.626  0.00  0.00    -0.264 OA
ENDROOT
BRANCH   1   4
ATOM      4  C   UNL d   1      52.025  34.234  52.979  0.00  0.00     0.059 A 
ATOM      5  C   UNL d   1      52.404  33.525  53.184  0.00  0.00     0.005 A 
ATOM      6  C   UNL d   1      52.990  33.547  53.770  0.00  0.00     0.000 A 
ATOM      7  C   UNL d   1      52.205  32.826  52.821  0.00  0.00     0.000 A 
ATOM      8  C   UNL d   1      53.370  32.852  53.979  0.00  0.00     0.000 A 
ATOM      9  C   UNL d   1      53.192  34.257  54.139  0.00  0.00     0.000 A 
ATOM     10  C   UNL d   1      53.174  32.150  53.617  0.00  0.00     0.000 A 
ATOM     11  C   UNL d   1      52.585  32.133  53.031  0.00  0.00     0.000 A 
ATOM     12  C   UNL d   1      52.810  34.955  53.929  0.00  0.00     0.000 A 
ATOM     13  C   UNL d   1      52.223  34.945  53.346  0.00  0.00     0.005 A 
ENDBRANCH   1   4
BRANCH   2  14
ATOM     14  N   UNL d   1      50.084  34.415  52.011  0.00  0.00    -0.127 NA
BRANCH  14  15
ATOM     15  C   UNL d   1      49.363  34.799  52.141  0.00  0.00     0.178 A 
ATOM     16  N   UNL d   1      48.779  34.792  51.563  0.00  0.00    -0.240 N 
ATOM     17  C   UNL d   1      48.067  35.171  51.693  0.00  0.00     0.343 A 
ATOM     18  C   UNL d   1      48.913  34.399  50.850  0.00  0.00     0.105 C 
ATOM     19  N   UNL d   1      47.933  35.564  52.406  0.00  0.00    -0.224 N 
ATOM     20  O   UNL d   1      47.480  35.163  51.111  0.00  0.00    -0.245 OA
ATOM     21  C   UNL d   1      48.510  35.581  52.997  0.00  0.00     0.271 A 
ATOM     22  C   UNL d   1      47.213  35.948  52.537  0.00  0.00     0.107 C 
ATOM     23  C   UNL d   1      49.229  35.192  52.854  0.00  0.00     0.101 A 
ATOM     24  O   UNL d   1      48.377  35.969  53.703  0.00  0.00    -0.266 OA
ENDBRANCH  14  15
ENDBRANCH   2  14
TORSDOF 3
ENDMDL
MODEL 2
REMARK VINA RESULT:      -8.2      3.967      5.404
REMARK  3 active torsions:
REMARK  status: ('A' for Active; 'I' for Inactive)
REMARK    1  A    between atoms: N_9  and  C_4 
REMARK       I    between atoms: C_7  and  N_10 
REMARK    2  A    between atoms: C_8  and  C_7 
REMARK    3  A    between atoms: N_10  and  N_9 
ROOT
ATOM      1  C   UNL d   1      54.142  32.675  53.747  0.00  0.00     0.297 C 
ATOM      2  N   UNL d   1      53.765  31.969  53.945  0.00  0.00    -0.104 NA
ATOM      3  O   UNL d   1      54.535  32.744  53.025  0.00  0.00    -0.264 OA
ENDROOT
BRANCH   1   4
ATOM      4  C   UNL d   1      54.125  33.310  54.270  0.00  0.00     0.059 A 
ATOM      5  C   UNL d   1      53.607  33.941  54.123  0.00  0.00     0.005 A 
ATOM      6  C   UNL d   1      53.598  34.576  54.656  0.00  0.00     0.000 A 
ATOM      7  C   UNL d   1      53.121  33.937  53.472  0.00  0.00     0.000 A 
ATOM      8  C   UNL d   1      53.090  35.203  54.518  0.00  0.00     0.000 A 
ATOM      9  C   UNL d   1      54.092  34.580  55.317  0.00  0.00     0.000 A 
ATOM     10  C   UNL d   1      52.601  35.204  53.868  0.00  0.00     0.000 A 
ATOM     11  C   UNL d   1      52.614  34.564  53.336  0.00  0.00     0.000 A 
ATOM     12  C   UNL d   1      54.603  33.949  55.455  0.00  0.00     0.000 A 
ATOM     13  C   UNL d   1      54.621  33.310  54.930  0.00  0.00     0.005 A 
ENDBRANCH   1   4
BRANCH   2  14
ATOM     14  N   UNL d   1      53.782  31.335  53.423  0.00  0.00    -0.127 NA
BRANCH  14  15
ATOM     15  C   UNL d   1      53.498  30.595  53.660  0.00  0.00     0.178 A 
ATOM     16  N   UNL d   1      53.051  30.137  53.145  0.00  0.00    -0.240 N 
ATOM     17  C   UNL d   1      52.772  29.406  53.380  0.00  0.00     0.343 A 
ATOM     18  C   UNL d   1      52.885  30.417  52.387  0.00  0.00     0.105 C 
ATOM     19  N   UNL d   1      52.938  29.126  54.138  0.00  0.00    -0.224 N 
ATOM     20  O   UNL d   1      52.322  28.947  52.861  0.00  0.00    -0.245 OA
ATOM     21  C   UNL d   1      53.386  29.574  54.668  0.00  0.00     0.271 A 
ATOM     22  C   UNL d   1      52.655  28.387  54.377  0.00  0.00     0.107 C 
ATOM     23  C   UNL d   1      53.665  30.315  54.418  0.00  0.00     0.101 A 
ATOM     24  O   UNL d   1      53.551  29.297  55.419  0.00  0.00    -0.266 OA
ENDBRANCH  14  15
ENDBRANCH   2  14
TORSDOF 3
ENDMDL
MODEL 3
REMARK VINA RESULT:      -8.1      3.233      4.809
REMARK  3 active torsions:
REMARK  status: ('A' for Active; 'I' for Inactive)
REMARK    1  A    between atoms: N_9  and  C_4 
REMARK       I    between atoms: C_7  and  N_10 
REMARK    2  A    between atoms: C_8  and  C_7 
REMARK    3  A    between atoms: N_10  and  N_9 
ROOT
ATOM      1  C   UNL d   1      53.831  31.370  53.564  0.00  0.00     0.297 C 
ATOM      2  N   UNL d   1      53.462  32.075  53.777  0.00  0.00    -0.104 NA
ATOM      3  O   UNL d   1      54.654  31.325  53.541  0.00  0.00    -0.264 OA
ENDROOT
BRANCH   1   4
ATOM      4  C   UNL d   1      53.377  30.711  53.372  0.00  0.00     0.059 A 
ATOM      5  C   UNL d   1      53.345  30.074  53.903  0.00  0.00     0.005 A 
ATOM      6  C   UNL d   1      52.884  29.415  53.701  0.00  0.00     0.000 A 
ATOM      7  C   UNL d   1      53.755  30.096  54.604  0.00  0.00     0.000 A 
ATOM      8  C   UNL d   1      52.847  28.782  54.220  0.00  0.00     0.000 A 
ATOM      9  C   UNL d   1      52.467  29.393  52.989  0.00  0.00     0.000 A 
ATOM     10  C   UNL d   1      53.256  28.800  54.922  0.00  0.00     0.000 A 
ATOM     11  C   UNL d   1      53.716  29.463  55.120  0.00  0.00     0.000 A 
ATOM     12  C   UNL d   1      52.505  30.029  52.469  0.00  0.00     0.000 A 
ATOM     13  C   UNL d   1      52.961  30.693  52.660  0.00  0.00     0.005 A 
ENDBRANCH   1   4
BRANCH   2  14
ATOM     14  N   UNL d   1      53.917  32.733  53.969  0.00  0.00    -0.127 NA
BRANCH  14  15
ATOM     15  C   UNL d   1      53.554  33.469  54.077  0.00  0.00     0.178 A 
ATOM     16  N   UNL d   1      53.707  33.911  54.753  0.00  0.00    -0.240 N 
ATOM     17  C   UNL d   1      53.349  34.637  54.860  0.00  0.00     0.343 A 
ATOM     18  C   UNL d   1      54.224  33.618  55.325  0.00  0.00     0.105 C 
ATOM     19  N   UNL d   1      52.831  34.929  54.287  0.00  0.00    -0.224 N 
ATOM     20  O   UNL d   1      53.503  35.080  55.540  0.00  0.00    -0.245 OA
ATOM     21  C   UNL d   1      52.667  34.498  53.603  0.00  0.00     0.271 A 
ATOM     22  C   UNL d   1      52.469  35.664  54.395  0.00  0.00     0.107 C 
ATOM     23  C   UNL d   1      53.037  33.761  53.505  0.00  0.00     0.101 A 
ATOM     24  O   UNL d   1      52.155  34.787  53.036  0.00  0.00    -0.266 OA
ENDBRANCH  14  15
ENDBRANCH   2  14
TORSDOF 3
ENDMDL
MODEL 4
REMARK VINA RESULT:      -7.6      0.962      1.980
REMARK  3 active torsions:
REMARK  status: ('A' for Active; 'I' for Inactive)
REMARK    1  A    between atoms: N_9  and  C_4 
REMARK       I    between atoms: C_7  and  N_10 
REMARK    2  A    between atoms: C_8  and  C_7 
REMARK    3  A    between atoms: N_10  and  N_9 
ROOT
ATOM      1  C   UNL d   1      52.111  34.037  53.230  0.00  0.00     0.297 C 
ATOM      2  N   UNL d   1      51.299  34.027  53.089  0.00  0.00    -0.104 NA
ATOM      3  O   UNL d   1      52.512  34.756  53.284  0.00  0.00    -0.264 OA
ENDROOT
BRANCH   1   4
ATOM      4  C   UNL d   1      52.521  33.329  53.317  0.00  0.00     0.059 A 
ATOM      5  C   UNL d   1      53.099  33.267  53.908  0.00  0.00     0.005 A 
ATOM      6  C   UNL d   1      53.506  32.549  53.987  0.00  0.00     0.000 A 
ATOM      7  C   UNL d   1      53.263  33.894  54.398  0.00  0.00     0.000 A 
ATOM      8  C   UNL d   1      54.079  32.479  54.569  0.00  0.00     0.000 A 
ATOM      9  C   UNL d   1      53.341  31.912  53.490  0.00  0.00     0.000 A 
ATOM     10  C   UNL d   1      54.246  33.105  55.061  0.00  0.00     0.000 A 
ATOM     11  C   UNL d   1      53.835  33.822  54.977  0.00  0.00     0.000 A 
ATOM     12  C   UNL d   1      52.765  31.982  52.906  0.00  0.00     0.000 A 
ATOM     13  C   UNL d   1      52.352  32.694  52.818  0.00  0.00     0.005 A 
ENDBRANCH   1   4
BRANCH   2  14
ATOM     14  N   UNL d   1      50.890  34.735  53.002  0.00  0.00    -0.127 NA
BRANCH  14  15
ATOM     15  C   UNL d   1      50.170  34.750  52.595  0.00  0.00     0.178 A 
ATOM     16  N   UNL d   1      49.506  35.089  52.938  0.00  0.00    -0.240 N 
ATOM     17  C   UNL d   1      48.795  35.104  52.535  0.00  0.00     0.343 A 
ATOM     18  C   UNL d   1      49.557  35.417  53.694  0.00  0.00     0.105 C 
ATOM     19  N   UNL d   1      48.743  34.776  51.780  0.00  0.00    -0.224 N 
ATOM     20  O   UNL d   1      48.128  35.445  52.883  0.00  0.00    -0.245 OA
ATOM     21  C   UNL d   1      49.402  34.431  51.420  0.00  0.00     0.271 A 
ATOM     22  C   UNL d   1      48.025  34.790  51.372  0.00  0.00     0.107 C 
ATOM     23  C   UNL d   1      50.118  34.422  51.839  0.00  0.00     0.101 A 
ATOM     24  O   UNL d   1      49.350  34.106  50.672  0.00  0.00    -0.266 OA
ENDBRANCH  14  15
ENDBRANCH   2  14
TORSDOF 3
ENDMDL
MODEL 5
REMARK VINA RESULT:      -7.5      3.193      5.246
REMARK  3 active torsions:
REMARK  status: ('A' for Active; 'I' for Inactive)
REMARK    1  A    between atoms: N_9  and  C_4 
REMARK       I    between atoms: C_7  and  N_10 
REMARK    2  A    between atoms: C_8  and  C_7 
REMARK    3  A    between atoms: N_10  and  N_9 
ROOT
ATOM      1  C   UNL d   1      53.020  32.866  52.943  0.00  0.00     0.297 C 
ATOM      2  N   UNL d   1      52.847  32.121  53.248  0.00  0.00    -0.104 NA
ATOM      3  O   UNL d   1      53.717  32.987  52.519  0.00  0.00    -0.264 OA
ENDROOT
BRANCH   1   4
ATOM      4  C   UNL d   1      52.496  33.489  53.061  0.00  0.00     0.059 A 
ATOM      5  C   UNL d   1      52.709  34.105  53.575  0.00  0.00     0.005 A 
ATOM      6  C   UNL d   1      52.173  34.728  53.687  0.00  0.00     0.000 A 
ATOM      7  C   UNL d   1      53.425  34.097  53.958  0.00  0.00     0.000 A 
ATOM      8  C   UNL d   1      52.377  35.340  54.192  0.00  0.00     0.000 A 
ATOM      9  C   UNL d   1      51.446  34.735  53.298  0.00  0.00     0.000 A 
ATOM     10  C   UNL d   1      53.092  35.337  54.578  0.00  0.00     0.000 A 
ATOM     11  C   UNL d   1      53.625  34.709  54.462  0.00  0.00     0.000 A 
ATOM     12  C   UNL d   1      51.243  34.120  52.790  0.00  0.00     0.000 A 
ATOM     13  C   UNL d   1      51.769  33.493  52.670  0.00  0.00     0.005 A 
ENDBRANCH   1   4
BRANCH   2  14
ATOM     14  N   UNL d   1      53.372  31.498  53.130  0.00  0.00    -0.127 NA
BRANCH  14  15
ATOM     15  C   UNL d   1      53.298  30.804  53.574  0.00  0.00     0.178 A 
ATOM     16  N   UNL d   1      53.099  30.096  53.208  0.00  0.00    -0.240 N 
ATOM     17  C   UNL d   1      53.026  29.412  53.648  0.00  0.00     0.343 A 
ATOM     18  C   UNL d   1      52.971  30.078  52.393  0.00  0.00     0.105 C 
ATOM     19  N   UNL d   1      53.153  29.430  54.463  0.00  0.00    -0.224 N 
ATOM     20  O   UNL d   1      52.826  28.700  53.279  0.00  0.00    -0.245 OA
ATOM     21  C   UNL d   1      53.354  30.134  54.846  0.00  0.00     0.271 A 
ATOM     22  C   UNL d   1      53.080  28.738  54.909  0.00  0.00     0.107 C 
ATOM     23  C   UNL d   1      53.425  30.823  54.389  0.00  0.00     0.101 A 
ATOM     24  O   UNL d   1      53.480  30.152  55.653  0.00  0.00    -0.266 OA
ENDBRANCH  14  15
ENDBRANCH   2  14
TORSDOF 3
ENDMDL
MODEL 6
REMARK VINA RESULT:      -7.3      1.691      4.990
REMARK  3 active torsions:
REMARK  status: ('A' for Active; 'I' for Inactive)
REMARK    1  A    between atoms: N_9  and  C_4 
REMARK       I    between atoms: C_7  and  N_10 
REMARK    2  A    between atoms: C_8  and  C_7 
REMARK    3  A    between atoms: N_10  and  N_9 
ROOT
ATOM      1  C   UNL d   1      50.895  34.515  52.797  0.00  0.00     0.297 C 
ATOM      2  N   UNL d   1      51.290  33.806  52.936  0.00  0.00    -0.104 NA
ATOM      3  O   UNL d   1      51.151  35.209  53.162  0.00  0.00    -0.264 OA
ENDROOT
BRANCH   1   4
ATOM      4  C   UNL d   1      50.244  34.531  52.294  0.00  0.00     0.059 A 
ATOM      5  C   UNL d   1      49.543  34.894  52.550  0.00  0.00     0.005 A 
ATOM      6  C   UNL d   1      48.893  34.904  52.035  0.00  0.00     0.000 A 
ATOM      7  C   UNL d   1      49.495  35.230  53.288  0.00  0.00     0.000 A 
ATOM      8  C   UNL d   1      48.198  35.260  52.281  0.00  0.00     0.000 A 
ATOM      9  C   UNL d   1      48.942  34.561  51.286  0.00  0.00     0.000 A 
ATOM     10  C   UNL d   1      48.145  35.598  53.018  0.00  0.00     0.000 A 
ATOM     11  C   UNL d   1      48.800  35.585  53.530  0.00  0.00     0.000 A 
ATOM     12  C   UNL d   1      49.642  34.204  51.040  0.00  0.00     0.000 A 
ATOM     13  C   UNL d   1      50.297  34.187  51.545  0.00  0.00     0.005 A 
ENDBRANCH   1   4
BRANCH   2  14
ATOM     14  N   UNL d   1      51.940  33.791  53.439  0.00  0.00    -0.127 NA
BRANCH  14  15
ATOM     15  C   UNL d   1      52.413  33.114  53.484  0.00  0.00     0.178 A 
ATOM     16  N   UNL d   1      53.017  33.065  54.039  0.00  0.00    -0.240 N 
ATOM     17  C   UNL d   1      53.483  32.396  54.083  0.00  0.00     0.343 A 
ATOM     18  C   UNL d   1      53.151  33.695  54.554  0.00  0.00     0.105 C 
ATOM     19  N   UNL d   1      53.349  31.766  53.568  0.00  0.00    -0.224 N 
ATOM     20  O   UNL d   1      54.090  32.349  54.642  0.00  0.00    -0.245 OA
ATOM     21  C   UNL d   1      52.746  31.799  53.004  0.00  0.00     0.271 A 
ATOM     22  C   UNL d   1      53.821  31.089  53.612  0.00  0.00     0.107 C 
ATOM     23  C   UNL d   1      52.279  32.483  52.969  0.00  0.00     0.101 A 
ATOM     24  O   UNL d   1      52.613  31.174  52.494  0.00  0.00    -0.266 OA
ENDBRANCH  14  15
ENDBRANCH   2  14
TORSDOF 3
ENDMDL
MODEL 7
REMARK VINA RESULT:      -6.4      9.829     10.765
REMARK  3 active torsions:
REMARK  status: ('A' for Active; 'I' for Inactive)
REMARK    1  A    between atoms: N_9  and  C_4 
REMARK       I    between atoms: C_7  and  N_10 
REMARK    2  A    between atoms: C_8  and  C_7 
REMARK    3  A    between atoms: N_10  and  N_9 
ROOT
ATOM      1  C   UNL d   1      45.225  28.604  57.584  0.00  0.00     0.297 C 
ATOM      2  N   UNL d   1      44.886  27.870  57.429  0.00  0.00    -0.104 NA
ATOM      3  O   UNL d   1      45.815  28.674  58.157  0.00  0.00    -0.264 OA
ENDROOT
BRANCH   1   4
ATOM      4  C   UNL d   1      44.974  29.268  57.168  0.00  0.00     0.059 A 
ATOM      5  C   UNL d   1      44.776  29.957  57.587  0.00  0.00     0.005 A 
ATOM      6  C   UNL d   1      44.525  30.620  57.157  0.00  0.00     0.000 A 
ATOM      7  C   UNL d   1      44.827  29.981  58.397  0.00  0.00     0.000 A 
ATOM      8  C   UNL d   1      44.328  31.304  57.563  0.00  0.00     0.000 A 
ATOM      9  C   UNL d   1      44.473  30.597  56.334  0.00  0.00     0.000 A 
ATOM     10  C   UNL d   1      44.377  31.332  58.374  0.00  0.00     0.000 A 
ATOM     11  C   UNL d   1      44.630  30.664  58.799  0.00  0.00     0.000 A 
ATOM     12  C   UNL d   1      44.671  29.909  55.928  0.00  0.00     0.000 A 
ATOM     13  C   UNL d   1      44.923  29.241  56.345  0.00  0.00     0.005 A 
ENDBRANCH   1   4
BRANCH   2  14
ATOM     14  N   UNL d   1      45.136  27.206  57.846  0.00  0.00    -0.127 NA
BRANCH  14  15
ATOM     15  C   UNL d   1      44.930  26.450  57.583  0.00  0.00     0.178 A 
ATOM     16  N   UNL d   1      44.724  25.865  58.121  0.00  0.00    -0.240 N 
ATOM     17  C   UNL d   1      44.520  25.118  57.860  0.00  0.00     0.343 A 
ATOM     18  C   UNL d   1      44.724  26.033  58.929  0.00  0.00     0.105 C 
ATOM     19  N   UNL d   1      44.520  24.949  57.053  0.00  0.00    -0.224 N 
ATOM     20  O   UNL d   1      44.314  24.531  58.404  0.00  0.00    -0.245 OA
ATOM     21  C   UNL d   1      44.724  25.526  56.498  0.00  0.00     0.271 A 
ATOM     22  C   UNL d   1      44.314  24.194  56.789  0.00  0.00     0.107 C 
ATOM     23  C   UNL d   1      44.930  26.282  56.775  0.00  0.00     0.101 A 
ATOM     24  O   UNL d   1      44.724  25.359  55.699  0.00  0.00    -0.266 OA
ENDBRANCH  14  15
ENDBRANCH   2  14
TORSDOF 3
ENDMDL
