MODEL 1
REMARK VINA RESULT:      -6.1      0.000      0.000
REMARK  5 active torsions:
REMARK  status: ('A' for Active; 'I' for Inactive)
REMARK    1  A    between atoms: N_2  and  C_1 
REMARK    2  A    between atoms: C_9  and  C_5 
REMARK       I    between atoms: N_6  and  C_7 
REMARK    3  A    between atoms: C_11  and  N_6 
REMARK    4  A    between atoms: C_7  and  C_10 
REMARK    5  A    between atoms: C_10  and  C_9 
ROOT
ATOM      1  N   UNL d   1     -41.866-122.572 -50.775  0.00  0.00    -0.208 NA
ATOM      2  C   UNL d   1     -41.492-122.980 -51.354  0.00  0.00     0.279 C 
ATOM      3  O   UNL d   1     -41.123-123.693 -51.202  0.00  0.00    -0.265 OA
ENDROOT
BRANCH   2   4
ATOM      4  C   UNL d   1     -41.475-122.676 -52.123  0.00  0.00     0.063 C 
BRANCH   4   5
ATOM      5  C   UNL d   1     -41.242-123.150 -52.770  0.00  0.00     0.011 C 
BRANCH   5   6
ATOM      6  C   UNL d   1     -41.423-122.940 -53.530  0.00  0.00     0.031 A 
ATOM      7  S   UNL d   1     -41.818-122.290 -53.846  0.00  0.00    -0.064 SA
ATOM      8  C   UNL d   1     -41.829-122.386 -54.647  0.00  0.00     0.156 A 
ATOM      9  C   UNL d   1     -41.452-123.078 -54.836  0.00  0.00     0.031 A 
ATOM     10  C   UNL d   1     -41.199-123.426 -54.158  0.00  0.00     0.009 A 
BRANCH   8  11
ATOM     11  N   UNL d   1     -42.181-121.841 -55.176  0.00  0.00    -0.107 N 
ATOM     12  O   UNL d   1     -42.954-121.611 -55.109  0.00  0.00    -0.531 OA
ATOM     13  O   UNL d   1     -41.709-121.531 -55.791  0.00  0.00    -0.531 OA
ENDBRANCH   8  11
ENDBRANCH   5   6
ENDBRANCH   4   5
ENDBRANCH   2   4
BRANCH   1  14
ATOM     14  C   UNL d   1     -41.883-122.875 -50.010  0.00  0.00     0.085 A 
ATOM     15  C   UNL d   1     -42.557-122.771 -49.538  0.00  0.00     0.018 A 
ATOM     16  C   UNL d   1     -43.208-122.366 -49.837  0.00  0.00     0.002 C 
ATOM     17  C   UNL d   1     -42.573-123.072 -48.776  0.00  0.00     0.002 A 
ATOM     18  C   UNL d   1     -41.915-123.482 -48.472  0.00  0.00     0.000 A 
ATOM     19  C   UNL d   1     -41.246-123.582 -48.949  0.00  0.00     0.002 A 
ATOM     20  C   UNL d   1     -41.229-123.281 -49.711  0.00  0.00     0.019 A 
ENDBRANCH   1  14
TORSDOF 5
ENDMDL
MODEL 2
REMARK VINA RESULT:      -5.6      1.731      4.992
REMARK  5 active torsions:
REMARK  status: ('A' for Active; 'I' for Inactive)
REMARK    1  A    between atoms: N_2  and  C_1 
REMARK    2  A    between atoms: C_9  and  C_5 
REMARK       I    between atoms: N_6  and  C_7 
REMARK    3  A    between atoms: C_11  and  N_6 
REMARK    4  A    between atoms: C_7  and  C_10 
REMARK    5  A    between atoms: C_10  and  C_9 
ROOT
ATOM      1  N   UNL d   1     -41.729-123.044 -53.344  0.00  0.00    -0.208 NA
ATOM      2  C   UNL d   1     -41.488-122.624 -52.706  0.00  0.00     0.279 C 
ATOM      3  O   UNL d   1     -41.299-121.831 -52.765  0.00  0.00    -0.265 OA
ENDROOT
BRANCH   2   4
ATOM      4  C   UNL d   1     -41.427-122.997 -51.970  0.00  0.00     0.063 C 
BRANCH   4   5
ATOM      5  C   UNL d   1     -41.358-122.554 -51.266  0.00  0.00     0.011 C 
BRANCH   5   6
ATOM      6  C   UNL d   1     -41.590-122.861 -50.554  0.00  0.00     0.031 A 
ATOM      7  S   UNL d   1     -42.217-122.681 -50.050  0.00  0.00    -0.064 SA
ATOM      8  C   UNL d   1     -42.162-123.178 -49.418  0.00  0.00     0.156 A 
ATOM      9  C   UNL d   1     -41.519-123.662 -49.515  0.00  0.00     0.031 A 
ATOM     10  C   UNL d   1     -41.161-123.476 -50.210  0.00  0.00     0.009 A 
BRANCH   8  11
ATOM     11  N   UNL d   1     -42.699-123.174 -48.775  0.00  0.00    -0.107 N 
ATOM     12  O   UNL d   1     -42.643-122.641 -48.169  0.00  0.00    -0.531 OA
ATOM     13  O   UNL d   1     -43.308-123.745 -48.770  0.00  0.00    -0.531 OA
ENDBRANCH   8  11
ENDBRANCH   5   6
ENDBRANCH   4   5
ENDBRANCH   2   4
BRANCH   1  14
ATOM     14  C   UNL d   1     -41.789-122.673 -54.076  0.00  0.00     0.085 A 
ATOM     15  C   UNL d   1     -41.489-123.044 -54.755  0.00  0.00     0.018 A 
ATOM     16  C   UNL d   1     -41.132-123.783 -54.693  0.00  0.00     0.002 C 
ATOM     17  C   UNL d   1     -41.550-122.674 -55.484  0.00  0.00     0.002 A 
ATOM     18  C   UNL d   1     -41.911-121.927 -55.547  0.00  0.00     0.000 A 
ATOM     19  C   UNL d   1     -42.208-121.562 -54.865  0.00  0.00     0.002 A 
ATOM     20  C   UNL d   1     -42.148-121.932 -54.136  0.00  0.00     0.019 A 
ENDBRANCH   1  14
TORSDOF 5
ENDMDL
MODEL 3
REMARK VINA RESULT:      -5.0      1.792      4.915
REMARK  5 active torsions:
REMARK  status: ('A' for Active; 'I' for Inactive)
REMARK    1  A    between atoms: N_2  and  C_1 
REMARK    2  A    between atoms: C_9  and  C_5 
REMARK       I    between atoms: N_6  and  C_7 
REMARK    3  A    between atoms: C_11  and  N_6 
REMARK    4  A    between atoms: C_7  and  C_10 
REMARK    5  A    between atoms: C_10  and  C_9 
ROOT
ATOM      1  N   UNL d   1     -41.640-122.347 -52.934  0.00  0.00    -0.208 NA
ATOM      2  C   UNL d   1     -41.389-122.950 -52.471  0.00  0.00     0.279 C 
ATOM      3  O   UNL d   1     -41.123-123.652 -52.795  0.00  0.00    -0.265 OA
ENDROOT
BRANCH   2   4
ATOM      4  C   UNL d   1     -41.396-122.866 -51.649  0.00  0.00     0.063 C 
BRANCH   4   5
ATOM      5  C   UNL d   1     -41.731-123.453 -51.158  0.00  0.00     0.011 C 
BRANCH   5   6
ATOM      6  C   UNL d   1     -41.800-123.341 -50.359  0.00  0.00     0.031 A 
ATOM      7  S   UNL d   1     -42.451-123.331 -49.854  0.00  0.00    -0.064 SA
ATOM      8  C   UNL d   1     -42.172-123.193 -49.111  0.00  0.00     0.156 A 
ATOM      9  C   UNL d   1     -41.365-123.117 -49.140  0.00  0.00     0.031 A 
ATOM     10  C   UNL d   1     -41.126-123.207 -49.901  0.00  0.00     0.009 A 
BRANCH   8  11
ATOM     11  N   UNL d   1     -42.660-123.140 -48.433  0.00  0.00    -0.107 N 
ATOM     12  O   UNL d   1     -42.923-123.796 -48.038  0.00  0.00    -0.531 OA
ATOM     13  O   UNL d   1     -42.876-122.380 -48.164  0.00  0.00    -0.531 OA
ENDBRANCH   8  11
ENDBRANCH   5   6
ENDBRANCH   4   5
ENDBRANCH   2   4
BRANCH   1  14
ATOM     14  C   UNL d   1     -41.633-122.430 -53.752  0.00  0.00     0.085 A 
ATOM     15  C   UNL d   1     -42.131-121.961 -54.221  0.00  0.00     0.018 A 
ATOM     16  C   UNL d   1     -42.631-121.412 -53.866  0.00  0.00     0.002 C 
ATOM     17  C   UNL d   1     -42.123-122.044 -55.037  0.00  0.00     0.002 A 
ATOM     18  C   UNL d   1     -41.617-122.598 -55.398  0.00  0.00     0.000 A 
ATOM     19  C   UNL d   1     -41.123-123.064 -54.923  0.00  0.00     0.002 A 
ATOM     20  C   UNL d   1     -41.130-122.981 -54.107  0.00  0.00     0.019 A 
ENDBRANCH   1  14
TORSDOF 5
ENDMDL
