MODEL 1
REMARK VINA RESULT:      -6.9      0.000      0.000
REMARK  3 active torsions:
REMARK  status: ('A' for Active; 'I' for Inactive)
REMARK    1  A    between atoms: C_6  and  N_1 
REMARK    2  A    between atoms: C_9  and  C_6 
REMARK    3  A    between atoms: C_10  and  C_9 
ROOT
ATOM      1  C   UNL d   1     -48.053  12.847  23.327  0.00  0.00     0.086 C 
ENDROOT
BRANCH   1   2
ATOM      2  N   UNL d   1     -47.291  13.030  23.145  0.00  0.00    -0.240 N 
ATOM      3  C   UNL d   1     -47.016  13.783  22.878  0.00  0.00     0.267 A 
ATOM      4  C   UNL d   1     -46.186  13.724  22.755  0.00  0.00     0.066 A 
ATOM      5  O   UNL d   1     -47.474  14.431  22.766  0.00  0.00    -0.267 OA
ATOM      6  C   UNL d   1     -45.956  12.932  22.949  0.00  0.00     0.066 A 
ATOM      7  C   UNL d   1     -46.630  12.508  23.186  0.00  0.00     0.267 A 
ATOM      8  O   UNL d   1     -46.652  11.742  23.414  0.00  0.00    -0.267 OA
ENDBRANCH   1   2
BRANCH   1   9
ATOM      9  C   UNL d   1     -48.504  12.410  22.793  0.00  0.00     0.019 C 
BRANCH   9  10
ATOM     10  C   UNL d   1     -49.311  12.330  22.911  0.00  0.00     0.002 A 
ATOM     11  C   UNL d   1     -49.587  11.937  23.575  0.00  0.00     0.000 A 
ATOM     12  C   UNL d   1     -50.393  11.854  23.698  0.00  0.00     0.000 A 
ATOM     13  C   UNL d   1     -50.923  12.169  23.149  0.00  0.00     0.000 A 
ATOM     14  C   UNL d   1     -50.641  12.564  22.481  0.00  0.00     0.000 A 
ATOM     15  C   UNL d   1     -49.832  12.639  22.372  0.00  0.00     0.000 A 
ENDBRANCH   9  10
ENDBRANCH   1   9
TORSDOF 3
ENDMDL
MODEL 2
REMARK VINA RESULT:      -6.8      1.176      3.430
REMARK  3 active torsions:
REMARK  status: ('A' for Active; 'I' for Inactive)
REMARK    1  A    between atoms: C_6  and  N_1 
REMARK    2  A    between atoms: C_9  and  C_6 
REMARK    3  A    between atoms: C_10  and  C_9 
ROOT
ATOM      1  C   UNL d   1     -48.574  12.606  22.666  0.00  0.00     0.086 C 
ENDROOT
BRANCH   1   2
ATOM      2  N   UNL d   1     -49.330  12.406  22.856  0.00  0.00    -0.240 N 
ATOM      3  C   UNL d   1     -50.025  12.813  22.603  0.00  0.00     0.267 A 
ATOM      4  C   UNL d   1     -50.690  12.414  22.931  0.00  0.00     0.066 A 
ATOM      5  O   UNL d   1     -50.038  13.464  22.134  0.00  0.00    -0.267 OA
ATOM      6  C   UNL d   1     -50.395  11.762  23.384  0.00  0.00     0.066 A 
ATOM      7  C   UNL d   1     -49.566  11.757  23.339  0.00  0.00     0.267 A 
ATOM      8  O   UNL d   1     -49.076  11.230  23.689  0.00  0.00    -0.267 OA
ENDBRANCH   1   2
BRANCH   1   9
ATOM      9  C   UNL d   1     -48.113  13.016  23.213  0.00  0.00     0.019 C 
BRANCH   9  10
ATOM     10  C   UNL d   1     -47.366  13.277  23.003  0.00  0.00     0.002 A 
ATOM     11  C   UNL d   1     -46.777  12.732  22.837  0.00  0.00     0.000 A 
ATOM     12  C   UNL d   1     -46.027  12.988  22.626  0.00  0.00     0.000 A 
ATOM     13  C   UNL d   1     -45.872  13.798  22.581  0.00  0.00     0.000 A 
ATOM     14  C   UNL d   1     -46.468  14.343  22.748  0.00  0.00     0.000 A 
ATOM     15  C   UNL d   1     -47.212  14.072  22.958  0.00  0.00     0.000 A 
ENDBRANCH   9  10
ENDBRANCH   1   9
TORSDOF 3
ENDMDL
MODEL 3
REMARK VINA RESULT:      -6.8      1.569      2.153
REMARK  3 active torsions:
REMARK  status: ('A' for Active; 'I' for Inactive)
REMARK    1  A    between atoms: C_6  and  N_1 
REMARK    2  A    between atoms: C_9  and  C_6 
REMARK    3  A    between atoms: C_10  and  C_9 
ROOT
ATOM      1  C   UNL d   1     -47.958  12.873  23.634  0.00  0.00     0.086 C 
ENDROOT
BRANCH   1   2
ATOM      2  N   UNL d   1     -47.460  12.241  23.654  0.00  0.00    -0.240 N 
ATOM      3  C   UNL d   1     -46.617  12.279  23.684  0.00  0.00     0.267 A 
ATOM      4  C   UNL d   1     -46.325  11.490  23.698  0.00  0.00     0.066 A 
ATOM      5  O   UNL d   1     -46.182  12.953  23.698  0.00  0.00    -0.267 OA
ATOM      6  C   UNL d   1     -46.995  10.971  23.675  0.00  0.00     0.066 A 
ATOM      7  C   UNL d   1     -47.688  11.430  23.649  0.00  0.00     0.267 A 
ATOM      8  O   UNL d   1     -48.437  11.153  23.622  0.00  0.00    -0.267 OA
ENDBRANCH   1   2
BRANCH   1   9
ATOM      9  C   UNL d   1     -48.159  13.208  22.907  0.00  0.00     0.019 C 
BRANCH   9  10
ATOM     10  C   UNL d   1     -48.625  13.882  22.884  0.00  0.00     0.002 A 
ATOM     11  C   UNL d   1     -49.389  13.858  23.177  0.00  0.00     0.000 A 
ATOM     12  C   UNL d   1     -49.859  14.529  23.156  0.00  0.00     0.000 A 
ATOM     13  C   UNL d   1     -49.555  15.228  22.839  0.00  0.00     0.000 A 
ATOM     14  C   UNL d   1     -48.784  15.249  22.545  0.00  0.00     0.000 A 
ATOM     15  C   UNL d   1     -48.326  14.569  22.573  0.00  0.00     0.000 A 
ENDBRANCH   9  10
ENDBRANCH   1   9
TORSDOF 3
ENDMDL
MODEL 4
REMARK VINA RESULT:      -6.7      1.984      3.729
REMARK  3 active torsions:
REMARK  status: ('A' for Active; 'I' for Inactive)
REMARK    1  A    between atoms: C_6  and  N_1 
REMARK    2  A    between atoms: C_9  and  C_6 
REMARK    3  A    between atoms: C_10  and  C_9 
ROOT
ATOM      1  C   UNL d   1     -48.790  14.172  22.180  0.00  0.00     0.086 C 
ENDROOT
BRANCH   1   2
ATOM      2  N   UNL d   1     -49.589  14.238  22.105  0.00  0.00    -0.240 N 
ATOM      3  C   UNL d   1     -50.087  13.714  21.668  0.00  0.00     0.267 A 
ATOM      4  C   UNL d   1     -50.878  13.993  21.741  0.00  0.00     0.066 A 
ATOM      5  O   UNL d   1     -49.840  13.070  21.261  0.00  0.00    -0.267 OA
ATOM      6  C   UNL d   1     -50.859  14.688  22.224  0.00  0.00     0.066 A 
ATOM      7  C   UNL d   1     -50.072  14.838  22.446  0.00  0.00     0.267 A 
ATOM      8  O   UNL d   1     -49.816  15.443  22.903  0.00  0.00    -0.267 OA
ENDBRANCH   1   2
BRANCH   1   9
ATOM      9  C   UNL d   1     -48.473  13.860  22.875  0.00  0.00     0.019 C 
BRANCH   9  10
ATOM     10  C   UNL d   1     -47.672  13.692  22.916  0.00  0.00     0.002 A 
ATOM     11  C   UNL d   1     -47.425  12.941  23.133  0.00  0.00     0.000 A 
ATOM     12  C   UNL d   1     -46.625  12.768  23.176  0.00  0.00     0.000 A 
ATOM     13  C   UNL d   1     -46.072  13.355  23.000  0.00  0.00     0.000 A 
ATOM     14  C   UNL d   1     -46.325  14.110  22.782  0.00  0.00     0.000 A 
ATOM     15  C   UNL d   1     -47.128  14.268  22.743  0.00  0.00     0.000 A 
ENDBRANCH   9  10
ENDBRANCH   1   9
TORSDOF 3
ENDMDL
