MODEL 1
REMARK VINA RESULT:      -3.5      0.000      0.000
REMARK  5 active torsions:
REMARK  status: ('A' for Active; 'I' for Inactive)
REMARK    1  A    between atoms: N_4  and  C_1 
REMARK    2  A    between atoms: N_5  and  C_1 
REMARK       I    between atoms: C_2  and  N_3 
REMARK    3  A    between atoms: C_8  and  C_2 
REMARK    4  A    between atoms: N_3  and  N_4 
REMARK    5  A    between atoms: C_9  and  N_5 
ROOT
ATOM      1  N   UNL d   1      32.971  20.159 -22.124  0.00  0.00    -0.273 N 
ATOM      2  H   UNL d   1      33.326  20.633 -22.690  0.00  0.00     0.189 HD
ENDROOT
BRANCH   1   3
ATOM      3  N   UNL d   1      32.786  19.365 -22.294  0.00  0.00    -0.264 N 
ATOM      4  C   UNL d   1      32.928  19.079 -23.066  0.00  0.00     0.271 C 
ATOM      5  O   UNL d   1      33.239  19.554 -23.649  0.00  0.00    -0.266 OA
ATOM      6  H   UNL d   1      32.477  18.886 -21.722  0.00  0.00     0.190 HD
BRANCH   4   7
ATOM      7  C   UNL d   1      32.744  18.276 -23.246  0.00  0.00     0.057 A 
ATOM      8  C   UNL d   1      33.240  17.668 -22.999  0.00  0.00     0.005 A 
ATOM      9  C   UNL d   1      33.052  16.882 -23.178  0.00  0.00     0.000 A 
ATOM     10  C   UNL d   1      32.369  16.704 -23.605  0.00  0.00     0.000 A 
ATOM     11  C   UNL d   1      31.878  17.313 -23.848  0.00  0.00     0.000 A 
ATOM     12  C   UNL d   1      32.051  18.095 -23.678  0.00  0.00     0.005 A 
ENDBRANCH   4   7
ENDBRANCH   1   3
BRANCH   1  13
ATOM     13  C   UNL d   1      32.798  20.480 -21.381  0.00  0.00     0.191 C 
ATOM     14  S   UNL d   1      33.237  20.258 -20.719  0.00  0.00    -0.039 SA
BRANCH  13  15
ATOM     15  N   UNL d   1      32.177  21.030 -21.306  0.00  0.00    -0.331 N 
ATOM     16  H   UNL d   1      31.400  20.787 -21.395  0.00  0.00     0.168 HD
BRANCH  15  17
ATOM     17  C   UNL d   1      32.352  21.817 -21.142  0.00  0.00     0.058 A 
ATOM     18  C   UNL d   1      32.504  22.335 -21.769  0.00  0.00     0.017 A 
ATOM     19  C   UNL d   1      32.682  23.127 -21.607  0.00  0.00     0.002 A 
ATOM     20  C   UNL d   1      32.706  23.397 -20.828  0.00  0.00     0.000 A 
ATOM     21  C   UNL d   1      32.550  22.857 -20.211  0.00  0.00     0.002 A 
ATOM     22  C   UNL d   1      32.377  22.087 -20.362  0.00  0.00     0.017 A 
ENDBRANCH  15  17
ENDBRANCH  13  15
ENDBRANCH   1  13
TORSDOF 5
ENDMDL
MODEL 2
REMARK VINA RESULT:      -2.7      1.210      4.924
REMARK  5 active torsions:
REMARK  status: ('A' for Active; 'I' for Inactive)
REMARK    1  A    between atoms: N_4  and  C_1 
REMARK    2  A    between atoms: N_5  and  C_1 
REMARK       I    between atoms: C_2  and  N_3 
REMARK    3  A    between atoms: C_8  and  C_2 
REMARK    4  A    between atoms: N_3  and  N_4 
REMARK    5  A    between atoms: C_9  and  N_5 
ROOT
ATOM      1  N   UNL d   1      32.517  20.424 -22.167  0.00  0.00    -0.273 N 
ATOM      2  H   UNL d   1      31.835  20.033 -21.940  0.00  0.00     0.189 HD
ENDROOT
BRANCH   1   3
ATOM      3  N   UNL d   1      32.723  21.151 -21.816  0.00  0.00    -0.264 N 
ATOM      4  C   UNL d   1      32.304  21.398 -21.136  0.00  0.00     0.271 C 
ATOM      5  O   UNL d   1      31.707  20.950 -20.814  0.00  0.00    -0.266 OA
ATOM      6  H   UNL d   1      33.314  21.604 -22.129  0.00  0.00     0.190 HD
BRANCH   4   7
ATOM      7  C   UNL d   1      32.507  22.133 -20.776  0.00  0.00     0.057 A 
ATOM      8  C   UNL d   1      32.315  22.845 -21.140  0.00  0.00     0.005 A 
ATOM      9  C   UNL d   1      32.518  23.562 -20.780  0.00  0.00     0.000 A 
ATOM     10  C   UNL d   1      32.912  23.568 -20.056  0.00  0.00     0.000 A 
ATOM     11  C   UNL d   1      33.101  22.857 -19.696  0.00  0.00     0.000 A 
ATOM     12  C   UNL d   1      32.907  22.139 -20.041  0.00  0.00     0.005 A 
ENDBRANCH   4   7
ENDBRANCH   1   3
BRANCH   1  13
ATOM     13  C   UNL d   1      33.000  20.089 -22.749  0.00  0.00     0.191 C 
ATOM     14  S   UNL d   1      33.241  20.536 -23.399  0.00  0.00    -0.039 SA
BRANCH  13  15
ATOM     15  N   UNL d   1      33.241  19.294 -22.675  0.00  0.00    -0.331 N 
ATOM     16  H   UNL d   1      33.793  19.084 -22.108  0.00  0.00     0.168 HD
BRANCH  15  17
ATOM     17  C   UNL d   1      32.920  18.728 -23.177  0.00  0.00     0.058 A 
ATOM     18  C   UNL d   1      32.528  18.075 -22.850  0.00  0.00     0.017 A 
ATOM     19  C   UNL d   1      32.205  17.503 -23.353  0.00  0.00     0.002 A 
ATOM     20  C   UNL d   1      32.271  17.582 -24.171  0.00  0.00     0.000 A 
ATOM     21  C   UNL d   1      32.670  18.247 -24.479  0.00  0.00     0.002 A 
ATOM     22  C   UNL d   1      32.986  18.806 -23.996  0.00  0.00     0.017 A 
ENDBRANCH  15  17
ENDBRANCH  13  15
ENDBRANCH   1  13
TORSDOF 5
ENDMDL
MODEL 3
REMARK VINA RESULT:      -2.2      2.893      4.220
REMARK  5 active torsions:
REMARK  status: ('A' for Active; 'I' for Inactive)
REMARK    1  A    between atoms: N_4  and  C_1 
REMARK    2  A    between atoms: N_5  and  C_1 
REMARK       I    between atoms: C_2  and  N_3 
REMARK    3  A    between atoms: C_8  and  C_2 
REMARK    4  A    between atoms: N_3  and  N_4 
REMARK    5  A    between atoms: C_9  and  N_5 
ROOT
ATOM      1  N   UNL d   1      31.075  17.651 -24.377  0.00  0.00    -0.273 N 
ATOM      2  H   UNL d   1      30.897  18.290 -24.857  0.00  0.00     0.189 HD
ENDROOT
BRANCH   1   3
ATOM      3  N   UNL d   1      30.480  17.114 -24.150  0.00  0.00    -0.264 N 
ATOM      4  C   UNL d   1      29.710  17.220 -24.459  0.00  0.00     0.271 C 
ATOM      5  O   UNL d   1      29.532  17.828 -24.969  0.00  0.00    -0.266 OA
ATOM      6  H   UNL d   1      30.646  16.507 -23.645  0.00  0.00     0.190 HD
BRANCH   4   7
ATOM      7  C   UNL d   1      29.102  16.680 -24.235  0.00  0.00     0.057 A 
ATOM      8  C   UNL d   1      28.641  16.823 -23.568  0.00  0.00     0.005 A 
ATOM      9  C   UNL d   1      28.046  16.290 -23.354  0.00  0.00     0.000 A 
ATOM     10  C   UNL d   1      27.912  15.612 -23.806  0.00  0.00     0.000 A 
ATOM     11  C   UNL d   1      28.373  15.474 -24.468  0.00  0.00     0.000 A 
ATOM     12  C   UNL d   1      28.966  15.994 -24.692  0.00  0.00     0.005 A 
ENDBRANCH   4   7
ENDBRANCH   1   3
BRANCH   1  13
ATOM     13  C   UNL d   1      31.854  17.545 -24.119  0.00  0.00     0.191 C 
ATOM     14  S   UNL d   1      32.061  16.878 -23.681  0.00  0.00    -0.039 SA
BRANCH  13  15
ATOM     15  N   UNL d   1      32.430  18.118 -24.306  0.00  0.00    -0.331 N 
ATOM     16  H   UNL d   1      32.723  18.172 -25.069  0.00  0.00     0.168 HD
BRANCH  15  17
ATOM     17  C   UNL d   1      32.699  18.625 -23.718  0.00  0.00     0.058 A 
ATOM     18  C   UNL d   1      32.840  19.420 -23.904  0.00  0.00     0.017 A 
ATOM     19  C   UNL d   1      33.111  19.933 -23.314  0.00  0.00     0.002 A 
ATOM     20  C   UNL d   1      33.239  19.656 -22.548  0.00  0.00     0.000 A 
ATOM     21  C   UNL d   1      33.091  18.851 -22.382  0.00  0.00     0.002 A 
ATOM     22  C   UNL d   1      32.828  18.348 -22.951  0.00  0.00     0.017 A 
ENDBRANCH  15  17
ENDBRANCH  13  15
ENDBRANCH   1  13
TORSDOF 5
ENDMDL
