MODEL 1
REMARK VINA RESULT:      -4.9      0.000      0.000
REMARK  3 active torsions:
REMARK  status: ('A' for Active; 'I' for Inactive)
REMARK    1  A    between atoms: C_11  and  N_1 
REMARK    2  A    between atoms: C_3  and  C_6 
REMARK    3  A    between atoms: C_6  and  N_5 
ROOT
ATOM      1  N   UNL d   1      56.385  -0.041  32.572  0.00  0.00    -0.301 N 
ATOM      2  N   UNL d   1      57.190  -0.046  31.118  0.00  0.00    -0.300 N 
ATOM      3  C   UNL d   1      56.569   0.682  32.186  0.00  0.00     0.100 A 
ATOM      4  C   UNL d   1      56.609  -0.753  32.220  0.00  0.00     0.100 A 
ATOM      5  C   UNL d   1      57.006  -0.769  31.504  0.00  0.00     0.100 A 
ATOM      6  C   UNL d   1      56.973   0.676  31.457  0.00  0.00     0.100 A 
ENDROOT
BRANCH   2   7
ATOM      7  C   UNL d   1      57.594  -0.052  30.389  0.00  0.00     0.080 C 
BRANCH   7   8
ATOM      8  C   UNL d   1      58.407   0.087  30.365  0.00  0.00     0.019 A 
ATOM      9  C   UNL d   1      58.868  -0.234  29.741  0.00  0.00     0.022 A 
ATOM     10  C   UNL d   1      59.680  -0.096  29.717  0.00  0.00     0.120 A 
ATOM     11  C   UNL d   1      58.503  -0.682  29.160  0.00  0.00     0.003 A 
ATOM     12  N   UNL d   1      60.138  -0.404  29.112  0.00  0.00    -0.241 NA
ATOM     13  C   UNL d   1      60.043   0.365  30.317  0.00  0.00     0.213 A 
ATOM     14  C   UNL d   1      59.775  -0.865  28.511  0.00  0.00     0.099 A 
ATOM     15  C   UNL d   1      58.963  -1.004  28.535  0.00  0.00     0.021 A 
ATOM     16  C   UNL d   1      59.583   0.682  30.936  0.00  0.00     0.044 A 
ATOM     17  O   UNL d   1      60.855   0.503  30.294  0.00  0.00    -0.285 OA
ATOM     18  C   UNL d   1      58.771   0.544  30.960  0.00  0.00     0.005 A 
ENDBRANCH   7   8
ENDBRANCH   2   7
BRANCH   1  19
ATOM     19  C   UNL d   1      55.989   0.187  33.271  0.00  0.00     0.064 A 
ATOM     20  C   UNL d   1      56.253   0.484  33.982  0.00  0.00     0.018 A 
ATOM     21  C   UNL d   1      55.683   0.660  34.589  0.00  0.00     0.002 A 
ATOM     22  C   UNL d   1      54.900   0.539  34.468  0.00  0.00     0.000 A 
ATOM     23  C   UNL d   1      54.641   0.236  33.738  0.00  0.00     0.002 A 
ATOM     24  C   UNL d   1      55.183   0.062  33.145  0.00  0.00     0.018 A 
ENDBRANCH   1  19
TORSDOF 3
ENDMDL
MODEL 2
REMARK VINA RESULT:      -4.9      1.539      4.933
REMARK  3 active torsions:
REMARK  status: ('A' for Active; 'I' for Inactive)
REMARK    1  A    between atoms: C_11  and  N_1 
REMARK    2  A    between atoms: C_3  and  C_6 
REMARK    3  A    between atoms: C_6  and  N_5 
ROOT
ATOM      1  N   UNL d   1      57.974  -0.564  30.396  0.00  0.00    -0.301 N 
ATOM      2  N   UNL d   1      57.008   0.249  31.478  0.00  0.00    -0.300 N 
ATOM      3  C   UNL d   1      57.978   0.276  30.422  0.00  0.00     0.100 A 
ATOM      4  C   UNL d   1      57.483  -0.979  30.915  0.00  0.00     0.100 A 
ATOM      5  C   UNL d   1      57.003  -0.591  31.452  0.00  0.00     0.100 A 
ATOM      6  C   UNL d   1      57.493   0.680  30.966  0.00  0.00     0.100 A 
ENDROOT
BRANCH   2   7
ATOM      7  C   UNL d   1      56.522   0.653  32.021  0.00  0.00     0.080 C 
BRANCH   7   8
ATOM      8  C   UNL d   1      56.716   0.660  32.823  0.00  0.00     0.019 A 
ATOM      9  C   UNL d   1      56.106   0.661  33.400  0.00  0.00     0.022 A 
ATOM     10  C   UNL d   1      56.299   0.668  34.201  0.00  0.00     0.120 A 
ATOM     11  C   UNL d   1      55.323   0.655  33.159  0.00  0.00     0.003 A 
ATOM     12  N   UNL d   1      55.712   0.669  34.773  0.00  0.00    -0.241 NA
ATOM     13  C   UNL d   1      57.105   0.674  34.437  0.00  0.00     0.213 A 
ATOM     14  C   UNL d   1      54.905   0.662  34.537  0.00  0.00     0.099 A 
ATOM     15  C   UNL d   1      54.712   0.655  33.736  0.00  0.00     0.021 A 
ATOM     16  C   UNL d   1      57.708   0.673  33.862  0.00  0.00     0.044 A 
ATOM     17  O   UNL d   1      57.298   0.681  35.238  0.00  0.00    -0.285 OA
ATOM     18  C   UNL d   1      57.515   0.666  33.061  0.00  0.00     0.005 A 
ENDBRANCH   7   8
ENDBRANCH   2   7
BRANCH   1  19
ATOM     19  C   UNL d   1      58.519  -0.760  29.795  0.00  0.00     0.064 A 
ATOM     20  C   UNL d   1      59.040  -0.312  29.357  0.00  0.00     0.018 A 
ATOM     21  C   UNL d   1      59.525  -0.701  28.776  0.00  0.00     0.002 A 
ATOM     22  C   UNL d   1      59.475  -1.492  28.659  0.00  0.00     0.000 A 
ATOM     23  C   UNL d   1      58.940  -1.940  29.112  0.00  0.00     0.002 A 
ATOM     24  C   UNL d   1      58.467  -1.574  29.675  0.00  0.00     0.018 A 
ENDBRANCH   1  19
TORSDOF 3
ENDMDL
MODEL 3
REMARK VINA RESULT:      -2.2      1.632      5.080
REMARK  3 active torsions:
REMARK  status: ('A' for Active; 'I' for Inactive)
REMARK    1  A    between atoms: C_11  and  N_1 
REMARK    2  A    between atoms: C_3  and  C_6 
REMARK    3  A    between atoms: C_6  and  N_5 
ROOT
ATOM      1  N   UNL d   1      58.644  -0.069  30.248  0.00  0.00    -0.301 N 
ATOM      2  N   UNL d   1      57.450   0.180  31.377  0.00  0.00    -0.300 N 
ATOM      3  C   UNL d   1      58.796   0.395  30.931  0.00  0.00     0.100 A 
ATOM      4  C   UNL d   1      57.895  -0.400  30.145  0.00  0.00     0.100 A 
ATOM      5  C   UNL d   1      57.298  -0.284  30.694  0.00  0.00     0.100 A 
ATOM      6  C   UNL d   1      58.195   0.518  31.495  0.00  0.00     0.100 A 
ENDROOT
BRANCH   2   7
ATOM      7  C   UNL d   1      56.849   0.303  31.941  0.00  0.00     0.080 C 
BRANCH   7   8
ATOM      8  C   UNL d   1      56.557  -0.332  32.379  0.00  0.00     0.019 A 
ATOM      9  C   UNL d   1      56.276  -0.206  33.160  0.00  0.00     0.022 A 
ATOM     10  C   UNL d   1      55.984  -0.840  33.598  0.00  0.00     0.120 A 
ATOM     11  C   UNL d   1      56.295   0.549  33.479  0.00  0.00     0.003 A 
ATOM     12  N   UNL d   1      55.707  -0.729  34.362  0.00  0.00    -0.241 NA
ATOM     13  C   UNL d   1      55.970  -1.609  33.262  0.00  0.00     0.213 A 
ATOM     14  C   UNL d   1      55.722   0.041  34.699  0.00  0.00     0.099 A 
ATOM     15  C   UNL d   1      56.014   0.675  34.261  0.00  0.00     0.021 A 
ATOM     16  C   UNL d   1      56.249  -1.730  32.486  0.00  0.00     0.044 A 
ATOM     17  O   UNL d   1      55.678  -2.243  33.700  0.00  0.00    -0.285 OA
ATOM     18  C   UNL d   1      56.541  -1.096  32.048  0.00  0.00     0.005 A 
ENDBRANCH   7   8
ENDBRANCH   2   7
BRANCH   1  19
ATOM     19  C   UNL d   1      59.365  -0.065  29.826  0.00  0.00     0.064 A 
ATOM     20  C   UNL d   1      60.117   0.181  30.021  0.00  0.00     0.018 A 
ATOM     21  C   UNL d   1      60.735   0.103  29.442  0.00  0.00     0.002 A 
ATOM     22  C   UNL d   1      60.587  -0.204  28.718  0.00  0.00     0.000 A 
ATOM     23  C   UNL d   1      59.816  -0.452  28.528  0.00  0.00     0.002 A 
ATOM     24  C   UNL d   1      59.211  -0.382  29.080  0.00  0.00     0.018 A 
ENDBRANCH   1  19
TORSDOF 3
ENDMDL
