MODEL 1
REMARK VINA RESULT:     120.0      0.000      0.000
REMARK  5 active torsions:
REMARK  status: ('A' for Active; 'I' for Inactive)
REMARK    1  A    between atoms: C_7  and  C_1 
REMARK    2  A    between atoms: C_8  and  N_2 
REMARK    3  A    between atoms: C_13  and  C_7 
REMARK    4  A    between atoms: C_14  and  C_8 
REMARK    5  A    between atoms: O_22  and  C_15 
ROOT
ATOM      1  C   UNL d   1     -55.938-100.572 -43.144  0.00  0.00     0.095 A 
ATOM      2  N   UNL d   1     -55.383-101.902 -43.260  0.00  0.00    -0.304 N 
ATOM      3  C   UNL d   1     -55.778-100.582 -42.329  0.00  0.00     0.202 A 
ATOM      4  C   UNL d   1     -55.742-101.231 -43.617  0.00  0.00     0.087 A 
ATOM      5  C   UNL d   1     -55.424-101.247 -41.988  0.00  0.00     0.057 A 
ATOM      6  C   UNL d   1     -55.225-101.911 -42.454  0.00  0.00     0.067 A 
ATOM      7  C   UNL d   1     -54.874-102.568 -42.113  0.00  0.00     0.020 A 
ATOM      8  C   UNL d   1     -55.263-101.260 -41.176  0.00  0.00     0.029 A 
ATOM      9  O   UNL d   1     -55.974 -99.925 -41.859  0.00  0.00    -0.286 OA
ATOM     10  C   UNL d   1     -54.910-101.927 -40.840  0.00  0.00     0.094 A 
ATOM     11  C   UNL d   1     -54.716-102.577 -41.306  0.00  0.00     0.026 A 
ENDROOT
BRANCH   1  12
ATOM     12  C   UNL d   1     -56.291 -99.909 -43.487  0.00  0.00     0.200 C 
ATOM     13  O   UNL d   1     -57.005 -99.638 -43.206  0.00  0.00    -0.286 OA
BRANCH  12  14
ATOM     14  C   UNL d   1     -55.915 -99.528 -44.116  0.00  0.00     0.039 A 
ATOM     15  C   UNL d   1     -56.363 -99.233 -44.740  0.00  0.00     0.003 A 
ATOM     16  C   UNL d   1     -55.982 -98.854 -45.362  0.00  0.00     0.000 A 
ATOM     17  C   UNL d   1     -55.160 -98.771 -45.360  0.00  0.00     0.000 A 
ATOM     18  C   UNL d   1     -54.721 -99.072 -44.727  0.00  0.00     0.000 A 
ATOM     19  C   UNL d   1     -55.097 -99.453 -44.099  0.00  0.00     0.003 A 
ENDBRANCH  12  14
ENDBRANCH   1  12
BRANCH   2  20
ATOM     20  C   UNL d   1     -55.189-102.552 -43.726  0.00  0.00     0.080 C 
BRANCH  20  21
ATOM     21  C   UNL d   1     -55.279-102.511 -44.549  0.00  0.00     0.018 A 
ATOM     22  C   UNL d   1     -54.725-102.096 -44.994  0.00  0.00     0.002 A 
ATOM     23  C   UNL d   1     -54.812-102.053 -45.810  0.00  0.00     0.000 A 
ATOM     24  C   UNL d   1     -55.443-102.419 -46.178  0.00  0.00     0.000 A 
ATOM     25  C   UNL d   1     -55.998-102.836 -45.722  0.00  0.00     0.000 A 
ATOM     26  C   UNL d   1     -55.529-102.376 -46.994  0.00  0.00     0.000 C 
ATOM     27  C   UNL d   1     -55.912-102.879 -44.906  0.00  0.00     0.002 A 
ENDBRANCH  20  21
ENDBRANCH   2  20
BRANCH  10  28
ATOM     28  O   UNL d   1     -54.754-101.930 -40.029  0.00  0.00    -0.328 OA
ATOM     29  C   UNL d   1     -55.193-102.419 -39.537  0.00  0.00     0.181 C 
ENDBRANCH  10  28
TORSDOF 5
ENDMDL
