MODEL 1
REMARK VINA RESULT:      65.7      0.000      0.000
REMARK  5 active torsions:
REMARK  status: ('A' for Active; 'I' for Inactive)
REMARK    1  A    between atoms: O_8  and  S_1 
REMARK    2  A    between atoms: C_9  and  S_1 
REMARK    3  A    between atoms: C_7  and  C_2 
REMARK    4  A    between atoms: C_20  and  C_7 
REMARK    5  A    between atoms: C_14  and  O_8 
ROOT
ATOM      1  C   UNL d   1     -47.890  29.089  34.947  0.00  0.00     0.139 A 
ATOM      2  C   UNL d   1     -48.886  28.207  35.040  0.00  0.00     0.064 A 
ATOM      3  C   UNL d   1     -48.311  28.612  35.472  0.00  0.00     0.220 A 
ATOM      4  C   UNL d   1     -48.819  28.434  34.247  0.00  0.00     0.105 A 
ATOM      5  O   UNL d   1     -48.203  28.978  34.192  0.00  0.00    -0.304 OA
ATOM      6  C   UNL d   1     -49.334  28.110  33.681  0.00  0.00     0.050 A 
ATOM      7  C   UNL d   1     -49.468  27.656  35.268  0.00  0.00     0.007 A 
ATOM      8  C   UNL d   1     -49.907  27.566  33.907  0.00  0.00     0.116 A 
ATOM      9  O   UNL d   1     -48.183  28.550  36.283  0.00  0.00    -0.284 OA
ATOM     10  C   UNL d   1     -49.974  27.339  34.700  0.00  0.00     0.026 A 
ENDROOT
BRANCH   8  11
ATOM     11  O   UNL d   1     -50.414  27.246  33.348  0.00  0.00    -0.227 OA
BRANCH  11  12
ATOM     12  S   UNL d   1     -50.588  26.448  33.349  0.00  0.00     0.304 S 
ATOM     13  O   UNL d   1     -49.789  26.270  33.385  0.00  0.00    -0.193 OA
ATOM     14  O   UNL d   1     -51.387  26.626  33.314  0.00  0.00    -0.193 OA
BRANCH  12  15
ATOM     15  C   UNL d   1     -50.764  25.643  33.351  0.00  0.00     0.111 A 
ATOM     16  C   UNL d   1     -51.547  25.391  33.398  0.00  0.00     0.013 A 
ATOM     17  C   UNL d   1     -51.725  24.581  33.400  0.00  0.00     0.001 A 
ATOM     18  C   UNL d   1     -51.114  24.033  33.354  0.00  0.00     0.000 A 
ATOM     19  C   UNL d   1     -50.327  24.282  33.307  0.00  0.00     0.001 A 
ATOM     20  C   UNL d   1     -51.289  23.228  33.356  0.00  0.00     0.000 C 
ATOM     21  C   UNL d   1     -50.155  25.084  33.306  0.00  0.00     0.013 A 
ENDBRANCH  12  15
ENDBRANCH  11  12
ENDBRANCH   8  11
BRANCH   1  22
ATOM     22  C   UNL d   1     -47.261  29.590  35.143  0.00  0.00     0.029 C 
BRANCH  22  23
ATOM     23  C   UNL d   1     -47.371  30.401  35.136  0.00  0.00     0.021 A 
ATOM     24  C   UNL d   1     -47.181  30.848  35.807  0.00  0.00     0.099 A 
ATOM     25  N   UNL d   1     -47.289  31.665  35.807  0.00  0.00    -0.242 NA
ATOM     26  C   UNL d   1     -47.589  32.034  35.132  0.00  0.00     0.099 A 
ATOM     27  C   UNL d   1     -47.779  31.588  34.462  0.00  0.00     0.021 A 
ATOM     28  C   UNL d   1     -47.668  30.776  34.470  0.00  0.00     0.003 A 
ENDBRANCH  22  23
ENDBRANCH   1  22
TORSDOF 5
ENDMDL
