MODEL 1
REMARK VINA RESULT:      45.5      0.000      0.000
REMARK  1 active torsions:
REMARK  status: ('A' for Active; 'I' for Inactive)
REMARK    1  A    between atoms: C_2  and  C_1 
ROOT
ATOM      1  C   UNL d   1      13.696  13.184  -3.180  0.00  0.00     0.087 A 
ATOM      2  C   UNL d   1      13.280  12.730  -3.728  0.00  0.00     0.302 A 
ATOM      3  C   UNL d   1      13.849  13.986  -3.324  0.00  0.00     0.009 A 
ATOM      4  O   UNL d   1      13.014  13.075  -4.423  0.00  0.00    -0.273 OA
ATOM      5  C   UNL d   1      13.158  13.868  -4.580  0.00  0.00     0.106 A 
ATOM      6  C   UNL d   1      13.575  14.323  -4.032  0.00  0.00     0.023 A 
ATOM      7  C   UNL d   1      12.892  14.214  -5.274  0.00  0.00     0.067 A 
ATOM      8  O   UNL d   1      13.136  11.937  -3.571  0.00  0.00    -0.259 OA
ATOM      9  C   UNL d   1      13.727  15.124  -4.176  0.00  0.00     0.005 A 
ATOM     10  C   UNL d   1      13.036  15.007  -5.431  0.00  0.00     0.198 A 
ATOM     11  C   UNL d   1      13.453  15.461  -4.883  0.00  0.00     0.042 A 
ATOM     12  O   UNL d   1      12.771  15.353  -6.126  0.00  0.00    -0.286 OA
ENDROOT
BRANCH   1  13
ATOM     13  C   UNL d   1      13.970  12.859  -2.482  0.00  0.00     0.116 A 
ATOM     14  N   UNL d   1      14.727  12.678  -2.250  0.00  0.00    -0.238 NA
ATOM     15  C   UNL d   1      14.709  12.362  -1.498  0.00  0.00     0.088 A 
ATOM     16  C   UNL d   1      15.321  12.088  -1.008  0.00  0.00     0.020 A 
ATOM     17  C   UNL d   1      13.938  12.347  -1.260  0.00  0.00     0.049 A 
ATOM     18  C   UNL d   1      15.111  11.794  -0.257  0.00  0.00     0.002 A 
ATOM     19  C   UNL d   1      14.324  11.779  -0.014  0.00  0.00     0.001 A 
ATOM     20  C   UNL d   1      13.733  12.059  -0.522  0.00  0.00     0.008 A 
ATOM     21  S   UNL d   1      13.459  12.650  -1.852  0.00  0.00    -0.066 SA
ENDBRANCH   1  13
TORSDOF 1
ENDMDL
