MODEL 1
REMARK VINA RESULT:      25.1      0.000      0.000
REMARK  5 active torsions:
REMARK  status: ('A' for Active; 'I' for Inactive)
REMARK    1  A    between atoms: N_2  and  C_1 
REMARK    2  A    between atoms: C_4  and  C_8 
REMARK       I    between atoms: N_7  and  C_4 
REMARK    3  A    between atoms: C_9  and  C_6 
REMARK    4  A    between atoms: C_14  and  N_7 
REMARK    5  A    between atoms: C_8  and  C_9 
ROOT
ATOM      1  C   UNL d   1      14.048  12.226  -2.805  0.00  0.00     0.265 C 
ATOM      2  N   UNL d   1      13.399  12.582  -3.133  0.00  0.00    -0.272 N 
ATOM      3  O   UNL d   1      14.584  11.779  -3.245  0.00  0.00    -0.267 OA
ATOM      4  C   UNL d   1      12.879  13.021  -2.678  0.00  0.00     0.102 C 
ENDROOT
BRANCH   1   5
ATOM      5  C   UNL d   1      14.178  12.315  -1.995  0.00  0.00     0.062 C 
BRANCH   5   6
ATOM      6  C   UNL d   1      14.950  12.539  -1.734  0.00  0.00     0.011 C 
BRANCH   6   7
ATOM      7  C   UNL d   1      15.051  13.169  -1.160  0.00  0.00     0.031 A 
ATOM      8  S   UNL d   1      14.999  13.969  -1.304  0.00  0.00    -0.064 SA
ATOM      9  C   UNL d   1      15.132  14.388  -0.600  0.00  0.00     0.156 A 
ATOM     10  C   UNL d   1      15.269  13.810  -0.014  0.00  0.00     0.031 A 
ATOM     11  C   UNL d   1      15.218  13.092  -0.358  0.00  0.00     0.009 A 
BRANCH   9  12
ATOM     12  N   UNL d   1      15.134  15.206  -0.479  0.00  0.00    -0.107 N 
ATOM     13  O   UNL d   1      15.796  15.591  -0.083  0.00  0.00    -0.531 OA
ATOM     14  O   UNL d   1      14.504  15.728  -0.726  0.00  0.00    -0.531 OA
ENDBRANCH   9  12
ENDBRANCH   6   7
ENDBRANCH   5   6
ENDBRANCH   1   5
BRANCH   2  15
ATOM     15  C   UNL d   1      13.259  12.499  -3.942  0.00  0.00     0.067 A 
ATOM     16  C   UNL d   1      12.899  11.833  -4.232  0.00  0.00     0.018 A 
ATOM     17  C   UNL d   1      12.773  11.780  -5.041  0.00  0.00     0.002 A 
ATOM     18  C   UNL d   1      13.000  12.378  -5.559  0.00  0.00     0.000 A 
ATOM     19  C   UNL d   1      13.372  13.058  -5.227  0.00  0.00     0.002 A 
ATOM     20  C   UNL d   1      13.500  13.120  -4.438  0.00  0.00     0.018 A 
ENDBRANCH   2  15
TORSDOF 5
ENDMDL
MODEL 2
REMARK VINA RESULT:      26.8      1.198      1.733
REMARK  5 active torsions:
REMARK  status: ('A' for Active; 'I' for Inactive)
REMARK    1  A    between atoms: N_2  and  C_1 
REMARK    2  A    between atoms: C_4  and  C_8 
REMARK       I    between atoms: N_7  and  C_4 
REMARK    3  A    between atoms: C_9  and  C_6 
REMARK    4  A    between atoms: C_14  and  N_7 
REMARK    5  A    between atoms: C_8  and  C_9 
ROOT
ATOM      1  C   UNL d   1      13.415  12.643  -3.400  0.00  0.00     0.265 C 
ATOM      2  N   UNL d   1      13.189  12.474  -4.159  0.00  0.00    -0.272 N 
ATOM      3  O   UNL d   1      13.815  13.335  -3.197  0.00  0.00    -0.267 OA
ATOM      4  C   UNL d   1      12.792  11.780  -4.340  0.00  0.00     0.102 C 
ENDROOT
BRANCH   1   5
ATOM      5  C   UNL d   1      13.238  12.099  -2.806  0.00  0.00     0.062 C 
BRANCH   5   6
ATOM      6  C   UNL d   1      13.874  11.779  -2.351  0.00  0.00     0.011 C 
BRANCH   6   7
ATOM      7  C   UNL d   1      14.085  12.123  -1.594  0.00  0.00     0.031 A 
ATOM      8  S   UNL d   1      14.685  12.655  -1.454  0.00  0.00    -0.064 SA
ATOM      9  C   UNL d   1      14.703  12.849  -0.647  0.00  0.00     0.156 A 
ATOM     10  C   UNL d   1      14.086  12.411  -0.295  0.00  0.00     0.031 A 
ATOM     11  C   UNL d   1      13.727  11.985  -0.866  0.00  0.00     0.009 A 
BRANCH   9  12
ATOM     12  N   UNL d   1      15.216  13.364  -0.251  0.00  0.00    -0.107 N 
ATOM     13  O   UNL d   1      14.954  14.151  -0.016  0.00  0.00    -0.531 OA
ATOM     14  O   UNL d   1      16.023  13.172  -0.044  0.00  0.00    -0.531 OA
ENDBRANCH   9  12
ENDBRANCH   6   7
ENDBRANCH   5   6
ENDBRANCH   1   5
BRANCH   2  15
ATOM     15  C   UNL d   1      13.361  13.010  -4.761  0.00  0.00     0.067 A 
ATOM     16  C   UNL d   1      13.252  13.806  -4.648  0.00  0.00     0.018 A 
ATOM     17  C   UNL d   1      13.432  14.315  -5.266  0.00  0.00     0.002 A 
ATOM     18  C   UNL d   1      13.716  14.042  -5.989  0.00  0.00     0.000 A 
ATOM     19  C   UNL d   1      13.817  13.210  -6.076  0.00  0.00     0.002 A 
ATOM     20  C   UNL d   1      13.645  12.704  -5.479  0.00  0.00     0.018 A 
ENDBRANCH   2  15
TORSDOF 5
ENDMDL
