MODEL 1
REMARK VINA RESULT:      -4.2      0.000      0.000
REMARK  4 active torsions:
REMARK  status: ('A' for Active; 'I' for Inactive)
REMARK    1  A    between atoms: C_3  and  C_1 
REMARK       I    between atoms: N_6  and  C_3 
REMARK    2  A    between atoms: C_12  and  N_5 
REMARK    3  A    between atoms: C_8  and  N_6 
REMARK    4  A    between atoms: S_11  and  C_10 
ROOT
ATOM      1  C   UNL d   1      57.879   0.252  30.208  0.00  0.00     0.348 C 
ATOM      2  N   UNL d   1      58.664   0.011  30.068  0.00  0.00    -0.363 NA
ATOM      3  O   UNL d   1      57.451   0.682  29.610  0.00  0.00    -0.249 OA
ENDROOT
BRANCH   1   4
ATOM      4  C   UNL d   1      57.521   0.067  30.941  0.00  0.00     0.173 A 
ATOM      5  N   UNL d   1      57.075  -0.616  31.106  0.00  0.00    -0.159 NA
ATOM      6  N   UNL d   1      56.830  -0.564  31.900  0.00  0.00    -0.227 N 
ATOM      7  C   UNL d   1      57.120   0.138  32.215  0.00  0.00     0.102 A 
ATOM      8  C   UNL d   1      57.549   0.533  31.625  0.00  0.00     0.048 A 
BRANCH   6   9
ATOM      9  C   UNL d   1      56.372  -1.126  32.301  0.00  0.00     0.101 C 
ATOM     10  C   UNL d   1      55.946  -1.131  33.007  0.00  0.00     0.022 C 
ENDBRANCH   6   9
ENDBRANCH   1   4
BRANCH   2  11
ATOM     11  C   UNL d   1      59.458  -0.123  29.677  0.00  0.00     0.141 A 
ATOM     12  C   UNL d   1      59.573  -0.832  29.280  0.00  0.00     0.055 A 
ATOM     13  C   UNL d   1      60.280  -0.975  28.921  0.00  0.00     0.009 A 
ATOM     14  C   UNL d   1      60.883  -0.410  28.954  0.00  0.00     0.001 A 
ATOM     15  C   UNL d   1      60.761   0.289  29.349  0.00  0.00     0.003 A 
ATOM     16  C   UNL d   1      60.041   0.428  29.713  0.00  0.00     0.033 A 
BRANCH  12  17
ATOM     17  S   UNL d   1      58.972  -1.403  29.243  0.00  0.00    -0.110 SA
ATOM     18  C   UNL d   1      59.100  -2.141  28.878  0.00  0.00     0.074 C 
ENDBRANCH  12  17
ENDBRANCH   2  11
TORSDOF 4
ENDMDL
MODEL 2
REMARK VINA RESULT:      -3.8      1.208      4.180
REMARK  4 active torsions:
REMARK  status: ('A' for Active; 'I' for Inactive)
REMARK    1  A    between atoms: C_3  and  C_1 
REMARK       I    between atoms: N_6  and  C_3 
REMARK    2  A    between atoms: C_12  and  N_5 
REMARK    3  A    between atoms: C_8  and  N_6 
REMARK    4  A    between atoms: S_11  and  C_10 
ROOT
ATOM      1  C   UNL d   1      57.602   0.106  30.444  0.00  0.00     0.348 C 
ATOM      2  N   UNL d   1      57.363  -0.228  31.169  0.00  0.00    -0.363 NA
ATOM      3  O   UNL d   1      57.108   0.682  30.056  0.00  0.00    -0.249 OA
ENDROOT
BRANCH   1   4
ATOM      4  C   UNL d   1      58.330  -0.130  30.107  0.00  0.00     0.173 A 
ATOM      5  N   UNL d   1      59.023   0.330  30.072  0.00  0.00    -0.159 NA
ATOM      6  N   UNL d   1      59.604  -0.128  29.690  0.00  0.00    -0.227 N 
ATOM      7  C   UNL d   1      59.272  -0.856  29.496  0.00  0.00     0.102 A 
ATOM      8  C   UNL d   1      58.484  -0.862  29.752  0.00  0.00     0.048 A 
BRANCH   6   9
ATOM      9  C   UNL d   1      60.381   0.111  29.534  0.00  0.00     0.101 C 
ATOM     10  C   UNL d   1      61.089  -0.282  29.375  0.00  0.00     0.022 C 
ENDBRANCH   6   9
ENDBRANCH   1   4
BRANCH   2  11
ATOM     11  C   UNL d   1      56.891  -0.422  31.904  0.00  0.00     0.141 A 
ATOM     12  C   UNL d   1      57.077  -0.020  32.595  0.00  0.00     0.055 A 
ATOM     13  C   UNL d   1      56.666  -0.178  33.269  0.00  0.00     0.009 A 
ATOM     14  C   UNL d   1      56.061  -0.741  33.262  0.00  0.00     0.001 A 
ATOM     15  C   UNL d   1      55.882  -1.134  32.575  0.00  0.00     0.003 A 
ATOM     16  C   UNL d   1      56.303  -0.970  31.892  0.00  0.00     0.033 A 
BRANCH  12  17
ATOM     17  S   UNL d   1      57.684   0.546  32.608  0.00  0.00    -0.110 SA
ATOM     18  C   UNL d   1      58.136   0.678  33.296  0.00  0.00     0.074 C 
ENDBRANCH  12  17
ENDBRANCH   2  11
TORSDOF 4
ENDMDL
MODEL 3
REMARK VINA RESULT:      -3.7      2.047      4.838
REMARK  4 active torsions:
REMARK  status: ('A' for Active; 'I' for Inactive)
REMARK    1  A    between atoms: C_3  and  C_1 
REMARK       I    between atoms: N_6  and  C_3 
REMARK    2  A    between atoms: C_12  and  N_5 
REMARK    3  A    between atoms: C_8  and  N_6 
REMARK    4  A    between atoms: S_11  and  C_10 
ROOT
ATOM      1  C   UNL d   1      56.635  -0.583  31.952  0.00  0.00     0.348 C 
ATOM      2  N   UNL d   1      56.305  -0.101  32.546  0.00  0.00    -0.363 NA
ATOM      3  O   UNL d   1      56.505  -1.426  31.966  0.00  0.00    -0.249 OA
ENDROOT
BRANCH   1   4
ATOM      4  C   UNL d   1      57.091  -0.231  31.347  0.00  0.00     0.173 A 
ATOM      5  N   UNL d   1      57.695  -0.604  30.912  0.00  0.00    -0.159 NA
ATOM      6  N   UNL d   1      57.993  -0.044  30.373  0.00  0.00    -0.227 N 
ATOM      7  C   UNL d   1      57.578   0.659  30.476  0.00  0.00     0.102 A 
ATOM      8  C   UNL d   1      57.019   0.549  31.078  0.00  0.00     0.048 A 
BRANCH   6   9
ATOM      9  C   UNL d   1      58.602  -0.176  29.828  0.00  0.00     0.101 C 
ATOM     10  C   UNL d   1      58.867   0.210  29.148  0.00  0.00     0.022 C 
ENDBRANCH   6   9
ENDBRANCH   1   4
BRANCH   2  11
ATOM     11  C   UNL d   1      55.859   0.175  33.271  0.00  0.00     0.141 A 
ATOM     12  C   UNL d   1      56.298   0.415  33.922  0.00  0.00     0.055 A 
ATOM     13  C   UNL d   1      55.917   0.667  34.585  0.00  0.00     0.009 A 
ATOM     14  C   UNL d   1      55.091   0.682  34.608  0.00  0.00     0.001 A 
ATOM     15  C   UNL d   1      54.664   0.442  33.961  0.00  0.00     0.003 A 
ATOM     16  C   UNL d   1      55.056   0.187  33.289  0.00  0.00     0.033 A 
BRANCH  12  17
ATOM     17  S   UNL d   1      57.127   0.403  33.905  0.00  0.00    -0.110 SA
ATOM     18  C   UNL d   1      57.576   0.682  34.549  0.00  0.00     0.074 C 
ENDBRANCH  12  17
ENDBRANCH   2  11
TORSDOF 4
ENDMDL
MODEL 4
REMARK VINA RESULT:      -2.1      1.399      1.903
REMARK  4 active torsions:
REMARK  status: ('A' for Active; 'I' for Inactive)
REMARK    1  A    between atoms: C_3  and  C_1 
REMARK       I    between atoms: N_6  and  C_3 
REMARK    2  A    between atoms: C_12  and  N_5 
REMARK    3  A    between atoms: C_8  and  N_6 
REMARK    4  A    between atoms: S_11  and  C_10 
ROOT
ATOM      1  C   UNL d   1      57.297  -0.446  31.123  0.00  0.00     0.348 C 
ATOM      2  N   UNL d   1      57.689  -0.006  30.532  0.00  0.00    -0.363 NA
ATOM      3  O   UNL d   1      57.207  -1.289  31.038  0.00  0.00    -0.249 OA
ENDROOT
BRANCH   1   4
ATOM      4  C   UNL d   1      56.996  -0.049  31.794  0.00  0.00     0.173 A 
ATOM      5  N   UNL d   1      57.385   0.034  32.526  0.00  0.00    -0.159 NA
ATOM      6  N   UNL d   1      56.879   0.467  33.026  0.00  0.00    -0.227 N 
ATOM      7  C   UNL d   1      56.193   0.646  32.607  0.00  0.00     0.102 A 
ATOM      8  C   UNL d   1      56.261   0.329  31.844  0.00  0.00     0.048 A 
BRANCH   6   9
ATOM      9  C   UNL d   1      57.042   0.680  33.809  0.00  0.00     0.101 C 
ATOM     10  C   UNL d   1      56.661   0.567  34.533  0.00  0.00     0.022 C 
ENDBRANCH   6   9
ENDBRANCH   1   4
BRANCH   2  11
ATOM     11  C   UNL d   1      58.130   0.216  29.787  0.00  0.00     0.141 A 
ATOM     12  C   UNL d   1      58.947   0.144  29.790  0.00  0.00     0.055 A 
ATOM     13  C   UNL d   1      59.366   0.338  29.130  0.00  0.00     0.009 A 
ATOM     14  C   UNL d   1      58.972   0.608  28.455  0.00  0.00     0.001 A 
ATOM     15  C   UNL d   1      58.163   0.677  28.459  0.00  0.00     0.003 A 
ATOM     16  C   UNL d   1      57.743   0.478  29.133  0.00  0.00     0.033 A 
BRANCH  12  17
ATOM     17  S   UNL d   1      59.348  -0.127  30.465  0.00  0.00    -0.110 SA
ATOM     18  C   UNL d   1      60.178  -0.076  30.522  0.00  0.00     0.074 C 
ENDBRANCH  12  17
ENDBRANCH   2  11
TORSDOF 4
ENDMDL
