MODEL 1
REMARK VINA RESULT:      -8.0      0.000      0.000
REMARK  5 active torsions:
REMARK  status: ('A' for Active; 'I' for Inactive)
REMARK    1  A    between atoms: N_2  and  S_1 
REMARK    2  A    between atoms: C_6  and  S_1 
REMARK       I    between atoms: C_3  and  N_4 
REMARK    3  A    between atoms: C_5  and  C_3 
REMARK    4  A    between atoms: O_22  and  C_12 
REMARK    5  A    between atoms: O_26  and  C_16 
ROOT
ATOM      1  N   UNL d   1      52.838  32.308  53.294  0.00  0.00    -0.226 N 
ATOM      2  C   UNL d   1      51.680  34.193  52.174  0.00  0.00     0.265 C 
ATOM      3  N   UNL d   1      52.066  33.566  52.546  0.00  0.00    -0.269 N 
ATOM      4  C   UNL d   1      53.189  32.719  52.681  0.00  0.00     0.111 A 
ATOM      5  C   UNL d   1      52.077  32.536  53.539  0.00  0.00     0.111 A 
ATOM      6  C   UNL d   1      51.708  33.162  53.157  0.00  0.00     0.103 A 
ATOM      7  C   UNL d   1      52.827  33.338  52.302  0.00  0.00     0.103 A 
ATOM      8  O   UNL d   1      52.055  34.588  51.562  0.00  0.00    -0.267 OA
ENDROOT
BRANCH   2   9
ATOM      9  C   UNL d   1      50.940  34.414  52.412  0.00  0.00     0.059 A 
ATOM     10  C   UNL d   1      50.288  34.277  51.927  0.00  0.00     0.031 A 
ATOM     11  C   UNL d   1      49.554  34.497  52.163  0.00  0.00     0.116 A 
ATOM     12  C   UNL d   1      49.444  34.862  52.893  0.00  0.00     0.116 A 
ATOM     13  C   UNL d   1      50.095  34.999  53.379  0.00  0.00     0.026 A 
ATOM     14  C   UNL d   1      50.830  34.779  53.143  0.00  0.00     0.007 A 
BRANCH  11  15
ATOM     15  O   UNL d   1      48.913  34.342  51.643  0.00  0.00    -0.326 OA
ATOM     16  C   UNL d   1      48.999  34.477  50.818  0.00  0.00     0.181 C 
ENDBRANCH  11  15
BRANCH  12  17
ATOM     17  O   UNL d   1      48.685  35.091  53.141  0.00  0.00    -0.326 OA
ATOM     18  C   UNL d   1      48.729  35.670  53.718  0.00  0.00     0.181 C 
ENDBRANCH  12  17
ENDBRANCH   2   9
BRANCH   1  19
ATOM     19  S   UNL d   1      53.222  31.684  53.665  0.00  0.00     0.271 S 
ATOM     20  O   UNL d   1      52.737  31.134  53.271  0.00  0.00    -0.200 OA
ATOM     21  O   UNL d   1      53.620  31.060  54.047  0.00  0.00    -0.200 OA
BRANCH  19  22
ATOM     22  C   UNL d   1      53.709  32.219  54.061  0.00  0.00     0.104 A 
ATOM     23  C   UNL d   1      53.515  32.496  54.818  0.00  0.00     0.014 A 
ATOM     24  C   UNL d   1      53.987  33.025  55.222  0.00  0.00     0.012 A 
ATOM     25  C   UNL d   1      54.684  33.296  54.868  0.00  0.00     0.058 A 
ATOM     26  C   UNL d   1      54.897  33.034  54.114  0.00  0.00     0.012 A 
ATOM     27 CL   UNL d   1      55.171  33.832  55.264  0.00  0.00    -0.082 Cl
ATOM     28  C   UNL d   1      54.406  32.491  53.706  0.00  0.00     0.014 A 
ENDBRANCH  19  22
ENDBRANCH   1  19
TORSDOF 5
ENDMDL
MODEL 2
REMARK VINA RESULT:      -7.6      2.208      4.646
REMARK  5 active torsions:
REMARK  status: ('A' for Active; 'I' for Inactive)
REMARK    1  A    between atoms: N_2  and  S_1 
REMARK    2  A    between atoms: C_6  and  S_1 
REMARK       I    between atoms: C_3  and  N_4 
REMARK    3  A    between atoms: C_5  and  C_3 
REMARK    4  A    between atoms: O_22  and  C_12 
REMARK    5  A    between atoms: O_26  and  C_16 
ROOT
ATOM      1  N   UNL d   1      52.937  33.948  53.909  0.00  0.00    -0.226 N 
ATOM      2  C   UNL d   1      54.078  31.790  53.475  0.00  0.00     0.265 C 
ATOM      3  N   UNL d   1      53.700  32.508  53.618  0.00  0.00    -0.269 N 
ATOM      4  C   UNL d   1      53.633  33.913  53.481  0.00  0.00     0.111 A 
ATOM      5  C   UNL d   1      52.615  33.239  54.200  0.00  0.00     0.111 A 
ATOM      6  C   UNL d   1      53.007  32.533  54.047  0.00  0.00     0.103 A 
ATOM      7  C   UNL d   1      54.021  33.217  53.328  0.00  0.00     0.103 A 
ATOM      8  O   UNL d   1      54.775  31.784  53.042  0.00  0.00    -0.267 OA
ENDROOT
BRANCH   2   9
ATOM      9  C   UNL d   1      53.766  31.101  53.757  0.00  0.00     0.059 A 
ATOM     10  C   UNL d   1      53.306  30.622  53.270  0.00  0.00     0.031 A 
ATOM     11  C   UNL d   1      52.995  29.937  53.550  0.00  0.00     0.116 A 
ATOM     12  C   UNL d   1      53.133  29.707  54.329  0.00  0.00     0.116 A 
ATOM     13  C   UNL d   1      53.593  30.186  54.817  0.00  0.00     0.026 A 
ATOM     14  C   UNL d   1      53.904  30.870  54.537  0.00  0.00     0.007 A 
BRANCH  11  15
ATOM     15  O   UNL d   1      52.531  29.473  53.026  0.00  0.00    -0.326 OA
ATOM     16  C   UNL d   1      52.666  29.516  52.197  0.00  0.00     0.181 C 
ENDBRANCH  11  15
BRANCH  12  17
ATOM     17  O   UNL d   1      52.814  28.999  54.624  0.00  0.00    -0.326 OA
ATOM     18  C   UNL d   1      53.227  28.744  55.282  0.00  0.00     0.181 C 
ENDBRANCH  12  17
ENDBRANCH   2   9
BRANCH   1  19
ATOM     19  S   UNL d   1      52.560  34.663  54.053  0.00  0.00     0.271 S 
ATOM     20  O   UNL d   1      53.071  34.820  54.690  0.00  0.00    -0.200 OA
ATOM     21  O   UNL d   1      52.169  35.386  54.187  0.00  0.00    -0.200 OA
BRANCH  19  22
ATOM     22  C   UNL d   1      52.047  34.519  53.423  0.00  0.00     0.104 A 
ATOM     23  C   UNL d   1      51.294  34.196  53.549  0.00  0.00     0.014 A 
ATOM     24  C   UNL d   1      50.775  34.048  52.937  0.00  0.00     0.012 A 
ATOM     25  C   UNL d   1      51.006  34.225  52.162  0.00  0.00     0.058 A 
ATOM     26  C   UNL d   1      51.751  34.547  52.013  0.00  0.00     0.012 A 
ATOM     27 CL   UNL d   1      50.493  34.081  51.531  0.00  0.00    -0.082 Cl
ATOM     28  C   UNL d   1      52.277  34.696  52.647  0.00  0.00     0.014 A 
ENDBRANCH  19  22
ENDBRANCH   1  19
TORSDOF 5
ENDMDL
MODEL 3
REMARK VINA RESULT:      -6.3      2.284      3.368
REMARK  5 active torsions:
REMARK  status: ('A' for Active; 'I' for Inactive)
REMARK    1  A    between atoms: N_2  and  S_1 
REMARK    2  A    between atoms: C_6  and  S_1 
REMARK       I    between atoms: C_3  and  N_4 
REMARK    3  A    between atoms: C_5  and  C_3 
REMARK    4  A    between atoms: O_22  and  C_12 
REMARK    5  A    between atoms: O_26  and  C_16 
ROOT
ATOM      1  N   UNL d   1      53.160  30.620  53.082  0.00  0.00    -0.226 N 
ATOM      2  C   UNL d   1      54.250  32.778  53.634  0.00  0.00     0.265 C 
ATOM      3  N   UNL d   1      53.889  32.060  53.450  0.00  0.00    -0.269 N 
ATOM      4  C   UNL d   1      53.974  30.700  53.072  0.00  0.00     0.111 A 
ATOM      5  C   UNL d   1      52.699  31.282  53.282  0.00  0.00     0.111 A 
ATOM      6  C   UNL d   1      53.077  31.989  53.463  0.00  0.00     0.103 A 
ATOM      7  C   UNL d   1      54.350  31.398  53.250  0.00  0.00     0.103 A 
ATOM      8  O   UNL d   1      55.068  32.831  53.617  0.00  0.00    -0.267 OA
ENDROOT
BRANCH   2   9
ATOM      9  C   UNL d   1      53.802  33.421  53.829  0.00  0.00     0.059 A 
ATOM     10  C   UNL d   1      53.430  33.863  53.241  0.00  0.00     0.031 A 
ATOM     11  C   UNL d   1      52.985  34.501  53.435  0.00  0.00     0.116 A 
ATOM     12  C   UNL d   1      52.896  34.723  54.223  0.00  0.00     0.116 A 
ATOM     13  C   UNL d   1      53.268  34.281  54.812  0.00  0.00     0.026 A 
ATOM     14  C   UNL d   1      53.712  33.642  54.618  0.00  0.00     0.007 A 
BRANCH  11  15
ATOM     15  O   UNL d   1      52.621  34.929  52.810  0.00  0.00    -0.326 OA
ATOM     16  C   UNL d   1      52.065  34.546  52.308  0.00  0.00     0.181 C 
ENDBRANCH  11  15
BRANCH  12  17
ATOM     17  O   UNL d   1      52.436  35.383  54.428  0.00  0.00    -0.326 OA
ATOM     18  C   UNL d   1      52.759  35.776  55.069  0.00  0.00     0.181 C 
ENDBRANCH  12  17
ENDBRANCH   2   9
BRANCH   1  19
ATOM     19  S   UNL d   1      52.800  29.905  52.899  0.00  0.00     0.271 S 
ATOM     20  O   UNL d   1      52.636  30.170  52.127  0.00  0.00    -0.200 OA
ATOM     21  O   UNL d   1      52.438  29.176  52.726  0.00  0.00    -0.200 OA
BRANCH  19  22
ATOM     22  C   UNL d   1      52.957  29.631  53.662  0.00  0.00     0.104 A 
ATOM     23  C   UNL d   1      53.626  29.168  53.820  0.00  0.00     0.014 A 
ATOM     24  C   UNL d   1      53.795  28.889  54.569  0.00  0.00     0.012 A 
ATOM     25  C   UNL d   1      53.282  29.074  55.192  0.00  0.00     0.058 A 
ATOM     26  C   UNL d   1      52.610  29.533  55.056  0.00  0.00     0.012 A 
ATOM     27 CL   UNL d   1      53.439  28.799  55.955  0.00  0.00    -0.082 Cl
ATOM     28  C   UNL d   1      52.445  29.815  54.285  0.00  0.00     0.014 A 
ENDBRANCH  19  22
ENDBRANCH   1  19
TORSDOF 5
ENDMDL
MODEL 4
REMARK VINA RESULT:      -6.0      1.413      1.676
REMARK  5 active torsions:
REMARK  status: ('A' for Active; 'I' for Inactive)
REMARK    1  A    between atoms: N_2  and  S_1 
REMARK    2  A    between atoms: C_6  and  S_1 
REMARK       I    between atoms: C_3  and  N_4 
REMARK    3  A    between atoms: C_5  and  C_3 
REMARK    4  A    between atoms: O_22  and  C_12 
REMARK    5  A    between atoms: O_26  and  C_16 
ROOT
ATOM      1  N   UNL d   1      53.260  32.917  54.028  0.00  0.00    -0.226 N 
ATOM      2  C   UNL d   1      52.016  34.372  52.452  0.00  0.00     0.265 C 
ATOM      3  N   UNL d   1      52.431  33.888  52.975  0.00  0.00    -0.269 N 
ATOM      4  C   UNL d   1      53.632  33.268  53.389  0.00  0.00     0.111 A 
ATOM      5  C   UNL d   1      52.449  33.059  54.141  0.00  0.00     0.111 A 
ATOM      6  C   UNL d   1      52.053  33.543  53.609  0.00  0.00     0.103 A 
ATOM      7  C   UNL d   1      53.242  33.747  52.862  0.00  0.00     0.103 A 
ATOM      8  O   UNL d   1      52.413  34.711  51.819  0.00  0.00    -0.267 OA
ENDROOT
BRANCH   2   9
ATOM      9  C   UNL d   1      51.228  34.509  52.562  0.00  0.00     0.059 A 
ATOM     10  C   UNL d   1      50.678  34.243  52.009  0.00  0.00     0.031 A 
ATOM     11  C   UNL d   1      49.895  34.380  52.118  0.00  0.00     0.116 A 
ATOM     12  C   UNL d   1      49.633  34.787  52.784  0.00  0.00     0.116 A 
ATOM     13  C   UNL d   1      50.183  35.054  53.338  0.00  0.00     0.026 A 
ATOM     14  C   UNL d   1      50.966  34.918  53.228  0.00  0.00     0.007 A 
BRANCH  11  15
ATOM     15  O   UNL d   1      49.362  34.094  51.535  0.00  0.00    -0.326 OA
ATOM     16  C   UNL d   1      49.462  34.317  50.731  0.00  0.00     0.181 C 
ENDBRANCH  11  15
BRANCH  12  17
ATOM     17  O   UNL d   1      48.824  34.931  52.901  0.00  0.00    -0.326 OA
ATOM     18  C   UNL d   1      48.709  35.537  53.439  0.00  0.00     0.181 C 
ENDBRANCH  12  17
ENDBRANCH   2   9
BRANCH   1  19
ATOM     19  S   UNL d   1      53.673  32.436  54.549  0.00  0.00     0.271 S 
ATOM     20  O   UNL d   1      53.838  33.087  55.041  0.00  0.00    -0.200 OA
ATOM     21  O   UNL d   1      54.089  31.937  55.070  0.00  0.00    -0.200 OA
BRANCH  19  22
ATOM     22  C   UNL d   1      53.516  31.782  54.070  0.00  0.00     0.104 A 
ATOM     23  C   UNL d   1      52.838  31.321  54.184  0.00  0.00     0.014 A 
ATOM     24  C   UNL d   1      52.669  30.672  53.719  0.00  0.00     0.012 A 
ATOM     25  C   UNL d   1      53.192  30.465  53.111  0.00  0.00     0.058 A 
ATOM     26  C   UNL d   1      53.875  30.911  52.980  0.00  0.00     0.012 A 
ATOM     27 CL   UNL d   1      53.036  29.812  52.632  0.00  0.00    -0.082 Cl
ATOM     28  C   UNL d   1      54.039  31.575  53.463  0.00  0.00     0.014 A 
ENDBRANCH  19  22
ENDBRANCH   1  19
TORSDOF 5
ENDMDL
MODEL 5
REMARK VINA RESULT:      -5.9      2.384      4.143
REMARK  5 active torsions:
REMARK  status: ('A' for Active; 'I' for Inactive)
REMARK    1  A    between atoms: N_2  and  S_1 
REMARK    2  A    between atoms: C_6  and  S_1 
REMARK       I    between atoms: C_3  and  N_4 
REMARK    3  A    between atoms: C_5  and  C_3 
REMARK    4  A    between atoms: O_22  and  C_12 
REMARK    5  A    between atoms: O_26  and  C_16 
ROOT
ATOM      1  N   UNL d   1      52.831  33.608  53.834  0.00  0.00    -0.226 N 
ATOM      2  C   UNL d   1      52.905  31.389  52.732  0.00  0.00     0.265 C 
ATOM      3  N   UNL d   1      52.881  32.128  53.097  0.00  0.00    -0.269 N 
ATOM      4  C   UNL d   1      52.836  33.538  53.020  0.00  0.00     0.111 A 
ATOM      5  C   UNL d   1      52.851  32.915  54.292  0.00  0.00     0.111 A 
ATOM      6  C   UNL d   1      52.876  32.188  53.910  0.00  0.00     0.103 A 
ATOM      7  C   UNL d   1      52.860  32.821  52.640  0.00  0.00     0.103 A 
ATOM      8  O   UNL d   1      52.910  31.347  51.913  0.00  0.00    -0.267 OA
ENDROOT
BRANCH   2   9
ATOM      9  C   UNL d   1      52.926  30.715  53.177  0.00  0.00     0.059 A 
ATOM     10  C   UNL d   1      52.239  30.275  53.297  0.00  0.00     0.031 A 
ATOM     11  C   UNL d   1      52.259  29.606  53.739  0.00  0.00     0.116 A 
ATOM     12  C   UNL d   1      52.966  29.351  54.077  0.00  0.00     0.116 A 
ATOM     13  C   UNL d   1      53.653  29.791  53.957  0.00  0.00     0.026 A 
ATOM     14  C   UNL d   1      53.633  30.460  53.515  0.00  0.00     0.007 A 
BRANCH  11  15
ATOM     15  O   UNL d   1      51.541  29.182  53.841  0.00  0.00    -0.326 OA
ATOM     16  C   UNL d   1      50.805  29.579  53.763  0.00  0.00     0.181 C 
ENDBRANCH  11  15
BRANCH  12  17
ATOM     17  O   UNL d   1      52.992  28.659  54.535  0.00  0.00    -0.326 OA
ATOM     18  C   UNL d   1      53.745  28.529  54.826  0.00  0.00     0.181 C 
ENDBRANCH  12  17
ENDBRANCH   2   9
BRANCH   1  19
ATOM     19  S   UNL d   1      52.806  34.344  54.198  0.00  0.00     0.271 S 
ATOM     20  O   UNL d   1      52.033  34.472  53.917  0.00  0.00    -0.200 OA
ATOM     21  O   UNL d   1      52.794  35.088  54.572  0.00  0.00    -0.200 OA
BRANCH  19  22
ATOM     22  C   UNL d   1      53.572  34.229  54.483  0.00  0.00     0.104 A 
ATOM     23  C   UNL d   1      53.705  33.908  55.235  0.00  0.00     0.014 A 
ATOM     24  C   UNL d   1      54.456  33.789  55.531  0.00  0.00     0.012 A 
ATOM     25  C   UNL d   1      55.110  33.994  55.066  0.00  0.00     0.058 A 
ATOM     26  C   UNL d   1      55.000  34.316  54.313  0.00  0.00     0.012 A 
ATOM     27 CL   UNL d   1      55.876  33.880  55.351  0.00  0.00    -0.082 Cl
ATOM     28  C   UNL d   1      54.225  34.435  54.018  0.00  0.00     0.014 A 
ENDBRANCH  19  22
ENDBRANCH   1  19
TORSDOF 5
ENDMDL
