MODEL 1
REMARK VINA RESULT:      67.3      0.000      0.000
REMARK  6 active torsions:
REMARK  status: ('A' for Active; 'I' for Inactive)
REMARK    1  A    between atoms: C_9  and  N_1 
REMARK    2  A    between atoms: S_10  and  C_6 
REMARK    3  A    between atoms: C_16  and  S_10 
REMARK    4  A    between atoms: C_12  and  C_16 
REMARK    5  A    between atoms: O_20  and  C_12 
REMARK    6  A    between atoms: C_22  and  O_20 
ROOT
ATOM      1  N   UNL d   1     -58.063 -98.914 -45.389  0.00  0.00    -0.212 N 
ATOM      2  C   UNL d   1     -58.410 -98.954 -44.646  0.00  0.00     0.169 A 
ATOM      3  N   UNL d   1     -57.258 -98.898 -45.302  0.00  0.00    -0.162 NA
ATOM      4  C   UNL d   1     -57.803 -98.964 -44.087  0.00  0.00     0.081 A 
ATOM      5  C   UNL d   1     -57.088 -98.929 -44.492  0.00  0.00     0.126 A 
ATOM      6  C   UNL d   1     -57.982 -99.003 -43.286  0.00  0.00     0.117 A 
ATOM      7  N   UNL d   1     -59.195 -98.983 -44.404  0.00  0.00    -0.205 NA
ATOM      8  N   UNL d   1     -58.769 -99.032 -43.040  0.00  0.00    -0.217 NA
ATOM      9  C   UNL d   1     -59.376 -99.022 -43.599  0.00  0.00     0.201 A 
ENDROOT
BRANCH   1  10
ATOM     10  C   UNL d   1     -58.538 -98.895 -46.070  0.00  0.00     0.085 A 
ATOM     11  C   UNL d   1     -59.345 -98.782 -46.000  0.00  0.00     0.020 A 
ATOM     12  C   UNL d   1     -59.816 -98.763 -46.664  0.00  0.00     0.013 A 
ATOM     13  C   UNL d   1     -59.480 -98.859 -47.422  0.00  0.00     0.058 A 
ATOM     14  C   UNL d   1     -58.663 -98.974 -47.483  0.00  0.00     0.013 A 
ATOM     15 CL   UNL d   1     -59.956 -98.841 -48.102  0.00  0.00    -0.082 Cl
ATOM     16  C   UNL d   1     -58.197 -98.991 -46.811  0.00  0.00     0.020 A 
ENDBRANCH   1  10
BRANCH   6  17
ATOM     17  S   UNL d   1     -57.375 -99.013 -42.727  0.00  0.00    -0.062 SA
BRANCH  17  18
ATOM     18  C   UNL d   1     -56.625 -98.770 -42.935  0.00  0.00     0.105 C 
BRANCH  18  19
ATOM     19  C   UNL d   1     -55.976 -99.257 -42.783  0.00  0.00     0.307 C 
ATOM     20  O   UNL d   1     -56.053 -99.899 -42.270  0.00  0.00    -0.258 OA
BRANCH  19  21
ATOM     21  O   UNL d   1     -55.250 -99.102 -43.144  0.00  0.00    -0.271 OA
BRANCH  21  22
ATOM     22  C   UNL d   1     -54.996 -99.567 -43.778  0.00  0.00     0.126 C 
ATOM     23  C   UNL d   1     -54.712-100.330 -43.642  0.00  0.00     0.029 C 
ENDBRANCH  21  22
ENDBRANCH  19  21
ENDBRANCH  18  19
ENDBRANCH  17  18
ENDBRANCH   6  17
TORSDOF 6
ENDMDL
