MODEL 1
REMARK VINA RESULT:      12.8      0.000      0.000
REMARK  2 active torsions:
REMARK  status: ('A' for Active; 'I' for Inactive)
REMARK    1  A    between atoms: C_2  and  S_1 
REMARK    2  A    between atoms: C_7  and  C_3 
ROOT
ATOM      1  C   UNL d   1     -51.507  25.680  33.336  0.00  0.00     0.117 A 
ATOM      2  C   UNL d   1     -50.795  24.433  33.340  0.00  0.00     0.076 A 
ATOM      3  C   UNL d   1     -51.507  24.855  33.347  0.00  0.00     0.021 A 
ATOM      4  C   UNL d   1     -50.795  26.092  33.318  0.00  0.00     0.071 A 
ATOM      5  C   UNL d   1     -50.082  24.846  33.322  0.00  0.00     0.065 A 
ATOM      6  C   UNL d   1     -50.082  25.679  33.311  0.00  0.00     0.024 A 
ATOM      7 CL   UNL d   1     -49.371  24.432  33.314  0.00  0.00    -0.082 Cl
ATOM      8 CL   UNL d   1     -50.794  26.916  33.307  0.00  0.00    -0.082 Cl
ENDROOT
BRANCH   1   9
ATOM      9  S   UNL d   1     -52.223  26.093  33.344  0.00  0.00     0.303 S 
ATOM     10  O   UNL d   1     -51.819  26.804  33.381  0.00  0.00    -0.197 OA
ATOM     11  O   UNL d   1     -52.645  25.374  33.306  0.00  0.00    -0.197 OA
ATOM     12  N   UNL d   1     -52.944  26.498  33.351  0.00  0.00    -0.043 N 
ENDBRANCH   1   9
BRANCH   2  13
ATOM     13  C   UNL d   1     -50.800  23.609  33.351  0.00  0.00     0.212 C 
ATOM     14  O   UNL d   1     -50.094  23.190  33.407  0.00  0.00    -0.644 OA
ATOM     15  O   UNL d   1     -51.519  23.203  33.306  0.00  0.00    -0.644 OA
ENDBRANCH   2  13
TORSDOF 2
ENDMDL
