MODEL 1
REMARK VINA RESULT:       4.5      0.000      0.000
REMARK  7 active torsions:
REMARK  status: ('A' for Active; 'I' for Inactive)
REMARK    1  A    between atoms: C_7  and  C_1 
REMARK    2  A    between atoms: N_5  and  C_2 
REMARK       I    between atoms: C_8  and  N_5 
REMARK    3  A    between atoms: N_9  and  C_7 
REMARK    4  A    between atoms: C_11  and  C_7 
REMARK    5  A    between atoms: C_16  and  C_8 
REMARK    6  A    between atoms: C_21  and  N_10 
REMARK    7  A    between atoms: C_27  and  C_21 
ROOT
ATOM      1  C   UNL d   1      59.029  -0.580  30.451  0.00  0.00     0.042 A 
ATOM      2  C   UNL d   1      59.184  -1.344  30.170  0.00  0.00     0.115 A 
ATOM      3  C   UNL d   1      59.731  -0.247  30.676  0.00  0.00     0.009 A 
ATOM      4  S   UNL d   1      59.980  -1.472  30.226  0.00  0.00    -0.068 SA
ATOM      5  C   UNL d   1      60.322  -0.778  30.545  0.00  0.00     0.031 A 
ATOM      6  C   UNL d   1      59.847   0.549  31.005  0.00  0.00     0.001 C 
ATOM      7  C   UNL d   1      61.118  -0.671  30.693  0.00  0.00     0.007 C 
ENDROOT
BRANCH   1   8
ATOM      8  C   UNL d   1      58.264  -0.282  30.467  0.00  0.00     0.084 C 
BRANCH   8   9
ATOM      9  N   UNL d   1      57.852  -0.317  31.176  0.00  0.00    -0.300 N 
ATOM     10  C   UNL d   1      58.005   0.224  31.786  0.00  0.00     0.100 A 
ATOM     11  C   UNL d   1      57.577   0.165  32.483  0.00  0.00     0.100 A 
ATOM     12  N   UNL d   1      57.014  -0.403  32.591  0.00  0.00    -0.297 N 
ATOM     13  C   UNL d   1      56.861  -0.944  31.982  0.00  0.00     0.100 A 
ATOM     14  C   UNL d   1      57.273  -0.910  31.272  0.00  0.00     0.100 A 
BRANCH  12  15
ATOM     15  C   UNL d   1      56.584  -0.450  33.313  0.00  0.00     0.126 C 
BRANCH  15  16
ATOM     16  C   UNL d   1      56.307   0.232  33.691  0.00  0.00     0.253 C 
ATOM     17  O   UNL d   1      55.826   0.170  34.347  0.00  0.00    -0.281 OA
ENDBRANCH  15  16
ENDBRANCH  12  15
ENDBRANCH   8   9
BRANCH   8  18
ATOM     18  C   UNL d   1      57.919   0.043  29.788  0.00  0.00     0.098 A 
ATOM     19  N   UNL d   1      57.121   0.190  29.772  0.00  0.00    -0.243 NA
ATOM     20  C   UNL d   1      56.804   0.514  29.082  0.00  0.00     0.099 A 
ATOM     21  C   UNL d   1      57.240   0.682  28.456  0.00  0.00     0.021 A 
ATOM     22  C   UNL d   1      58.053   0.538  28.458  0.00  0.00     0.003 A 
ATOM     23  C   UNL d   1      58.397   0.214  29.134  0.00  0.00     0.021 A 
ENDBRANCH   8  18
ENDBRANCH   1   8
BRANCH   2  24
ATOM     24  N   UNL d   1      58.573  -1.801  29.909  0.00  0.00    -0.201 NA
ATOM     25  C   UNL d   1      58.757  -2.479  29.469  0.00  0.00     0.280 C 
ATOM     26  O   UNL d   1      58.160  -2.956  29.195  0.00  0.00    -0.265 OA
BRANCH  25  27
ATOM     27  C   UNL d   1      59.547  -2.673  29.309  0.00  0.00     0.058 A 
ATOM     28  C   UNL d   1      59.973  -2.246  28.754  0.00  0.00     0.005 A 
ATOM     29  C   UNL d   1      60.772  -2.439  28.590  0.00  0.00     0.000 A 
ATOM     30  C   UNL d   1      61.130  -3.063  28.989  0.00  0.00     0.000 A 
ATOM     31  C   UNL d   1      60.692  -3.487  29.546  0.00  0.00     0.000 A 
ATOM     32  C   UNL d   1      59.905  -3.301  29.712  0.00  0.00     0.005 A 
ENDBRANCH  25  27
ENDBRANCH   2  24
TORSDOF 7
ENDMDL
MODEL 2
REMARK VINA RESULT:       6.0      1.251      4.082
REMARK  7 active torsions:
REMARK  status: ('A' for Active; 'I' for Inactive)
REMARK    1  A    between atoms: C_7  and  C_1 
REMARK    2  A    between atoms: N_5  and  C_2 
REMARK       I    between atoms: C_8  and  N_5 
REMARK    3  A    between atoms: N_9  and  C_7 
REMARK    4  A    between atoms: C_11  and  C_7 
REMARK    5  A    between atoms: C_16  and  C_8 
REMARK    6  A    between atoms: C_21  and  N_10 
REMARK    7  A    between atoms: C_27  and  C_21 
ROOT
ATOM      1  C   UNL d   1      58.284  -0.300  31.079  0.00  0.00     0.042 A 
ATOM      2  C   UNL d   1      57.649  -0.571  31.538  0.00  0.00     0.115 A 
ATOM      3  C   UNL d   1      58.733   0.193  31.537  0.00  0.00     0.009 A 
ATOM      4  S   UNL d   1      57.716  -0.241  32.272  0.00  0.00    -0.068 SA
ATOM      5  C   UNL d   1      58.400   0.240  32.268  0.00  0.00     0.031 A 
ATOM      6  C   UNL d   1      59.457   0.611  31.297  0.00  0.00     0.001 C 
ATOM      7  C   UNL d   1      58.672   0.677  32.903  0.00  0.00     0.007 C 
ENDROOT
BRANCH   1   8
ATOM      8  C   UNL d   1      58.374  -0.538  30.298  0.00  0.00     0.084 C 
BRANCH   8   9
ATOM      9  N   UNL d   1      58.847  -1.192  30.147  0.00  0.00    -0.300 N 
ATOM     10  C   UNL d   1      59.674  -1.126  30.130  0.00  0.00     0.100 A 
ATOM     11  C   UNL d   1      60.120  -1.797  29.976  0.00  0.00     0.100 A 
ATOM     12  N   UNL d   1      59.778  -2.516  29.842  0.00  0.00    -0.297 N 
ATOM     13  C   UNL d   1      58.951  -2.581  29.859  0.00  0.00     0.100 A 
ATOM     14  C   UNL d   1      58.478  -1.927  30.010  0.00  0.00     0.100 A 
BRANCH  12  15
ATOM     15  C   UNL d   1      60.250  -3.195  29.685  0.00  0.00     0.126 C 
BRANCH  15  16
ATOM     16  C   UNL d   1      60.101  -3.678  29.031  0.00  0.00     0.253 C 
ATOM     17  O   UNL d   1      60.656  -4.225  28.790  0.00  0.00    -0.281 OA
ENDBRANCH  15  16
ENDBRANCH  12  15
ENDBRANCH   8   9
BRANCH   8  18
ATOM     18  C   UNL d   1      57.999  -0.131  29.682  0.00  0.00     0.098 A 
ATOM     19  N   UNL d   1      57.192  -0.047  29.686  0.00  0.00    -0.243 NA
ATOM     20  C   UNL d   1      56.846   0.364  29.059  0.00  0.00     0.099 A 
ATOM     21  C   UNL d   1      57.264   0.668  28.473  0.00  0.00     0.021 A 
ATOM     22  C   UNL d   1      58.084   0.591  28.455  0.00  0.00     0.003 A 
ATOM     23  C   UNL d   1      58.458   0.185  29.069  0.00  0.00     0.021 A 
ENDBRANCH   8  18
ENDBRANCH   1   8
BRANCH   2  24
ATOM     24  N   UNL d   1      57.112  -1.075  31.210  0.00  0.00    -0.201 NA
ATOM     25  C   UNL d   1      56.417  -1.230  31.634  0.00  0.00     0.280 C 
ATOM     26  O   UNL d   1      55.860  -1.735  31.327  0.00  0.00    -0.265 OA
BRANCH  25  27
ATOM     27  C   UNL d   1      56.288  -0.872  32.371  0.00  0.00     0.058 A 
ATOM     28  C   UNL d   1      56.556  -1.230  33.058  0.00  0.00     0.005 A 
ATOM     29  C   UNL d   1      56.427  -0.871  33.804  0.00  0.00     0.000 A 
ATOM     30  C   UNL d   1      56.028  -0.153  33.846  0.00  0.00     0.000 A 
ATOM     31  C   UNL d   1      55.762   0.200  33.148  0.00  0.00     0.000 A 
ATOM     32  C   UNL d   1      55.886  -0.150  32.411  0.00  0.00     0.005 A 
ENDBRANCH  25  27
ENDBRANCH   2  24
TORSDOF 7
ENDMDL
MODEL 3
REMARK VINA RESULT:       7.2      1.359      4.419
REMARK  7 active torsions:
REMARK  status: ('A' for Active; 'I' for Inactive)
REMARK    1  A    between atoms: C_7  and  C_1 
REMARK    2  A    between atoms: N_5  and  C_2 
REMARK       I    between atoms: C_8  and  N_5 
REMARK    3  A    between atoms: N_9  and  C_7 
REMARK    4  A    between atoms: C_11  and  C_7 
REMARK    5  A    between atoms: C_16  and  C_8 
REMARK    6  A    between atoms: C_21  and  N_10 
REMARK    7  A    between atoms: C_27  and  C_21 
ROOT
ATOM      1  C   UNL d   1      58.269  -0.260  30.054  0.00  0.00     0.042 A 
ATOM      2  C   UNL d   1      57.946  -0.291  30.817  0.00  0.00     0.115 A 
ATOM      3  C   UNL d   1      57.734   0.104  29.570  0.00  0.00     0.009 A 
ATOM      4  S   UNL d   1      57.217   0.056  30.792  0.00  0.00    -0.068 SA
ATOM      5  C   UNL d   1      57.086   0.304  30.004  0.00  0.00     0.031 A 
ATOM      6  C   UNL d   1      57.826   0.263  28.720  0.00  0.00     0.001 C 
ATOM      7  C   UNL d   1      56.414   0.681  29.734  0.00  0.00     0.007 C 
ENDROOT
BRANCH   1   8
ATOM      8  C   UNL d   1      59.013  -0.570  29.897  0.00  0.00     0.084 C 
BRANCH   8   9
ATOM      9  N   UNL d   1      59.055  -1.311  29.546  0.00  0.00    -0.300 N 
ATOM     10  C   UNL d   1      58.658  -1.962  29.873  0.00  0.00     0.100 A 
ATOM     11  C   UNL d   1      58.719  -2.690  29.500  0.00  0.00     0.100 A 
ATOM     12  N   UNL d   1      59.153  -2.789  28.827  0.00  0.00    -0.297 N 
ATOM     13  C   UNL d   1      59.549  -2.139  28.500  0.00  0.00     0.100 A 
ATOM     14  C   UNL d   1      59.507  -1.398  28.851  0.00  0.00     0.100 A 
BRANCH  12  15
ATOM     15  C   UNL d   1      59.204  -3.544  28.457  0.00  0.00     0.126 C 
BRANCH  15  16
ATOM     16  C   UNL d   1      59.205  -4.239  28.904  0.00  0.00     0.253 C 
ATOM     17  O   UNL d   1      59.366  -4.956  28.547  0.00  0.00    -0.281 OA
ENDBRANCH  15  16
ENDBRANCH  12  15
ENDBRANCH   8   9
BRANCH   8  18
ATOM     18  C   UNL d   1      59.699  -0.148  30.086  0.00  0.00     0.098 A 
ATOM     19  N   UNL d   1      59.930  -0.078  30.862  0.00  0.00    -0.243 NA
ATOM     20  C   UNL d   1      60.619   0.349  31.020  0.00  0.00     0.099 A 
ATOM     21  C   UNL d   1      61.048   0.681  30.458  0.00  0.00     0.021 A 
ATOM     22  C   UNL d   1      60.826   0.618  29.666  0.00  0.00     0.003 A 
ATOM     23  C   UNL d   1      60.142   0.197  29.478  0.00  0.00     0.021 A 
ENDBRANCH   8  18
ENDBRANCH   1   8
BRANCH   2  24
ATOM     24  N   UNL d   1      58.371  -0.630  31.413  0.00  0.00    -0.201 NA
ATOM     25  C   UNL d   1      58.015  -0.687  32.160  0.00  0.00     0.280 C 
ATOM     26  O   UNL d   1      58.421  -1.025  32.776  0.00  0.00    -0.265 OA
BRANCH  25  27
ATOM     27  C   UNL d   1      57.246  -0.401  32.279  0.00  0.00     0.058 A 
ATOM     28  C   UNL d   1      56.604  -0.911  32.245  0.00  0.00     0.005 A 
ATOM     29  C   UNL d   1      55.826  -0.625  32.365  0.00  0.00     0.000 A 
ATOM     30  C   UNL d   1      55.706   0.174  32.519  0.00  0.00     0.000 A 
ATOM     31  C   UNL d   1      56.357   0.679  32.552  0.00  0.00     0.000 A 
ATOM     32  C   UNL d   1      57.126   0.403  32.434  0.00  0.00     0.005 A 
ENDBRANCH  25  27
ENDBRANCH   2  24
TORSDOF 7
ENDMDL
