MODEL 1
REMARK VINA RESULT:      -2.4      0.000      0.000
REMARK  3 active torsions:
REMARK  status: ('A' for Active; 'I' for Inactive)
REMARK    1  A    between atoms: C_9  and  C_4 
REMARK       I    between atoms: C_6  and  N_8 
REMARK    2  A    between atoms: C_13  and  C_6 
REMARK    3  A    between atoms: N_8  and  C_16 
ROOT
ATOM      1  C   UNL d   1     -41.927-122.058 -51.888  0.00  0.00     0.019 A 
ATOM      2  C   UNL d   1     -41.235-121.876 -52.286  0.00  0.00     0.003 A 
ATOM      3  C   UNL d   1     -42.655-121.959 -52.249  0.00  0.00     0.003 A 
ATOM      4  C   UNL d   1     -42.004-121.491 -53.425  0.00  0.00     0.085 A 
ATOM      5  C   UNL d   1     -42.693-121.674 -53.023  0.00  0.00     0.019 A 
ATOM      6  C   UNL d   1     -41.272-121.592 -53.056  0.00  0.00     0.019 A 
ENDROOT
BRANCH   1   7
ATOM      7  C   UNL d   1     -41.892-122.345 -51.110  0.00  0.00     0.101 A 
ATOM      8  N   UNL d   1     -42.470-122.205 -50.554  0.00  0.00    -0.221 NA
ATOM      9  C   UNL d   1     -42.248-122.574 -49.850  0.00  0.00     0.179 A 
ATOM     10  N   UNL d   1     -41.527-122.945 -49.967  0.00  0.00    -0.282 N 
ATOM     11  S   UNL d   1     -42.482-122.708 -49.067  0.00  0.00    -0.048 SA
ATOM     12  C   UNL d   1     -41.303-122.803 -50.754  0.00  0.00     0.101 A 
ATOM     13  C   UNL d   1     -41.305-123.314 -49.262  0.00  0.00     0.089 A 
ATOM     14  C   UNL d   1     -41.901-123.164 -48.708  0.00  0.00     0.057 A 
ENDBRANCH   1   7
BRANCH   4  15
ATOM     15  N   UNL d   1     -42.040-121.203 -54.205  0.00  0.00    -0.208 NA
ATOM     16  C   UNL d   1     -41.935-121.718 -54.850  0.00  0.00     0.279 C 
ATOM     17  O   UNL d   1     -41.969-121.441 -55.613  0.00  0.00    -0.265 OA
BRANCH  16  18
ATOM     18  C   UNL d   1     -41.796-122.517 -54.703  0.00  0.00     0.058 A 
ATOM     19  C   UNL d   1     -42.396-123.075 -54.818  0.00  0.00     0.005 A 
ATOM     20  C   UNL d   1     -42.091-123.817 -54.627  0.00  0.00     0.000 A 
ATOM     21  C   UNL d   1     -41.314-123.730 -54.397  0.00  0.00     0.000 A 
ATOM     22  C   UNL d   1     -41.123-122.923 -54.442  0.00  0.00     0.005 A 
ENDBRANCH  16  18
ENDBRANCH   4  15
TORSDOF 3
ENDMDL
MODEL 2
REMARK VINA RESULT:      -0.6      2.183      4.432
REMARK  3 active torsions:
REMARK  status: ('A' for Active; 'I' for Inactive)
REMARK    1  A    between atoms: C_9  and  C_4 
REMARK       I    between atoms: C_6  and  N_8 
REMARK    2  A    between atoms: C_13  and  C_6 
REMARK    3  A    between atoms: N_8  and  C_16 
ROOT
ATOM      1  C   UNL d   1     -41.876-122.019 -52.624  0.00  0.00     0.019 A 
ATOM      2  C   UNL d   1     -42.244-121.462 -52.150  0.00  0.00     0.003 A 
ATOM      3  C   UNL d   1     -41.321-122.533 -52.312  0.00  0.00     0.003 A 
ATOM      4  C   UNL d   1     -41.494-121.935 -51.031  0.00  0.00     0.085 A 
ATOM      5  C   UNL d   1     -41.130-122.490 -51.510  0.00  0.00     0.019 A 
ATOM      6  C   UNL d   1     -42.053-121.419 -51.352  0.00  0.00     0.019 A 
ENDROOT
BRANCH   1   7
ATOM      7  C   UNL d   1     -42.068-122.064 -53.431  0.00  0.00     0.101 A 
ATOM      8  N   UNL d   1     -42.054-122.757 -53.857  0.00  0.00    -0.221 NA
ATOM      9  C   UNL d   1     -42.275-122.590 -54.633  0.00  0.00     0.179 A 
ATOM     10  N   UNL d   1     -42.427-121.787 -54.694  0.00  0.00    -0.282 N 
ATOM     11  S   UNL d   1     -42.400-122.931 -55.378  0.00  0.00    -0.048 SA
ATOM     12  C   UNL d   1     -42.298-121.457 -53.942  0.00  0.00     0.101 A 
ATOM     13  C   UNL d   1     -42.648-121.620 -55.472  0.00  0.00     0.089 A 
ATOM     14  C   UNL d   1     -42.629-122.332 -55.891  0.00  0.00     0.057 A 
ENDBRANCH   1   7
BRANCH   4  15
ATOM     15  N   UNL d   1     -41.303-121.891 -50.223  0.00  0.00    -0.208 NA
ATOM     16  C   UNL d   1     -41.715-122.351 -49.666  0.00  0.00     0.279 C 
ATOM     17  O   UNL d   1     -41.531-122.311 -48.875  0.00  0.00    -0.265 OA
BRANCH  16  18
ATOM     18  C   UNL d   1     -42.315-122.852 -49.928  0.00  0.00     0.058 A 
ATOM     19  C   UNL d   1     -43.107-122.675 -49.770  0.00  0.00     0.005 A 
ATOM     20  C   UNL d   1     -43.569-123.273 -50.099  0.00  0.00     0.000 A 
ATOM     21  C   UNL d   1     -43.079-123.817 -50.458  0.00  0.00     0.000 A 
ATOM     22  C   UNL d   1     -42.295-123.562 -50.355  0.00  0.00     0.005 A 
ENDBRANCH  16  18
ENDBRANCH   4  15
TORSDOF 3
ENDMDL
MODEL 3
REMARK VINA RESULT:      -0.6      1.614      2.631
REMARK  3 active torsions:
REMARK  status: ('A' for Active; 'I' for Inactive)
REMARK    1  A    between atoms: C_9  and  C_4 
REMARK       I    between atoms: C_6  and  N_8 
REMARK    2  A    between atoms: C_13  and  C_6 
REMARK    3  A    between atoms: N_8  and  C_16 
ROOT
ATOM      1  C   UNL d   1     -41.970-123.453 -50.028  0.00  0.00     0.019 A 
ATOM      2  C   UNL d   1     -42.632-123.514 -50.506  0.00  0.00     0.003 A 
ATOM      3  C   UNL d   1     -41.218-123.509 -50.345  0.00  0.00     0.003 A 
ATOM      4  C   UNL d   1     -41.782-123.692 -51.639  0.00  0.00     0.085 A 
ATOM      5  C   UNL d   1     -41.125-123.630 -51.157  0.00  0.00     0.019 A 
ATOM      6  C   UNL d   1     -42.539-123.634 -51.314  0.00  0.00     0.019 A 
ENDROOT
BRANCH   1   7
ATOM      7  C   UNL d   1     -42.062-123.331 -49.212  0.00  0.00     0.101 A 
ATOM      8  N   UNL d   1     -41.555-123.638 -48.653  0.00  0.00    -0.221 NA
ATOM      9  C   UNL d   1     -41.818-123.404 -47.907  0.00  0.00     0.179 A 
ATOM     10  N   UNL d   1     -42.493-122.950 -47.999  0.00  0.00    -0.282 N 
ATOM     11  S   UNL d   1     -41.655-123.458 -47.097  0.00  0.00    -0.048 SA
ATOM     12  C   UNL d   1     -42.647-122.903 -48.815  0.00  0.00     0.101 A 
ATOM     13  C   UNL d   1     -42.757-122.716 -47.253  0.00  0.00     0.089 A 
ATOM     14  C   UNL d   1     -42.233-123.034 -46.697  0.00  0.00     0.057 A 
ENDBRANCH   1   7
BRANCH   4  15
ATOM     15  N   UNL d   1     -41.691-123.814 -52.457  0.00  0.00    -0.208 NA
ATOM     16  C   UNL d   1     -41.571-123.168 -52.969  0.00  0.00     0.279 C 
ATOM     17  O   UNL d   1     -41.481-123.282 -53.769  0.00  0.00    -0.265 OA
BRANCH  16  18
ATOM     18  C   UNL d   1     -41.546-122.408 -52.652  0.00  0.00     0.058 A 
ATOM     19  C   UNL d   1     -42.002-121.801 -52.980  0.00  0.00     0.005 A 
ATOM     20  C   UNL d   1     -41.859-121.115 -52.548  0.00  0.00     0.000 A 
ATOM     21  C   UNL d   1     -41.323-121.283 -51.957  0.00  0.00     0.000 A 
ATOM     22  C   UNL d   1     -41.123-122.088 -52.016  0.00  0.00     0.005 A 
ENDBRANCH  16  18
ENDBRANCH   4  15
TORSDOF 3
ENDMDL
