MODEL 1
REMARK VINA RESULT:       0.6      0.000      0.000
REMARK  7 active torsions:
REMARK  status: ('A' for Active; 'I' for Inactive)
REMARK    1  A    between atoms: C_4  and  C_10 
REMARK    2  A    between atoms: O_17  and  C_4 
REMARK    3  A    between atoms: O_19  and  C_5 
REMARK    4  A    between atoms: O_20  and  C_7 
REMARK    5  A    between atoms: C_12  and  C_8 
REMARK    6  A    between atoms: O_15  and  C_12 
REMARK    7  A    between atoms: C_16  and  O_15 
ROOT
ATOM      1  C   UNL d   1     -41.555-121.984 -52.612  0.00  0.00     0.022 A 
ATOM      2  C   UNL d   1     -41.753-122.741 -52.864  0.00  0.00     0.028 A 
ATOM      3  C   UNL d   1     -41.394-121.379 -53.166  0.00  0.00     0.005 A 
ATOM      4  C   UNL d   1     -41.789-122.893 -53.672  0.00  0.00     0.116 A 
ATOM      5  C   UNL d   1     -41.431-121.535 -53.970  0.00  0.00     0.026 A 
ATOM      6  C   UNL d   1     -41.627-122.288 -54.226  0.00  0.00     0.116 A 
ATOM      7  C   UNL d   1     -41.520-121.834 -51.807  0.00  0.00     0.106 A 
ATOM      8  N   UNL d   1     -41.323-121.077 -51.555  0.00  0.00    -0.242 NA
ATOM      9  C   UNL d   1     -41.161-120.472 -52.109  0.00  0.00     0.099 A 
ATOM     10  C   UNL d   1     -41.198-120.628 -52.913  0.00  0.00     0.021 A 
ENDROOT
BRANCH   7  11
ATOM     11  C   UNL d   1     -41.682-122.439 -51.253  0.00  0.00     0.142 C 
BRANCH  11  12
ATOM     12  O   UNL d   1     -41.123-122.642 -50.688  0.00  0.00    -0.304 OA
BRANCH  12  13
ATOM     13  C   UNL d   1     -41.363-122.899 -49.935  0.00  0.00     0.100 A 
ATOM     14  C   UNL d   1     -41.123-122.499 -49.255  0.00  0.00     0.025 A 
ATOM     15  C   UNL d   1     -41.363-122.756 -48.502  0.00  0.00     0.007 A 
ATOM     16  C   UNL d   1     -41.848-123.417 -48.415  0.00  0.00     0.063 A 
ATOM     17  C   UNL d   1     -42.088-123.817 -49.095  0.00  0.00     0.007 A 
ATOM     18  C   UNL d   1     -41.848-123.560 -49.848  0.00  0.00     0.025 A 
BRANCH  16  19
ATOM     19  C   UNL d   1     -42.085-123.671 -47.659  0.00  0.00     0.296 C 
ATOM     20  O   UNL d   1     -41.540-123.786 -47.060  0.00  0.00    -0.259 OA
BRANCH  19  21
ATOM     21  O   UNL d   1     -42.891-123.812 -47.501  0.00  0.00    -0.296 OA
ATOM     22  C   UNL d   1     -43.245-123.514 -46.798  0.00  0.00     0.185 C 
ENDBRANCH  19  21
ENDBRANCH  16  19
ENDBRANCH  12  13
ENDBRANCH  11  12
ENDBRANCH   7  11
BRANCH   4  23
ATOM     23  O   UNL d   1     -41.989-123.660 -53.936  0.00  0.00    -0.326 OA
ATOM     24  C   UNL d   1     -42.629-123.763 -54.437  0.00  0.00     0.181 C 
ENDBRANCH   4  23
BRANCH   6  25
ATOM     25  O   UNL d   1     -41.664-122.443 -55.051  0.00  0.00    -0.326 OA
ATOM     26  C   UNL d   1     -41.894-121.833 -55.557  0.00  0.00     0.181 C 
ENDBRANCH   6  25
TORSDOF 7
ENDMDL
MODEL 2
REMARK VINA RESULT:       1.1      1.124      5.444
REMARK  7 active torsions:
REMARK  status: ('A' for Active; 'I' for Inactive)
REMARK    1  A    between atoms: C_4  and  C_10 
REMARK    2  A    between atoms: O_17  and  C_4 
REMARK    3  A    between atoms: O_19  and  C_5 
REMARK    4  A    between atoms: O_20  and  C_7 
REMARK    5  A    between atoms: C_12  and  C_8 
REMARK    6  A    between atoms: O_15  and  C_12 
REMARK    7  A    between atoms: C_16  and  O_15 
ROOT
ATOM      1  C   UNL d   1     -42.471-122.682 -49.716  0.00  0.00     0.022 A 
ATOM      2  C   UNL d   1     -41.796-123.019 -49.389  0.00  0.00     0.028 A 
ATOM      3  C   UNL d   1     -43.193-122.685 -49.295  0.00  0.00     0.005 A 
ATOM      4  C   UNL d   1     -41.843-123.359 -48.642  0.00  0.00     0.116 A 
ATOM      5  C   UNL d   1     -43.236-123.024 -48.551  0.00  0.00     0.026 A 
ATOM      6  C   UNL d   1     -42.565-123.361 -48.222  0.00  0.00     0.116 A 
ATOM      7  C   UNL d   1     -42.422-122.344 -50.460  0.00  0.00     0.106 A 
ATOM      8  N   UNL d   1     -43.097-122.007 -50.787  0.00  0.00    -0.242 NA
ATOM      9  C   UNL d   1     -43.819-122.010 -50.366  0.00  0.00     0.099 A 
ATOM     10  C   UNL d   1     -43.862-122.349 -49.621  0.00  0.00     0.021 A 
ENDROOT
BRANCH   7  11
ATOM     11  C   UNL d   1     -41.698-122.341 -50.881  0.00  0.00     0.142 C 
BRANCH  11  12
ATOM     12  O   UNL d   1     -41.579-121.810 -51.494  0.00  0.00    -0.304 OA
BRANCH  12  13
ATOM     13  C   UNL d   1     -41.508-122.083 -52.276  0.00  0.00     0.100 A 
ATOM     14  C   UNL d   1     -41.407-122.885 -52.437  0.00  0.00     0.025 A 
ATOM     15  C   UNL d   1     -41.335-123.158 -53.219  0.00  0.00     0.007 A 
ATOM     16  C   UNL d   1     -41.363-122.632 -53.854  0.00  0.00     0.063 A 
ATOM     17  C   UNL d   1     -41.464-121.830 -53.693  0.00  0.00     0.007 A 
ATOM     18  C   UNL d   1     -41.535-121.557 -52.911  0.00  0.00     0.025 A 
BRANCH  16  19
ATOM     19  C   UNL d   1     -41.291-122.910 -54.635  0.00  0.00     0.296 C 
ATOM     20  O   UNL d   1     -41.123-123.695 -54.792  0.00  0.00    -0.259 OA
BRANCH  19  21
ATOM     21  O   UNL d   1     -41.390-122.386 -55.275  0.00  0.00    -0.296 OA
ATOM     22  C   UNL d   1     -41.981-122.529 -55.855  0.00  0.00     0.185 C 
ENDBRANCH  19  21
ENDBRANCH  16  19
ENDBRANCH  12  13
ENDBRANCH  11  12
ENDBRANCH   7  11
BRANCH   4  23
ATOM     23  O   UNL d   1     -41.161-123.703 -48.304  0.00  0.00    -0.326 OA
ATOM     24  C   UNL d   1     -41.123-123.817 -47.493  0.00  0.00     0.181 C 
ENDBRANCH   4  23
BRANCH   6  25
ATOM     25  O   UNL d   1     -42.615-123.708 -47.458  0.00  0.00    -0.326 OA
ATOM     26  C   UNL d   1     -43.359-123.795 -47.111  0.00  0.00     0.181 C 
ENDBRANCH   6  25
TORSDOF 7
ENDMDL
MODEL 3
REMARK VINA RESULT:       2.2      1.370      5.284
REMARK  7 active torsions:
REMARK  status: ('A' for Active; 'I' for Inactive)
REMARK    1  A    between atoms: C_4  and  C_10 
REMARK    2  A    between atoms: O_17  and  C_4 
REMARK    3  A    between atoms: O_19  and  C_5 
REMARK    4  A    between atoms: O_20  and  C_7 
REMARK    5  A    between atoms: C_12  and  C_8 
REMARK    6  A    between atoms: O_15  and  C_12 
REMARK    7  A    between atoms: C_16  and  O_15 
ROOT
ATOM      1  C   UNL d   1     -42.524-122.957 -49.640  0.00  0.00     0.022 A 
ATOM      2  C   UNL d   1     -43.226-123.060 -50.055  0.00  0.00     0.028 A 
ATOM      3  C   UNL d   1     -42.481-123.139 -48.825  0.00  0.00     0.005 A 
ATOM      4  C   UNL d   1     -43.886-123.345 -49.654  0.00  0.00     0.116 A 
ATOM      5  C   UNL d   1     -43.140-123.422 -48.430  0.00  0.00     0.026 A 
ATOM      6  C   UNL d   1     -43.842-123.526 -48.839  0.00  0.00     0.116 A 
ATOM      7  C   UNL d   1     -41.868-122.674 -50.041  0.00  0.00     0.106 A 
ATOM      8  N   UNL d   1     -41.166-122.570 -49.626  0.00  0.00    -0.242 NA
ATOM      9  C   UNL d   1     -41.123-122.752 -48.811  0.00  0.00     0.099 A 
ATOM     10  C   UNL d   1     -41.782-123.035 -48.416  0.00  0.00     0.021 A 
ENDROOT
BRANCH   7  11
ATOM     11  C   UNL d   1     -41.912-122.492 -50.857  0.00  0.00     0.142 C 
BRANCH  11  12
ATOM     12  O   UNL d   1     -41.299-122.702 -51.359  0.00  0.00    -0.304 OA
BRANCH  12  13
ATOM     13  C   UNL d   1     -41.397-122.649 -52.183  0.00  0.00     0.100 A 
ATOM     14  C   UNL d   1     -41.621-121.938 -52.537  0.00  0.00     0.025 A 
ATOM     15  C   UNL d   1     -41.718-121.885 -53.361  0.00  0.00     0.007 A 
ATOM     16  C   UNL d   1     -41.594-122.541 -53.845  0.00  0.00     0.063 A 
ATOM     17  C   UNL d   1     -41.369-123.252 -53.490  0.00  0.00     0.007 A 
ATOM     18  C   UNL d   1     -41.272-123.305 -52.667  0.00  0.00     0.025 A 
BRANCH  16  19
ATOM     19  C   UNL d   1     -41.692-122.483 -54.669  0.00  0.00     0.296 C 
ATOM     20  O   UNL d   1     -41.608-123.138 -55.153  0.00  0.00    -0.259 OA
BRANCH  19  21
ATOM     21  O   UNL d   1     -41.881-121.750 -55.016  0.00  0.00    -0.296 OA
ATOM     22  C   UNL d   1     -41.924-121.674 -55.853  0.00  0.00     0.185 C 
ENDBRANCH  19  21
ENDBRANCH  16  19
ENDBRANCH  12  13
ENDBRANCH  11  12
ENDBRANCH   7  11
BRANCH   4  23
ATOM     23  O   UNL d   1     -44.602-123.452 -50.069  0.00  0.00    -0.326 OA
ATOM     24  C   UNL d   1     -44.864-122.872 -50.586  0.00  0.00     0.181 C 
ENDBRANCH   4  23
BRANCH   6  25
ATOM     25  O   UNL d   1     -44.516-123.817 -48.430  0.00  0.00    -0.326 OA
ATOM     26  C   UNL d   1     -44.505-123.817 -47.604  0.00  0.00     0.181 C 
ENDBRANCH   6  25
TORSDOF 7
ENDMDL
