MODEL 1
REMARK VINA RESULT:      52.5      0.000      0.000
REMARK  5 active torsions:
REMARK  status: ('A' for Active; 'I' for Inactive)
REMARK    1  A    between atoms: C_3  and  C_1 
REMARK    2  A    between atoms: C_6  and  C_1 
REMARK    3  A    between atoms: C_2  and  C_3 
REMARK       I    between atoms: N_4  and  C_2 
REMARK    4  A    between atoms: C_12  and  N_4 
REMARK    5  A    between atoms: N_7  and  C_5 
ROOT
ATOM      1  C   UNL d   1      59.740  49.373  51.274  0.00  0.00     0.328 C 
ATOM      2  N   UNL d   1      60.205  48.764  50.972  0.00  0.00    -0.365 NA
ATOM      3  O   UNL d   1      59.920  49.708  52.006  0.00  0.00    -0.251 OA
ENDROOT
BRANCH   1   4
ATOM      4  C   UNL d   1      59.094  49.646  50.842  0.00  0.00     0.076 C 
BRANCH   4   5
ATOM      5  C   UNL d   1      58.331  49.432  51.067  0.00  0.00     0.007 C 
BRANCH   5   6
ATOM      6  C   UNL d   1      57.703  49.520  50.536  0.00  0.00     0.011 A 
ATOM      7  C   UNL d   1      56.931  49.619  50.820  0.00  0.00     0.058 A 
ATOM      8 CL   UNL d   1      56.788  49.629  51.632  0.00  0.00    -0.082 Cl
ATOM      9  C   UNL d   1      56.302  49.707  50.286  0.00  0.00     0.011 A 
ATOM     10  C   UNL d   1      56.448  49.696  49.473  0.00  0.00     0.001 A 
ATOM     11  C   UNL d   1      57.220  49.597  49.198  0.00  0.00     0.000 A 
ATOM     12  C   UNL d   1      57.846  49.510  49.725  0.00  0.00     0.001 A 
ENDBRANCH   5   6
ENDBRANCH   4   5
ENDBRANCH   1   4
BRANCH   2  13
ATOM     13  C   UNL d   1      60.671  48.156  50.671  0.00  0.00     0.135 A 
ATOM     14  C   UNL d   1      60.500  47.373  50.877  0.00  0.00     0.034 A 
ATOM     15  C   UNL d   1      60.966  46.765  50.576  0.00  0.00     0.020 A 
ATOM     16  C   UNL d   1      61.602  46.940  50.068  0.00  0.00     0.064 A 
ATOM     17  C   UNL d   1      61.768  47.721  49.866  0.00  0.00     0.020 A 
ATOM     18  C   UNL d   1      61.302  48.329  50.168  0.00  0.00     0.034 A 
BRANCH  16  19
ATOM     19  N   UNL d   1      62.070  46.323  49.765  0.00  0.00    -0.301 N 
ATOM     20  C   UNL d   1      61.972  45.554  50.056  0.00  0.00     0.100 C 
ATOM     21  C   UNL d   1      62.628  46.482  49.179  0.00  0.00     0.100 C 
ENDBRANCH  16  19
ENDBRANCH   2  13
TORSDOF 5
ENDMDL
