MODEL 1
REMARK VINA RESULT:      -7.3      0.000      0.000
REMARK  5 active torsions:
REMARK  status: ('A' for Active; 'I' for Inactive)
REMARK    1  A    between atoms: S_6  and  C_2 
REMARK    2  A    between atoms: C_11  and  S_6 
REMARK    3  A    between atoms: C_7  and  C_11 
REMARK       I    between atoms: N_8  and  C_7 
REMARK    4  A    between atoms: C_13  and  N_8 
REMARK    5  A    between atoms: C_14  and  C_13 
ROOT
ATOM      1  S   UNL d   1     -47.983  12.181  22.820  0.00  0.00    -0.080 SA
ENDROOT
BRANCH   1   2
ATOM      2  C   UNL d   1     -48.338  12.895  22.607  0.00  0.00     0.049 A 
ATOM      3  C   UNL d   1     -48.038  13.646  22.745  0.00  0.00     0.087 A 
ATOM      4  N   UNL d   1     -48.579  14.203  22.436  0.00  0.00    -0.302 N 
ATOM      5  C   UNL d   1     -49.214  13.777  22.107  0.00  0.00     0.065 A 
ATOM      6  C   UNL d   1     -48.498  15.023  22.455  0.00  0.00     0.100 C 
ATOM      7  C   UNL d   1     -49.067  12.972  22.212  0.00  0.00     0.024 A 
ATOM      8  C   UNL d   1     -49.901  14.034  21.729  0.00  0.00     0.018 A 
ATOM      9  C   UNL d   1     -49.613  12.420  21.934  0.00  0.00     0.002 A 
ATOM     10  C   UNL d   1     -50.297  12.668  21.558  0.00  0.00     0.000 A 
ATOM     11  C   UNL d   1     -50.445  13.474  21.453  0.00  0.00     0.002 A 
ENDBRANCH   1   2
BRANCH   1  12
ATOM     12  C   UNL d   1     -47.229  12.184  23.163  0.00  0.00     0.098 C 
BRANCH  12  13
ATOM     13  C   UNL d   1     -46.895  11.477  23.430  0.00  0.00     0.286 C 
ATOM     14  N   UNL d   1     -46.076  11.388  23.427  0.00  0.00    -0.204 NA
ATOM     15  O   UNL d   1     -47.378  10.867  23.698  0.00  0.00    -0.265 OA
BRANCH  14  16
ATOM     16  C   UNL d   1     -45.741  10.680  23.694  0.00  0.00     0.127 C 
BRANCH  16  17
ATOM     17  C   UNL d   1     -44.947  10.544  23.587  0.00  0.00     0.119 A 
ATOM     18  O   UNL d   1     -44.382  11.096  23.350  0.00  0.00    -0.304 OA
ATOM     19  C   UNL d   1     -43.643  10.713  23.314  0.00  0.00     0.123 A 
ATOM     20  C   UNL d   1     -43.756   9.925  23.531  0.00  0.00     0.029 A 
ATOM     21  C   UNL d   1     -44.554   9.823  23.697  0.00  0.00     0.028 A 
ENDBRANCH  16  17
ENDBRANCH  14  16
ENDBRANCH  12  13
ENDBRANCH   1  12
TORSDOF 5
ENDMDL
MODEL 2
REMARK VINA RESULT:      -6.7      1.505      2.224
REMARK  5 active torsions:
REMARK  status: ('A' for Active; 'I' for Inactive)
REMARK    1  A    between atoms: S_6  and  C_2 
REMARK    2  A    between atoms: C_11  and  S_6 
REMARK    3  A    between atoms: C_7  and  C_11 
REMARK       I    between atoms: N_8  and  C_7 
REMARK    4  A    between atoms: C_13  and  N_8 
REMARK    5  A    between atoms: C_14  and  C_13 
ROOT
ATOM      1  S   UNL d   1     -48.331  14.169  22.869  0.00  0.00    -0.080 SA
ENDROOT
BRANCH   1   2
ATOM      2  C   UNL d   1     -49.112  14.248  22.616  0.00  0.00     0.049 A 
ATOM      3  C   UNL d   1     -49.479  13.812  22.025  0.00  0.00     0.087 A 
ATOM      4  N   UNL d   1     -50.268  14.079  21.957  0.00  0.00    -0.302 N 
ATOM      5  C   UNL d   1     -50.376  14.686  22.516  0.00  0.00     0.065 A 
ATOM      6  C   UNL d   1     -50.834  13.793  21.431  0.00  0.00     0.100 C 
ATOM      7  C   UNL d   1     -49.665  14.791  22.922  0.00  0.00     0.024 A 
ATOM      8  C   UNL d   1     -51.036  15.147  22.695  0.00  0.00     0.018 A 
ATOM      9  C   UNL d   1     -49.617  15.364  23.514  0.00  0.00     0.002 A 
ATOM     10  C   UNL d   1     -50.268  15.825  23.696  0.00  0.00     0.000 A 
ATOM     11  C   UNL d   1     -50.979  15.720  23.290  0.00  0.00     0.002 A 
ENDBRANCH   1   2
BRANCH   1  12
ATOM     12  C   UNL d   1     -47.849  13.586  22.530  0.00  0.00     0.098 C 
BRANCH  12  13
ATOM     13  C   UNL d   1     -47.090  13.454  22.830  0.00  0.00     0.286 C 
ATOM     14  N   UNL d   1     -46.847  12.685  22.998  0.00  0.00    -0.204 NA
ATOM     15  O   UNL d   1     -46.581  14.088  22.961  0.00  0.00    -0.265 OA
BRANCH  14  16
ATOM     16  C   UNL d   1     -46.088  12.553  23.298  0.00  0.00     0.127 C 
BRANCH  16  17
ATOM     17  C   UNL d   1     -45.828  11.793  23.419  0.00  0.00     0.119 A 
ATOM     18  O   UNL d   1     -45.052  11.523  23.353  0.00  0.00    -0.304 OA
ATOM     19  C   UNL d   1     -45.043  10.708  23.526  0.00  0.00     0.123 A 
ATOM     20  C   UNL d   1     -45.816  10.479  23.698  0.00  0.00     0.029 A 
ATOM     21  C   UNL d   1     -46.295  11.143  23.632  0.00  0.00     0.028 A 
ENDBRANCH  16  17
ENDBRANCH  14  16
ENDBRANCH  12  13
ENDBRANCH   1  12
TORSDOF 5
ENDMDL
MODEL 3
REMARK VINA RESULT:      -6.4      1.563      1.774
REMARK  5 active torsions:
REMARK  status: ('A' for Active; 'I' for Inactive)
REMARK    1  A    between atoms: S_6  and  C_2 
REMARK    2  A    between atoms: C_11  and  S_6 
REMARK    3  A    between atoms: C_7  and  C_11 
REMARK       I    between atoms: N_8  and  C_7 
REMARK    4  A    between atoms: C_13  and  N_8 
REMARK    5  A    between atoms: C_14  and  C_13 
ROOT
ATOM      1  S   UNL d   1     -47.686  13.091  22.832  0.00  0.00    -0.080 SA
ENDROOT
BRANCH   1   2
ATOM      2  C   UNL d   1     -48.327  13.587  22.678  0.00  0.00     0.049 A 
ATOM      3  C   UNL d   1     -48.384  14.382  22.871  0.00  0.00     0.087 A 
ATOM      4  N   UNL d   1     -49.128  14.661  22.610  0.00  0.00    -0.302 N 
ATOM      5  C   UNL d   1     -49.523  14.021  22.255  0.00  0.00     0.065 A 
ATOM      6  C   UNL d   1     -49.415  15.429  22.691  0.00  0.00     0.100 C 
ATOM      7  C   UNL d   1     -49.032  13.359  22.296  0.00  0.00     0.024 A 
ATOM      8  C   UNL d   1     -50.268  13.971  21.904  0.00  0.00     0.018 A 
ATOM      9  C   UNL d   1     -49.290  12.641  21.982  0.00  0.00     0.002 A 
ATOM     10  C   UNL d   1     -50.029  12.586  21.632  0.00  0.00     0.000 A 
ATOM     11  C   UNL d   1     -50.521  13.248  21.591  0.00  0.00     0.002 A 
ENDBRANCH   1   2
BRANCH   1  12
ATOM     12  C   UNL d   1     -46.932  13.418  22.940  0.00  0.00     0.098 C 
BRANCH  12  13
ATOM     13  C   UNL d   1     -46.280  12.922  23.049  0.00  0.00     0.286 C 
ATOM     14  N   UNL d   1     -45.650  12.956  22.520  0.00  0.00    -0.204 NA
ATOM     15  O   UNL d   1     -46.261  12.398  23.684  0.00  0.00    -0.265 OA
BRANCH  14  16
ATOM     16  C   UNL d   1     -44.997  12.460  22.628  0.00  0.00     0.127 C 
BRANCH  16  17
ATOM     17  C   UNL d   1     -44.348  12.536  22.147  0.00  0.00     0.119 A 
ATOM     18  O   UNL d   1     -43.648  12.104  22.196  0.00  0.00    -0.304 OA
ATOM     19  C   UNL d   1     -43.136  12.366  21.592  0.00  0.00     0.123 A 
ATOM     20  C   UNL d   1     -43.525  12.960  21.173  0.00  0.00     0.029 A 
ATOM     21  C   UNL d   1     -44.266  13.064  21.513  0.00  0.00     0.028 A 
ENDBRANCH  16  17
ENDBRANCH  14  16
ENDBRANCH  12  13
ENDBRANCH   1  12
TORSDOF 5
ENDMDL
MODEL 4
REMARK VINA RESULT:      -5.4      2.176      5.446
REMARK  5 active torsions:
REMARK  status: ('A' for Active; 'I' for Inactive)
REMARK    1  A    between atoms: S_6  and  C_2 
REMARK    2  A    between atoms: C_11  and  S_6 
REMARK    3  A    between atoms: C_7  and  C_11 
REMARK       I    between atoms: N_8  and  C_7 
REMARK    4  A    between atoms: C_13  and  N_8 
REMARK    5  A    between atoms: C_14  and  C_13 
ROOT
ATOM      1  S   UNL d   1     -46.569  13.696  22.598  0.00  0.00    -0.080 SA
ENDROOT
BRANCH   1   2
ATOM      2  C   UNL d   1     -46.147  13.007  22.766  0.00  0.00     0.049 A 
ATOM      3  C   UNL d   1     -46.390  12.395  23.255  0.00  0.00     0.087 A 
ATOM      4  N   UNL d   1     -45.789  11.814  23.263  0.00  0.00    -0.302 N 
ATOM      5  C   UNL d   1     -45.175  12.083  22.770  0.00  0.00     0.065 A 
ATOM      6  C   UNL d   1     -45.804  11.104  23.683  0.00  0.00     0.100 C 
ATOM      7  C   UNL d   1     -45.394  12.818  22.464  0.00  0.00     0.024 A 
ATOM      8  C   UNL d   1     -44.451  11.742  22.572  0.00  0.00     0.018 A 
ATOM      9  C   UNL d   1     -44.881  13.213  21.953  0.00  0.00     0.002 A 
ATOM     10  C   UNL d   1     -44.160  12.881  21.752  0.00  0.00     0.000 A 
ATOM     11  C   UNL d   1     -43.941  12.146  22.058  0.00  0.00     0.002 A 
ENDBRANCH   1   2
BRANCH   1  12
ATOM     12  C   UNL d   1     -47.246  13.879  23.040  0.00  0.00     0.098 C 
BRANCH  12  13
ATOM     13  C   UNL d   1     -47.692  14.548  22.850  0.00  0.00     0.286 C 
ATOM     14  N   UNL d   1     -48.509  14.536  22.959  0.00  0.00    -0.204 NA
ATOM     15  O   UNL d   1     -47.323  15.221  22.555  0.00  0.00    -0.265 OA
BRANCH  14  16
ATOM     16  C   UNL d   1     -48.957  15.205  22.770  0.00  0.00     0.127 C 
BRANCH  16  17
ATOM     17  C   UNL d   1     -49.766  15.181  22.835  0.00  0.00     0.119 A 
ATOM     18  O   UNL d   1     -50.290  14.818  22.312  0.00  0.00    -0.304 OA
ATOM     19  C   UNL d   1     -51.064  14.932  22.597  0.00  0.00     0.123 A 
ATOM     20  C   UNL d   1     -51.014  15.366  23.296  0.00  0.00     0.029 A 
ATOM     21  C   UNL d   1     -50.220  15.518  23.441  0.00  0.00     0.028 A 
ENDBRANCH  16  17
ENDBRANCH  14  16
ENDBRANCH  12  13
ENDBRANCH   1  12
TORSDOF 5
ENDMDL
MODEL 5
REMARK VINA RESULT:      -5.4      1.903      4.954
REMARK  5 active torsions:
REMARK  status: ('A' for Active; 'I' for Inactive)
REMARK    1  A    between atoms: S_6  and  C_2 
REMARK    2  A    between atoms: C_11  and  S_6 
REMARK    3  A    between atoms: C_7  and  C_11 
REMARK       I    between atoms: N_8  and  C_7 
REMARK    4  A    between atoms: C_13  and  N_8 
REMARK    5  A    between atoms: C_14  and  C_13 
ROOT
ATOM      1  S   UNL d   1     -48.150  12.281  23.490  0.00  0.00    -0.080 SA
ENDROOT
BRANCH   1   2
ATOM      2  C   UNL d   1     -47.350  12.093  23.429  0.00  0.00     0.049 A 
ATOM      3  C   UNL d   1     -46.990  11.406  23.698  0.00  0.00     0.087 A 
ATOM      4  N   UNL d   1     -46.174  11.452  23.520  0.00  0.00    -0.302 N 
ATOM      5  C   UNL d   1     -46.043  12.180  23.138  0.00  0.00     0.065 A 
ATOM      6  C   UNL d   1     -45.606  10.881  23.692  0.00  0.00     0.100 C 
ATOM      7  C   UNL d   1     -46.766  12.576  23.082  0.00  0.00     0.024 A 
ATOM      8  C   UNL d   1     -45.353  12.520  22.841  0.00  0.00     0.018 A 
ATOM      9  C   UNL d   1     -46.795  13.318  22.723  0.00  0.00     0.002 A 
ATOM     10  C   UNL d   1     -46.114  13.661  22.426  0.00  0.00     0.000 A 
ATOM     11  C   UNL d   1     -45.391  13.265  22.482  0.00  0.00     0.002 A 
ENDBRANCH   1   2
BRANCH   1  12
ATOM     12  C   UNL d   1     -48.720  11.701  23.328  0.00  0.00     0.098 C 
BRANCH  12  13
ATOM     13  C   UNL d   1     -49.515  11.915  23.256  0.00  0.00     0.286 C 
ATOM     14  N   UNL d   1     -49.713  12.646  22.932  0.00  0.00    -0.204 NA
ATOM     15  O   UNL d   1     -50.106  11.399  23.507  0.00  0.00    -0.265 OA
BRANCH  14  16
ATOM     16  C   UNL d   1     -50.508  12.860  22.860  0.00  0.00     0.127 C 
BRANCH  16  17
ATOM     17  C   UNL d   1     -50.704  13.595  22.574  0.00  0.00     0.119 A 
ATOM     18  O   UNL d   1     -50.741  14.296  23.007  0.00  0.00    -0.304 OA
ATOM     19  C   UNL d   1     -50.965  14.910  22.490  0.00  0.00     0.123 A 
ATOM     20  C   UNL d   1     -51.064  14.583  21.739  0.00  0.00     0.029 A 
ATOM     21  C   UNL d   1     -50.905  13.780  21.792  0.00  0.00     0.028 A 
ENDBRANCH  16  17
ENDBRANCH  14  16
ENDBRANCH  12  13
ENDBRANCH   1  12
TORSDOF 5
ENDMDL
MODEL 6
REMARK VINA RESULT:      -5.1      8.184      9.315
REMARK  5 active torsions:
REMARK  status: ('A' for Active; 'I' for Inactive)
REMARK    1  A    between atoms: S_6  and  C_2 
REMARK    2  A    between atoms: C_11  and  S_6 
REMARK    3  A    between atoms: C_7  and  C_11 
REMARK       I    between atoms: N_8  and  C_7 
REMARK    4  A    between atoms: C_13  and  N_8 
REMARK    5  A    between atoms: C_14  and  C_13 
ROOT
ATOM      1  S   UNL d   1     -40.318  14.396  19.070  0.00  0.00    -0.080 SA
ENDROOT
BRANCH   1   2
ATOM      2  C   UNL d   1     -40.235  14.671  18.297  0.00  0.00     0.049 A 
ATOM      3  C   UNL d   1     -40.657  15.284  17.951  0.00  0.00     0.087 A 
ATOM      4  N   UNL d   1     -40.391  15.371  17.163  0.00  0.00    -0.302 N 
ATOM      5  C   UNL d   1     -39.798  14.801  17.036  0.00  0.00     0.065 A 
ATOM      6  C   UNL d   1     -40.665  15.922  16.615  0.00  0.00     0.100 C 
ATOM      7  C   UNL d   1     -39.702  14.369  17.733  0.00  0.00     0.024 A 
ATOM      8  C   UNL d   1     -39.344  14.631  16.369  0.00  0.00     0.018 A 
ATOM      9  C   UNL d   1     -39.144  13.762  17.760  0.00  0.00     0.002 A 
ATOM     10  C   UNL d   1     -38.689  13.589  17.101  0.00  0.00     0.000 A 
ATOM     11  C   UNL d   1     -38.786  14.020  16.404  0.00  0.00     0.002 A 
ENDBRANCH   1   2
BRANCH   1  12
ATOM     12  C   UNL d   1     -40.432  14.937  19.687  0.00  0.00     0.098 C 
BRANCH  12  13
ATOM     13  C   UNL d   1     -40.411  14.677  20.471  0.00  0.00     0.286 C 
ATOM     14  N   UNL d   1     -39.855  14.996  20.990  0.00  0.00    -0.204 NA
ATOM     15  O   UNL d   1     -40.940  14.104  20.732  0.00  0.00    -0.265 OA
BRANCH  14  16
ATOM     16  C   UNL d   1     -39.833  14.737  21.775  0.00  0.00     0.127 C 
BRANCH  16  17
ATOM     17  C   UNL d   1     -39.290  15.053  22.289  0.00  0.00     0.119 A 
ATOM     18  O   UNL d   1     -39.178  15.854  22.454  0.00  0.00    -0.304 OA
ATOM     19  C   UNL d   1     -38.564  15.922  23.013  0.00  0.00     0.123 A 
ATOM     20  C   UNL d   1     -38.300  15.161  23.191  0.00  0.00     0.029 A 
ATOM     21  C   UNL d   1     -38.744  14.631  22.748  0.00  0.00     0.028 A 
ENDBRANCH  16  17
ENDBRANCH  14  16
ENDBRANCH  12  13
ENDBRANCH   1  12
TORSDOF 5
ENDMDL
MODEL 7
REMARK VINA RESULT:      -4.6      3.241      4.212
REMARK  5 active torsions:
REMARK  status: ('A' for Active; 'I' for Inactive)
REMARK    1  A    between atoms: S_6  and  C_2 
REMARK    2  A    between atoms: C_11  and  S_6 
REMARK    3  A    between atoms: C_7  and  C_11 
REMARK       I    between atoms: N_8  and  C_7 
REMARK    4  A    between atoms: C_13  and  N_8 
REMARK    5  A    between atoms: C_14  and  C_13 
ROOT
ATOM      1  S   UNL d   1     -44.788  12.760  22.051  0.00  0.00    -0.080 SA
ENDROOT
BRANCH   1   2
ATOM      2  C   UNL d   1     -45.496  13.042  22.366  0.00  0.00     0.049 A 
ATOM      3  C   UNL d   1     -45.786  13.808  22.301  0.00  0.00     0.087 A 
ATOM      4  N   UNL d   1     -46.518  13.844  22.704  0.00  0.00    -0.302 N 
ATOM      5  C   UNL d   1     -46.669  13.087  23.016  0.00  0.00     0.065 A 
ATOM      6  C   UNL d   1     -47.000  14.508  22.778  0.00  0.00     0.100 C 
ATOM      7  C   UNL d   1     -46.040  12.593  22.808  0.00  0.00     0.024 A 
ATOM      8  C   UNL d   1     -47.302  12.800  23.459  0.00  0.00     0.018 A 
ATOM      9  C   UNL d   1     -46.049  11.804  23.049  0.00  0.00     0.002 A 
ATOM     10  C   UNL d   1     -46.674  11.512  23.490  0.00  0.00     0.000 A 
ATOM     11  C   UNL d   1     -47.302  12.007  23.697  0.00  0.00     0.002 A 
ENDBRANCH   1   2
BRANCH   1  12
ATOM     12  C   UNL d   1     -44.217  13.296  21.781  0.00  0.00     0.098 C 
BRANCH  12  13
ATOM     13  C   UNL d   1     -43.480  13.021  21.530  0.00  0.00     0.286 C 
ATOM     14  N   UNL d   1     -42.867  13.557  21.404  0.00  0.00    -0.204 NA
ATOM     15  O   UNL d   1     -43.359  12.216  21.407  0.00  0.00    -0.265 OA
BRANCH  14  16
ATOM     16  C   UNL d   1     -42.128  13.282  21.153  0.00  0.00     0.127 C 
BRANCH  16  17
ATOM     17  C   UNL d   1     -41.538  13.812  20.981  0.00  0.00     0.119 A 
ATOM     18  O   UNL d   1     -41.527  14.350  20.356  0.00  0.00    -0.304 OA
ATOM     19  C   UNL d   1     -40.815  14.780  20.394  0.00  0.00     0.123 A 
ATOM     20  C   UNL d   1     -40.388  14.504  21.044  0.00  0.00     0.029 A 
ATOM     21  C   UNL d   1     -40.831  13.912  21.401  0.00  0.00     0.028 A 
ENDBRANCH  16  17
ENDBRANCH  14  16
ENDBRANCH  12  13
ENDBRANCH   1  12
TORSDOF 5
ENDMDL
