MODEL 1
REMARK VINA RESULT:      -5.4      0.000      0.000
REMARK  2 active torsions:
REMARK  status: ('A' for Active; 'I' for Inactive)
REMARK    1  A    between atoms: N_7  and  C_3 
REMARK    2  A    between atoms: C_11  and  N_8 
ROOT
ATOM      1  N   UNL d   1     -41.588-123.210 -52.526  0.00  0.00    -0.286 N 
ATOM      2  N   UNL d   1     -41.674-123.220 -50.882  0.00  0.00    -0.301 N 
ATOM      3  C   UNL d   1     -41.123-122.687 -52.087  0.00  0.00     0.101 A 
ATOM      4  C   UNL d   1     -42.090-123.732 -52.148  0.00  0.00     0.101 A 
ATOM      5  C   UNL d   1     -41.169-122.695 -51.263  0.00  0.00     0.100 A 
ATOM      6  C   UNL d   1     -42.136-123.740 -51.324  0.00  0.00     0.100 A 
ENDROOT
BRANCH   1   7
ATOM      7  C   UNL d   1     -41.543-123.202 -53.345  0.00  0.00     0.154 A 
ATOM      8  C   UNL d   1     -41.861-122.580 -53.763  0.00  0.00     0.091 A 
ATOM      9  C   UNL d   1     -41.816-122.572 -54.583  0.00  0.00     0.170 A 
ATOM     10  C   UNL d   1     -42.253-121.895 -53.515  0.00  0.00     0.127 A 
ATOM     11  N   UNL d   1     -42.182-121.879 -54.847  0.00  0.00    -0.209 N 
ATOM     12  N   UNL d   1     -41.453-123.186 -54.980  0.00  0.00    -0.205 NA
ATOM     13  C   UNL d   1     -42.261-121.650 -55.638  0.00  0.00     0.123 C 
ATOM     14  N   UNL d   1     -42.450-121.465 -54.190  0.00  0.00    -0.162 NA
ATOM     15  C   UNL d   1     -41.135-123.809 -54.558  0.00  0.00     0.202 A 
ATOM     16  N   UNL d   1     -41.181-123.817 -53.735  0.00  0.00    -0.206 NA
ENDBRANCH   1   7
BRANCH   2  17
ATOM     17  C   UNL d   1     -41.716-123.225 -50.058  0.00  0.00     0.065 A 
ATOM     18  C   UNL d   1     -42.350-122.863 -49.682  0.00  0.00     0.030 A 
ATOM     19  C   UNL d   1     -42.403-122.861 -48.859  0.00  0.00     0.070 A 
ATOM     20 CL   UNL d   1     -43.043-122.495 -48.487  0.00  0.00    -0.081 Cl
ATOM     21  C   UNL d   1     -41.809-123.230 -48.411  0.00  0.00     0.068 A 
ATOM     22  C   UNL d   1     -41.169-123.595 -48.791  0.00  0.00     0.014 A 
ATOM     23 CL   UNL d   1     -41.856-123.232 -47.587  0.00  0.00    -0.082 Cl
ATOM     24  C   UNL d   1     -41.123-123.593 -49.615  0.00  0.00     0.018 A 
ENDBRANCH   2  17
TORSDOF 2
ENDMDL
