MODEL 1
REMARK VINA RESULT:      42.9      0.000      0.000
REMARK  5 active torsions:
REMARK  status: ('A' for Active; 'I' for Inactive)
REMARK    1  A    between atoms: N_2  and  C_1 
REMARK    2  A    between atoms: C_8  and  C_5 
REMARK    3  A    between atoms: C_6  and  C_9 
REMARK       I    between atoms: N_12  and  C_6 
REMARK    4  A    between atoms: C_9  and  C_8 
REMARK    5  A    between atoms: C_14  and  N_12 
ROOT
ATOM      1  C   UNL d   1     -49.465  27.681  34.154  0.00  0.00     0.279 C 
ATOM      2  N   UNL d   1     -49.675  27.356  33.432  0.00  0.00    -0.208 NA
ATOM      3  O   UNL d   1     -49.787  27.382  34.849  0.00  0.00    -0.265 OA
ENDROOT
BRANCH   1   4
ATOM      4  C   UNL d   1     -48.927  28.313  34.185  0.00  0.00     0.063 C 
BRANCH   4   5
ATOM      5  C   UNL d   1     -48.371  28.359  34.794  0.00  0.00     0.011 C 
BRANCH   5   6
ATOM      6  C   UNL d   1     -48.075  29.109  35.046  0.00  0.00     0.031 A 
ATOM      7  S   UNL d   1     -48.068  29.848  34.682  0.00  0.00    -0.064 SA
ATOM      8  C   UNL d   1     -47.704  30.370  35.195  0.00  0.00     0.156 A 
ATOM      9  C   UNL d   1     -47.481  29.976  35.876  0.00  0.00     0.031 A 
ATOM     10  C   UNL d   1     -47.715  29.180  35.781  0.00  0.00     0.009 A 
BRANCH   8  11
ATOM     11  N   UNL d   1     -47.586  31.176  35.034  0.00  0.00    -0.107 N 
ATOM     12  O   UNL d   1     -47.911  31.532  34.367  0.00  0.00    -0.531 OA
ATOM     13  O   UNL d   1     -47.130  31.620  35.564  0.00  0.00    -0.531 OA
ENDBRANCH   8  11
ENDBRANCH   5   6
ENDBRANCH   4   5
ENDBRANCH   1   4
BRANCH   2  14
ATOM     14  C   UNL d   1     -50.212  26.725  33.402  0.00  0.00     0.085 A 
ATOM     15  C   UNL d   1     -51.031  26.876  33.418  0.00  0.00     0.019 A 
ATOM     16  C   UNL d   1     -51.573  26.273  33.388  0.00  0.00     0.002 A 
ATOM     17  C   UNL d   1     -51.277  25.474  33.341  0.00  0.00     0.000 A 
ATOM     18  C   UNL d   1     -50.466  25.333  33.325  0.00  0.00     0.002 A 
ATOM     19  C   UNL d   1     -51.798  24.828  33.309  0.00  0.00     0.000 C 
ATOM     20  C   UNL d   1     -49.940  25.951  33.356  0.00  0.00     0.019 A 
ENDBRANCH   2  14
TORSDOF 5
ENDMDL
MODEL 2
REMARK VINA RESULT:      45.7      1.830      5.327
REMARK  5 active torsions:
REMARK  status: ('A' for Active; 'I' for Inactive)
REMARK    1  A    between atoms: N_2  and  C_1 
REMARK    2  A    between atoms: C_8  and  C_5 
REMARK    3  A    between atoms: C_6  and  C_9 
REMARK       I    between atoms: N_12  and  C_6 
REMARK    4  A    between atoms: C_9  and  C_8 
REMARK    5  A    between atoms: C_14  and  N_12 
ROOT
ATOM      1  C   UNL d   1     -49.007  28.272  34.250  0.00  0.00     0.279 C 
ATOM      2  N   UNL d   1     -48.287  28.296  34.638  0.00  0.00    -0.208 NA
ATOM      3  O   UNL d   1     -49.451  28.958  34.165  0.00  0.00    -0.265 OA
ENDROOT
BRANCH   1   4
ATOM      4  C   UNL d   1     -49.291  27.554  33.941  0.00  0.00     0.063 C 
BRANCH   4   5
ATOM      5  C   UNL d   1     -49.903  27.551  33.388  0.00  0.00     0.011 C 
BRANCH   5   6
ATOM      6  C   UNL d   1     -50.476  26.930  33.390  0.00  0.00     0.031 A 
ATOM      7  S   UNL d   1     -50.398  26.110  33.374  0.00  0.00    -0.064 SA
ATOM      8  C   UNL d   1     -51.151  25.792  33.385  0.00  0.00     0.156 A 
ATOM      9  C   UNL d   1     -51.705  26.395  33.407  0.00  0.00     0.031 A 
ATOM     10  C   UNL d   1     -51.277  27.112  33.410  0.00  0.00     0.009 A 
BRANCH   8  11
ATOM     11  N   UNL d   1     -51.314  24.979  33.374  0.00  0.00    -0.107 N 
ATOM     12  O   UNL d   1     -50.712  24.422  33.306  0.00  0.00    -0.531 OA
ATOM     13  O   UNL d   1     -52.104  24.735  33.435  0.00  0.00    -0.531 OA
ENDBRANCH   8  11
ENDBRANCH   5   6
ENDBRANCH   4   5
ENDBRANCH   1   4
BRANCH   2  14
ATOM     14  C   UNL d   1     -48.004  29.013  34.946  0.00  0.00     0.085 A 
ATOM     15  C   UNL d   1     -47.958  29.684  34.457  0.00  0.00     0.019 A 
ATOM     16  C   UNL d   1     -47.684  30.395  34.739  0.00  0.00     0.002 A 
ATOM     17  C   UNL d   1     -47.444  30.432  35.556  0.00  0.00     0.000 A 
ATOM     18  C   UNL d   1     -47.493  29.763  36.033  0.00  0.00     0.002 A 
ATOM     19  C   UNL d   1     -47.158  31.140  35.884  0.00  0.00     0.000 C 
ATOM     20  C   UNL d   1     -47.769  29.062  35.731  0.00  0.00     0.019 A 
ENDBRANCH   2  14
TORSDOF 5
ENDMDL
