MODEL 1
REMARK VINA RESULT:     -10.4      0.000      0.000
REMARK  6 active torsions:
REMARK  status: ('A' for Active; 'I' for Inactive)
REMARK       I    between atoms: C_4  and  N_1 
REMARK    1  A    between atoms: C_8  and  C_3 
REMARK    2  A    between atoms: C_16  and  C_4 
REMARK    3  A    between atoms: C_13  and  C_5 
REMARK    4  A    between atoms: N_6  and  C_9 
REMARK    5  A    between atoms: O_24  and  C_11 
REMARK    6  A    between atoms: O_25  and  C_17 
ROOT
ATOM      1  N   UNL d   1      52.291  34.209  53.576  0.00  0.00    -0.195 N 
ATOM      2  N   UNL d   1      51.630  34.662  53.328  0.00  0.00    -0.163 NA
ATOM      3  C   UNL d   1      52.232  33.473  53.195  0.00  0.00     0.088 A 
ATOM      4  C   UNL d   1      52.909  34.459  54.117  0.00  0.00     0.280 C 
ATOM      5  C   UNL d   1      51.186  34.190  52.803  0.00  0.00     0.103 A 
ATOM      6  C   UNL d   1      51.553  33.474  52.727  0.00  0.00     0.040 A 
ATOM      7  O   UNL d   1      52.894  35.202  54.450  0.00  0.00    -0.265 OA
ENDROOT
BRANCH   3   8
ATOM      8  C   UNL d   1      52.797  32.876  53.311  0.00  0.00     0.020 A 
ATOM      9  C   UNL d   1      52.399  32.174  53.191  0.00  0.00     0.028 A 
ATOM     10  C   UNL d   1      52.791  31.458  53.261  0.00  0.00     0.116 A 
ATOM     11  C   UNL d   1      53.595  31.443  53.454  0.00  0.00     0.116 A 
ATOM     12  C   UNL d   1      53.988  32.182  53.573  0.00  0.00     0.026 A 
ATOM     13  C   UNL d   1      53.596  32.896  53.503  0.00  0.00     0.004 A 
BRANCH  10  14
ATOM     14  O   UNL d   1      52.377  30.739  53.138  0.00  0.00    -0.326 OA
ATOM     15  C   UNL d   1      51.672  30.560  53.574  0.00  0.00     0.181 C 
ENDBRANCH  10  14
BRANCH  11  16
ATOM     16  O   UNL d   1      54.004  30.712  53.527  0.00  0.00    -0.326 OA
ATOM     17  C   UNL d   1      54.397  30.405  52.895  0.00  0.00     0.181 C 
ENDBRANCH  11  16
ENDBRANCH   3   8
BRANCH   4  18
ATOM     18  C   UNL d   1      53.540  33.914  54.302  0.00  0.00     0.058 A 
ATOM     19  C   UNL d   1      53.486  33.421  54.960  0.00  0.00     0.005 A 
ATOM     20  C   UNL d   1      54.089  32.889  55.150  0.00  0.00     0.000 A 
ATOM     21  C   UNL d   1      54.758  32.854  54.669  0.00  0.00     0.000 A 
ATOM     22  C   UNL d   1      54.811  33.347  54.011  0.00  0.00     0.000 A 
ATOM     23  C   UNL d   1      54.204  33.882  53.820  0.00  0.00     0.005 A 
ENDBRANCH   4  18
BRANCH   5  24
ATOM     24  C   UNL d   1      50.490  34.368  52.404  0.00  0.00     0.019 A 
ATOM     25  C   UNL d   1      49.852  34.652  52.861  0.00  0.00     0.003 A 
ATOM     26  C   UNL d   1      49.146  34.839  52.502  0.00  0.00     0.024 A 
ATOM     27  C   UNL d   1      49.060  34.746  51.676  0.00  0.00     0.127 A 
ATOM     28  C   UNL d   1      49.698  34.462  51.220  0.00  0.00     0.024 A 
ATOM     29  C   UNL d   1      50.417  34.274  51.605  0.00  0.00     0.003 A 
BRANCH  27  30
ATOM     30  N   UNL d   1      48.323  34.942  51.307  0.00  0.00    -0.114 N 
ATOM     31  O   UNL d   1      47.879  35.593  51.575  0.00  0.00    -0.532 OA
ATOM     32  O   UNL d   1      48.043  34.478  50.672  0.00  0.00    -0.532 OA
ENDBRANCH  27  30
ENDBRANCH   5  24
TORSDOF 6
ENDMDL
MODEL 2
REMARK VINA RESULT:      -9.2      1.042      2.482
REMARK  6 active torsions:
REMARK  status: ('A' for Active; 'I' for Inactive)
REMARK       I    between atoms: C_4  and  N_1 
REMARK    1  A    between atoms: C_8  and  C_3 
REMARK    2  A    between atoms: C_16  and  C_4 
REMARK    3  A    between atoms: C_13  and  C_5 
REMARK    4  A    between atoms: N_6  and  C_9 
REMARK    5  A    between atoms: O_24  and  C_11 
REMARK    6  A    between atoms: O_25  and  C_17 
ROOT
ATOM      1  N   UNL d   1      51.940  33.087  52.885  0.00  0.00    -0.195 N 
ATOM      2  N   UNL d   1      51.214  33.265  52.503  0.00  0.00    -0.163 NA
ATOM      3  C   UNL d   1      52.056  33.673  53.463  0.00  0.00     0.088 A 
ATOM      4  C   UNL d   1      52.462  32.427  52.712  0.00  0.00     0.280 C 
ATOM      5  C   UNL d   1      50.908  33.954  52.859  0.00  0.00     0.103 A 
ATOM      6  C   UNL d   1      51.419  34.196  53.436  0.00  0.00     0.040 A 
ATOM      7  O   UNL d   1      52.275  31.893  52.125  0.00  0.00    -0.265 OA
ENDROOT
BRANCH   3   8
ATOM      8  C   UNL d   1      52.726  33.674  53.954  0.00  0.00     0.020 A 
ATOM      9  C   UNL d   1      52.916  34.461  54.060  0.00  0.00     0.028 A 
ATOM     10  C   UNL d   1      53.557  34.673  54.522  0.00  0.00     0.116 A 
ATOM     11  C   UNL d   1      54.018  34.091  54.884  0.00  0.00     0.116 A 
ATOM     12  C   UNL d   1      53.803  33.282  54.761  0.00  0.00     0.026 A 
ATOM     13  C   UNL d   1      53.162  33.071  54.300  0.00  0.00     0.004 A 
BRANCH  10  14
ATOM     14  O   UNL d   1      53.749  35.483  54.627  0.00  0.00    -0.326 OA
ATOM     15  C   UNL d   1      53.145  36.078  54.625  0.00  0.00     0.181 C 
ENDBRANCH  10  14
BRANCH  11  16
ATOM     16  O   UNL d   1      54.679  34.301  55.360  0.00  0.00    -0.326 OA
ATOM     17  C   UNL d   1      54.755  33.995  56.100  0.00  0.00     0.181 C 
ENDBRANCH  11  16
ENDBRANCH   3   8
BRANCH   4  18
ATOM     18  C   UNL d   1      53.180  32.340  53.164  0.00  0.00     0.058 A 
ATOM     19  C   UNL d   1      53.880  32.692  52.909  0.00  0.00     0.005 A 
ATOM     20  C   UNL d   1      54.582  32.615  53.337  0.00  0.00     0.000 A 
ATOM     21  C   UNL d   1      54.579  32.176  54.035  0.00  0.00     0.000 A 
ATOM     22  C   UNL d   1      53.879  31.824  54.290  0.00  0.00     0.000 A 
ATOM     23  C   UNL d   1      53.172  31.901  53.858  0.00  0.00     0.005 A 
ENDBRANCH   4  18
BRANCH   5  24
ATOM     24  C   UNL d   1      50.214  34.361  52.693  0.00  0.00     0.019 A 
ATOM     25  C   UNL d   1      49.922  34.313  51.913  0.00  0.00     0.003 A 
ATOM     26  C   UNL d   1      49.237  34.702  51.710  0.00  0.00     0.024 A 
ATOM     27  C   UNL d   1      48.826  35.151  52.282  0.00  0.00     0.127 A 
ATOM     28  C   UNL d   1      49.118  35.199  53.062  0.00  0.00     0.024 A 
ATOM     29  C   UNL d   1      49.824  34.792  53.254  0.00  0.00     0.003 A 
BRANCH  27  30
ATOM     30  N   UNL d   1      48.113  35.554  52.066  0.00  0.00    -0.114 N 
ATOM     31  O   UNL d   1      47.829  36.184  52.530  0.00  0.00    -0.532 OA
ATOM     32  O   UNL d   1      47.696  35.317  51.382  0.00  0.00    -0.532 OA
ENDBRANCH  27  30
ENDBRANCH   5  24
TORSDOF 6
ENDMDL
