MODEL 1
REMARK VINA RESULT:      -7.1      0.000      0.000
REMARK  4 active torsions:
REMARK  status: ('A' for Active; 'I' for Inactive)
REMARK    1  A    between atoms: C_9  and  C_3 
REMARK    2  A    between atoms: C_6  and  C_10 
REMARK    3  A    between atoms: S_7  and  C_9 
REMARK    4  A    between atoms: C_10  and  S_7 
ROOT
ATOM      1  N   UNL d   1      53.442  33.049  54.320  0.00  0.00    -0.218 NA
ATOM      2  N   UNL d   1      52.829  33.265  53.170  0.00  0.00    -0.218 NA
ATOM      3  C   UNL d   1      53.172  32.677  53.639  0.00  0.00     0.206 A 
ATOM      4  C   UNL d   1      53.274  33.838  54.275  0.00  0.00     0.101 A 
ATOM      5  C   UNL d   1      52.891  33.972  53.557  0.00  0.00     0.101 A 
ATOM      6  C   UNL d   1      53.402  34.470  54.765  0.00  0.00     0.021 A 
ATOM      7  C   UNL d   1      52.650  34.734  53.355  0.00  0.00     0.021 A 
ATOM      8  C   UNL d   1      53.174  35.228  54.589  0.00  0.00     0.002 A 
ATOM      9  C   UNL d   1      52.791  35.363  53.870  0.00  0.00     0.002 A 
ENDROOT
BRANCH   3  10
ATOM     10  C   UNL d   1      53.229  31.874  53.458  0.00  0.00    -0.027 C 
BRANCH  10  11
ATOM     11  S   UNL d   1      53.287  31.071  53.277  0.00  0.00    -0.041 SA
BRANCH  11  12
ATOM     12  C   UNL d   1      53.343  30.514  53.884  0.00  0.00     0.043 C 
BRANCH  12  13
ATOM     13  C   UNL d   1      53.193  29.718  53.728  0.00  0.00     0.007 C 
ATOM     14  C   UNL d   1      53.360  29.147  54.304  0.00  0.00     0.001 C 
ATOM     15  C   UNL d   1      52.879  29.493  52.999  0.00  0.00     0.001 C 
ENDBRANCH  12  13
ENDBRANCH  11  12
ENDBRANCH  10  11
ENDBRANCH   3  10
TORSDOF 4
ENDMDL
MODEL 2
REMARK VINA RESULT:      -6.9      2.073      3.655
REMARK  4 active torsions:
REMARK  status: ('A' for Active; 'I' for Inactive)
REMARK    1  A    between atoms: C_9  and  C_3 
REMARK    2  A    between atoms: C_6  and  C_10 
REMARK    3  A    between atoms: S_7  and  C_9 
REMARK    4  A    between atoms: C_10  and  S_7 
ROOT
ATOM      1  N   UNL d   1      52.880  34.355  54.047  0.00  0.00    -0.218 NA
ATOM      2  N   UNL d   1      52.789  33.091  53.674  0.00  0.00    -0.218 NA
ATOM      3  C   UNL d   1      52.454  33.839  53.569  0.00  0.00     0.206 A 
ATOM      4  C   UNL d   1      53.457  33.942  54.433  0.00  0.00     0.101 A 
ATOM      5  C   UNL d   1      53.400  33.153  54.200  0.00  0.00     0.101 A 
ATOM      6  C   UNL d   1      54.035  34.143  54.965  0.00  0.00     0.021 A 
ATOM      7  C   UNL d   1      53.923  32.594  54.506  0.00  0.00     0.021 A 
ATOM      8  C   UNL d   1      54.560  33.612  55.280  0.00  0.00     0.002 A 
ATOM      9  C   UNL d   1      54.503  32.823  55.046  0.00  0.00     0.002 A 
ENDROOT
BRANCH   3  10
ATOM     10  C   UNL d   1      51.818  34.030  53.081  0.00  0.00    -0.027 C 
BRANCH  10  11
ATOM     11  S   UNL d   1      51.181  34.220  52.592  0.00  0.00    -0.041 SA
BRANCH  11  12
ATOM     12  C   UNL d   1      50.413  34.221  52.896  0.00  0.00     0.043 C 
BRANCH  12  13
ATOM     13  C   UNL d   1      49.796  34.547  52.456  0.00  0.00     0.007 C 
ATOM     14  C   UNL d   1      49.257  35.061  52.820  0.00  0.00     0.001 C 
ATOM     15  C   UNL d   1      49.716  34.361  51.656  0.00  0.00     0.001 C 
ENDBRANCH  12  13
ENDBRANCH  11  12
ENDBRANCH  10  11
ENDBRANCH   3  10
TORSDOF 4
ENDMDL
MODEL 3
REMARK VINA RESULT:      -6.7      1.009      4.184
REMARK  4 active torsions:
REMARK  status: ('A' for Active; 'I' for Inactive)
REMARK    1  A    between atoms: C_9  and  C_3 
REMARK    2  A    between atoms: C_6  and  C_10 
REMARK    3  A    between atoms: S_7  and  C_9 
REMARK    4  A    between atoms: C_10  and  S_7 
ROOT
ATOM      1  N   UNL d   1      53.643  31.397  54.047  0.00  0.00    -0.218 NA
ATOM      2  N   UNL d   1      52.821  31.455  53.014  0.00  0.00    -0.218 NA
ATOM      3  C   UNL d   1      53.276  31.917  53.527  0.00  0.00     0.206 A 
ATOM      4  C   UNL d   1      53.425  30.642  53.863  0.00  0.00     0.101 A 
ATOM      5  C   UNL d   1      52.912  30.678  53.218  0.00  0.00     0.101 A 
ATOM      6  C   UNL d   1      53.602  29.914  54.171  0.00  0.00     0.021 A 
ATOM      7  C   UNL d   1      52.595  29.985  52.904  0.00  0.00     0.021 A 
ATOM      8  C   UNL d   1      53.303  29.218  53.879  0.00  0.00     0.002 A 
ATOM      9  C   UNL d   1      52.790  29.255  53.234  0.00  0.00     0.002 A 
ENDROOT
BRANCH   3  10
ATOM     10  C   UNL d   1      53.346  32.739  53.518  0.00  0.00    -0.027 C 
BRANCH  10  11
ATOM     11  S   UNL d   1      53.416  33.561  53.508  0.00  0.00    -0.041 SA
BRANCH  11  12
ATOM     12  C   UNL d   1      52.881  34.026  53.932  0.00  0.00     0.043 C 
BRANCH  12  13
ATOM     13  C   UNL d   1      52.801  34.828  53.756  0.00  0.00     0.007 C 
ATOM     14  C   UNL d   1      53.078  35.397  54.292  0.00  0.00     0.001 C 
ATOM     15  C   UNL d   1      52.447  35.062  53.049  0.00  0.00     0.001 C 
ENDBRANCH  12  13
ENDBRANCH  11  12
ENDBRANCH  10  11
ENDBRANCH   3  10
TORSDOF 4
ENDMDL
MODEL 4
REMARK VINA RESULT:      -6.4      1.969      4.158
REMARK  4 active torsions:
REMARK  status: ('A' for Active; 'I' for Inactive)
REMARK    1  A    between atoms: C_9  and  C_3 
REMARK    2  A    between atoms: C_6  and  C_10 
REMARK    3  A    between atoms: S_7  and  C_9 
REMARK    4  A    between atoms: C_10  and  S_7 
ROOT
ATOM      1  N   UNL d   1      52.080  31.955  52.719  0.00  0.00    -0.218 NA
ATOM      2  N   UNL d   1      52.875  32.734  53.430  0.00  0.00    -0.218 NA
ATOM      3  C   UNL d   1      52.186  32.730  52.974  0.00  0.00     0.206 A 
ATOM      4  C   UNL d   1      52.679  31.497  53.006  0.00  0.00     0.101 A 
ATOM      5  C   UNL d   1      53.176  31.983  53.450  0.00  0.00     0.101 A 
ATOM      6  C   UNL d   1      52.868  30.712  52.943  0.00  0.00     0.021 A 
ATOM      7  C   UNL d   1      53.844  31.666  53.815  0.00  0.00     0.021 A 
ATOM      8  C   UNL d   1      53.518  30.377  53.293  0.00  0.00     0.002 A 
ATOM      9  C   UNL d   1      54.015  30.863  53.737  0.00  0.00     0.002 A 
ENDROOT
BRANCH   3  10
ATOM     10  C   UNL d   1      51.702  33.376  52.808  0.00  0.00    -0.027 C 
BRANCH  10  11
ATOM     11  S   UNL d   1      51.218  34.023  52.642  0.00  0.00    -0.041 SA
BRANCH  11  12
ATOM     12  C   UNL d   1      50.443  34.043  52.927  0.00  0.00     0.043 C 
BRANCH  12  13
ATOM     13  C   UNL d   1      49.896  34.566  52.599  0.00  0.00     0.007 C 
ATOM     14  C   UNL d   1      49.506  35.112  53.085  0.00  0.00     0.001 C 
ATOM     15  C   UNL d   1      49.738  34.543  51.789  0.00  0.00     0.001 C 
ENDBRANCH  12  13
ENDBRANCH  11  12
ENDBRANCH  10  11
ENDBRANCH   3  10
TORSDOF 4
ENDMDL
MODEL 5
REMARK VINA RESULT:      -6.4      2.302      3.181
REMARK  4 active torsions:
REMARK  status: ('A' for Active; 'I' for Inactive)
REMARK    1  A    between atoms: C_9  and  C_3 
REMARK    2  A    between atoms: C_6  and  C_10 
REMARK    3  A    between atoms: S_7  and  C_9 
REMARK    4  A    between atoms: C_10  and  S_7 
ROOT
ATOM      1  N   UNL d   1      51.420  33.898  53.586  0.00  0.00    -0.218 NA
ATOM      2  N   UNL d   1      52.040  33.775  52.426  0.00  0.00    -0.218 NA
ATOM      3  C   UNL d   1      52.139  33.693  53.242  0.00  0.00     0.206 A 
ATOM      4  C   UNL d   1      50.897  34.100  53.005  0.00  0.00     0.101 A 
ATOM      5  C   UNL d   1      51.284  34.023  52.280  0.00  0.00     0.101 A 
ATOM      6  C   UNL d   1      50.125  34.344  53.002  0.00  0.00     0.021 A 
ATOM      7  C   UNL d   1      50.885  34.193  51.579  0.00  0.00     0.021 A 
ATOM      8  C   UNL d   1      49.711  34.517  52.326  0.00  0.00     0.002 A 
ATOM      9  C   UNL d   1      50.098  34.440  51.602  0.00  0.00     0.002 A 
ENDROOT
BRANCH   3  10
ATOM     10  C   UNL d   1      52.824  33.452  53.633  0.00  0.00    -0.027 C 
BRANCH  10  11
ATOM     11  S   UNL d   1      53.509  33.211  54.025  0.00  0.00    -0.041 SA
BRANCH  11  12
ATOM     12  C   UNL d   1      53.856  33.703  54.590  0.00  0.00     0.043 C 
BRANCH  12  13
ATOM     13  C   UNL d   1      54.493  33.431  55.038  0.00  0.00     0.007 C 
ATOM     14  C   UNL d   1      54.397  32.773  55.533  0.00  0.00     0.001 C 
ATOM     15  C   UNL d   1      55.222  33.814  54.993  0.00  0.00     0.001 C 
ENDBRANCH  12  13
ENDBRANCH  11  12
ENDBRANCH  10  11
ENDBRANCH   3  10
TORSDOF 4
ENDMDL
MODEL 6
REMARK VINA RESULT:      -5.9      1.690      2.018
REMARK  4 active torsions:
REMARK  status: ('A' for Active; 'I' for Inactive)
REMARK    1  A    between atoms: C_9  and  C_3 
REMARK    2  A    between atoms: C_6  and  C_10 
REMARK    3  A    between atoms: S_7  and  C_9 
REMARK    4  A    between atoms: C_10  and  S_7 
ROOT
ATOM      1  N   UNL d   1      52.208  33.103  52.428  0.00  0.00    -0.218 NA
ATOM      2  N   UNL d   1      51.505  32.763  53.494  0.00  0.00    -0.218 NA
ATOM      3  C   UNL d   1      52.177  32.570  53.053  0.00  0.00     0.206 A 
ATOM      4  C   UNL d   1      51.579  33.606  52.479  0.00  0.00     0.101 A 
ATOM      5  C   UNL d   1      51.140  33.394  53.144  0.00  0.00     0.101 A 
ATOM      6  C   UNL d   1      51.320  34.231  52.033  0.00  0.00     0.021 A 
ATOM      7  C   UNL d   1      50.459  33.815  53.340  0.00  0.00     0.021 A 
ATOM      8  C   UNL d   1      50.654  34.660  52.204  0.00  0.00     0.002 A 
ATOM      9  C   UNL d   1      50.215  34.448  52.870  0.00  0.00     0.002 A 
ENDROOT
BRANCH   3  10
ATOM     10  C   UNL d   1      52.712  31.962  53.212  0.00  0.00    -0.027 C 
BRANCH  10  11
ATOM     11  S   UNL d   1      53.246  31.353  53.370  0.00  0.00    -0.041 SA
BRANCH  11  12
ATOM     12  C   UNL d   1      53.022  30.567  53.254  0.00  0.00     0.043 C 
BRANCH  12  13
ATOM     13  C   UNL d   1      53.470  29.958  53.585  0.00  0.00     0.007 C 
ATOM     14  C   UNL d   1      54.287  29.926  53.447  0.00  0.00     0.001 C 
ATOM     15  C   UNL d   1      53.104  29.383  54.050  0.00  0.00     0.001 C 
ENDBRANCH  12  13
ENDBRANCH  11  12
ENDBRANCH  10  11
ENDBRANCH   3  10
TORSDOF 4
ENDMDL
MODEL 7
REMARK VINA RESULT:      -4.8     10.134     11.022
REMARK  4 active torsions:
REMARK  status: ('A' for Active; 'I' for Inactive)
REMARK    1  A    between atoms: C_9  and  C_3 
REMARK    2  A    between atoms: C_6  and  C_10 
REMARK    3  A    between atoms: S_7  and  C_9 
REMARK    4  A    between atoms: C_10  and  S_7 
ROOT
ATOM      1  N   UNL d   1      45.062  28.581  59.068  0.00  0.00    -0.218 NA
ATOM      2  N   UNL d   1      44.793  29.509  58.168  0.00  0.00    -0.218 NA
ATOM      3  C   UNL d   1      44.830  29.365  58.980  0.00  0.00     0.206 A 
ATOM      4  C   UNL d   1      45.163  28.252  58.338  0.00  0.00     0.101 A 
ATOM      5  C   UNL d   1      44.995  28.831  57.775  0.00  0.00     0.101 A 
ATOM      6  C   UNL d   1      45.382  27.517  58.076  0.00  0.00     0.021 A 
ATOM      7  C   UNL d   1      45.052  28.655  56.972  0.00  0.00     0.021 A 
ATOM      8  C   UNL d   1      45.445  27.319  57.292  0.00  0.00     0.002 A 
ATOM      9  C   UNL d   1      45.277  27.899  56.730  0.00  0.00     0.002 A 
ENDROOT
BRANCH   3  10
ATOM     10  C   UNL d   1      44.668  29.903  59.584  0.00  0.00    -0.027 C 
BRANCH  10  11
ATOM     11  S   UNL d   1      44.505  30.441  60.187  0.00  0.00    -0.041 SA
BRANCH  11  12
ATOM     12  C   UNL d   1      44.873  30.361  60.922  0.00  0.00     0.043 C 
BRANCH  12  13
ATOM     13  C   UNL d   1      44.568  30.753  61.581  0.00  0.00     0.007 C 
ATOM     14  C   UNL d   1      44.314  31.539  61.512  0.00  0.00     0.001 C 
ATOM     15  C   UNL d   1      44.516  30.362  62.306  0.00  0.00     0.001 C 
ENDBRANCH  12  13
ENDBRANCH  11  12
ENDBRANCH  10  11
ENDBRANCH   3  10
TORSDOF 4
ENDMDL
MODEL 8
REMARK VINA RESULT:      -4.6     10.226     10.633
REMARK  4 active torsions:
REMARK  status: ('A' for Active; 'I' for Inactive)
REMARK    1  A    between atoms: C_9  and  C_3 
REMARK    2  A    between atoms: C_6  and  C_10 
REMARK    3  A    between atoms: S_7  and  C_9 
REMARK    4  A    between atoms: C_10  and  S_7 
ROOT
ATOM      1  N   UNL d   1      44.868  29.882  58.430  0.00  0.00    -0.218 NA
ATOM      2  N   UNL d   1      44.483  31.120  58.177  0.00  0.00    -0.218 NA
ATOM      3  C   UNL d   1      44.691  30.602  58.786  0.00  0.00     0.206 A 
ATOM      4  C   UNL d   1      44.772  29.951  57.632  0.00  0.00     0.101 A 
ATOM      5  C   UNL d   1      44.532  30.724  57.474  0.00  0.00     0.101 A 
ATOM      6  C   UNL d   1      44.862  29.442  57.007  0.00  0.00     0.021 A 
ATOM      7  C   UNL d   1      44.389  30.961  56.697  0.00  0.00     0.021 A 
ATOM      8  C   UNL d   1      44.728  29.652  56.235  0.00  0.00     0.002 A 
ATOM      9  C   UNL d   1      44.487  30.425  56.077  0.00  0.00     0.002 A 
ENDROOT
BRANCH   3  10
ATOM     10  C   UNL d   1      44.717  30.774  59.592  0.00  0.00    -0.027 C 
BRANCH  10  11
ATOM     11  S   UNL d   1      44.742  30.947  60.399  0.00  0.00    -0.041 SA
BRANCH  11  12
ATOM     12  C   UNL d   1      44.576  30.358  60.953  0.00  0.00     0.043 C 
BRANCH  12  13
ATOM     13  C   UNL d   1      44.542  30.545  61.756  0.00  0.00     0.007 C 
ATOM     14  C   UNL d   1      44.640  29.948  62.322  0.00  0.00     0.001 C 
ATOM     15  C   UNL d   1      44.411  31.325  61.992  0.00  0.00     0.001 C 
ENDBRANCH  12  13
ENDBRANCH  11  12
ENDBRANCH  10  11
ENDBRANCH   3  10
TORSDOF 4
ENDMDL
MODEL 9
REMARK VINA RESULT:      -4.6     10.887     11.166
REMARK  4 active torsions:
REMARK  status: ('A' for Active; 'I' for Inactive)
REMARK    1  A    between atoms: C_9  and  C_3 
REMARK    2  A    between atoms: C_6  and  C_10 
REMARK    3  A    between atoms: S_7  and  C_9 
REMARK    4  A    between atoms: C_10  and  S_7 
ROOT
ATOM      1  N   UNL d   1      44.585  29.853  61.004  0.00  0.00    -0.218 NA
ATOM      2  N   UNL d   1      44.450  31.098  60.584  0.00  0.00    -0.218 NA
ATOM      3  C   UNL d   1      44.552  30.319  60.328  0.00  0.00     0.206 A 
ATOM      4  C   UNL d   1      44.506  30.325  61.654  0.00  0.00     0.101 A 
ATOM      5  C   UNL d   1      44.421  31.102  61.392  0.00  0.00     0.101 A 
ATOM      6  C   UNL d   1      44.494  30.187  62.453  0.00  0.00     0.021 A 
ATOM      7  C   UNL d   1      44.329  31.714  61.937  0.00  0.00     0.021 A 
ATOM      8  C   UNL d   1      44.405  30.771  63.008  0.00  0.00     0.002 A 
ATOM      9  C   UNL d   1      44.321  31.548  62.746  0.00  0.00     0.002 A 
ENDROOT
BRANCH   3  10
ATOM     10  C   UNL d   1      44.610  30.062  59.546  0.00  0.00    -0.027 C 
BRANCH  10  11
ATOM     11  S   UNL d   1      44.668  29.805  58.764  0.00  0.00    -0.041 SA
BRANCH  11  12
ATOM     12  C   UNL d   1      45.081  29.112  58.587  0.00  0.00     0.043 C 
BRANCH  12  13
ATOM     13  C   UNL d   1      45.080  28.816  57.817  0.00  0.00     0.007 C 
ATOM     14  C   UNL d   1      45.257  28.018  57.682  0.00  0.00     0.001 C 
ATOM     15  C   UNL d   1      44.904  29.316  57.184  0.00  0.00     0.001 C 
ENDBRANCH  12  13
ENDBRANCH  11  12
ENDBRANCH  10  11
ENDBRANCH   3  10
TORSDOF 4
ENDMDL
