MODEL 1
REMARK VINA RESULT:      35.7      0.000      0.000
REMARK  3 active torsions:
REMARK  status: ('A' for Active; 'I' for Inactive)
REMARK    1  A    between atoms: O_10  and  C_9 
REMARK    2  A    between atoms: C_13  and  O_10 
REMARK    3  A    between atoms: C_12  and  C_13 
ROOT
ATOM      1  C   UNL d   1     -52.530  24.466  33.370  0.00  0.00     0.066 A 
ATOM      2  O   UNL d   1     -53.759  23.942  33.307  0.00  0.00    -0.302 OA
ATOM      3  C   UNL d   1     -52.458  23.642  33.371  0.00  0.00     0.222 A 
ATOM      4  C   UNL d   1     -53.334  24.646  33.330  0.00  0.00     0.103 A 
ATOM      5  C   UNL d   1     -51.980  25.072  33.398  0.00  0.00     0.030 A 
ATOM      6  C   UNL d   1     -53.217  23.322  33.333  0.00  0.00     0.165 A 
ATOM      7  O   UNL d   1     -51.746  23.222  33.406  0.00  0.00    -0.284 OA
ATOM      8  C   UNL d   1     -53.580  25.427  33.319  0.00  0.00     0.027 A 
ATOM      9  C   UNL d   1     -52.230  25.858  33.388  0.00  0.00     0.100 A 
ATOM     10  C   UNL d   1     -53.035  26.034  33.347  0.00  0.00     0.027 A 
ENDROOT
BRANCH   9  11
ATOM     11  O   UNL d   1     -51.671  26.471  33.417  0.00  0.00    -0.305 OA
BRANCH  11  12
ATOM     12  C   UNL d   1     -50.871  26.308  33.310  0.00  0.00     0.122 C 
BRANCH  12  13
ATOM     13  C   UNL d   1     -50.307  26.806  33.659  0.00  0.00     0.025 A 
ATOM     14  C   UNL d   1     -49.788  26.495  34.223  0.00  0.00     0.004 A 
ATOM     15  C   UNL d   1     -49.228  26.985  34.572  0.00  0.00     0.030 A 
ATOM     16  C   UNL d   1     -49.186  27.789  34.357  0.00  0.00     0.140 A 
ATOM     17  C   UNL d   1     -49.706  28.092  33.794  0.00  0.00     0.030 A 
ATOM     18  F   UNL d   1     -48.623  28.275  34.709  0.00  0.00    -0.204 F 
ATOM     19  C   UNL d   1     -50.266  27.602  33.446  0.00  0.00     0.004 A 
ENDBRANCH  12  13
ENDBRANCH  11  12
ENDBRANCH   9  11
TORSDOF 3
ENDMDL
MODEL 2
REMARK VINA RESULT:      36.1      0.875      1.587
REMARK  3 active torsions:
REMARK  status: ('A' for Active; 'I' for Inactive)
REMARK    1  A    between atoms: O_10  and  C_9 
REMARK    2  A    between atoms: C_13  and  O_10 
REMARK    3  A    between atoms: C_12  and  C_13 
ROOT
ATOM      1  C   UNL d   1     -52.069  24.485  33.317  0.00  0.00     0.066 A 
ATOM      2  O   UNL d   1     -52.397  23.188  33.316  0.00  0.00    -0.302 OA
ATOM      3  C   UNL d   1     -52.894  24.429  33.320  0.00  0.00     0.222 A 
ATOM      4  C   UNL d   1     -51.767  23.717  33.315  0.00  0.00     0.103 A 
ATOM      5  C   UNL d   1     -51.554  25.122  33.317  0.00  0.00     0.030 A 
ATOM      6  C   UNL d   1     -53.094  23.630  33.320  0.00  0.00     0.165 A 
ATOM      7  O   UNL d   1     -53.419  25.070  33.323  0.00  0.00    -0.284 OA
ATOM      8  C   UNL d   1     -50.958  23.593  33.312  0.00  0.00     0.027 A 
ATOM      9  C   UNL d   1     -50.740  24.995  33.314  0.00  0.00     0.100 A 
ATOM     10  C   UNL d   1     -50.441  24.226  33.311  0.00  0.00     0.027 A 
ENDROOT
BRANCH   9  11
ATOM     11  O   UNL d   1     -50.219  25.642  33.313  0.00  0.00    -0.305 OA
BRANCH  11  12
ATOM     12  C   UNL d   1     -50.509  26.407  33.406  0.00  0.00     0.122 C 
BRANCH  12  13
ATOM     13  C   UNL d   1     -50.012  26.992  33.720  0.00  0.00     0.025 A 
ATOM     14  C   UNL d   1     -50.310  27.756  33.835  0.00  0.00     0.004 A 
ATOM     15  C   UNL d   1     -49.821  28.338  34.146  0.00  0.00     0.030 A 
ATOM     16  C   UNL d   1     -49.032  28.158  34.343  0.00  0.00     0.140 A 
ATOM     17  C   UNL d   1     -48.742  27.396  34.226  0.00  0.00     0.030 A 
ATOM     18  F   UNL d   1     -48.546  28.746  34.654  0.00  0.00    -0.204 F 
ATOM     19  C   UNL d   1     -49.231  26.813  33.915  0.00  0.00     0.004 A 
ENDBRANCH  12  13
ENDBRANCH  11  12
ENDBRANCH   9  11
TORSDOF 3
ENDMDL
