MODEL 1
REMARK VINA RESULT:      -9.2      0.000      0.000
REMARK  5 active torsions:
REMARK  status: ('A' for Active; 'I' for Inactive)
REMARK    1  A    between atoms: C_6  and  N_1 
REMARK    2  A    between atoms: C_10  and  C_3 
REMARK    3  A    between atoms: C_7  and  C_6 
REMARK    4  A    between atoms: C_13  and  C_10 
REMARK    5  A    between atoms: C_14  and  C_13 
ROOT
ATOM      1  N   UNL d   1      53.548  32.869  53.612  0.00  0.00    -0.289 N 
ATOM      2  N   UNL d   1      52.450  32.341  53.041  0.00  0.00    -0.227 NA
ATOM      3  C   UNL d   1      53.199  32.153  53.396  0.00  0.00     0.148 A 
ATOM      4  C   UNL d   1      53.060  33.476  53.411  0.00  0.00     0.083 A 
ATOM      5  C   UNL d   1      52.367  33.143  53.050  0.00  0.00     0.099 A 
ATOM      6  C   UNL d   1      53.125  34.292  53.494  0.00  0.00     0.019 A 
ATOM      7  C   UNL d   1      51.793  33.684  52.803  0.00  0.00     0.021 A 
ATOM      8  C   UNL d   1      52.533  34.763  53.234  0.00  0.00     0.002 A 
ATOM      9  C   UNL d   1      51.864  34.442  52.885  0.00  0.00     0.002 A 
ENDROOT
BRANCH   1  10
ATOM     10  C   UNL d   1      54.253  32.782  53.952  0.00  0.00     0.088 C 
BRANCH  10  11
ATOM     11  C   UNL d   1      54.433  33.127  54.667  0.00  0.00     0.052 C 
ATOM     12  C   UNL d   1      54.044  32.857  55.342  0.00  0.00     0.009 C 
ATOM     13 BR   UNL d   1      54.980  33.728  54.748  0.00  0.00    -0.048 Br
ENDBRANCH  10  11
ENDBRANCH   1  10
BRANCH   3  14
ATOM     14  C   UNL d   1      53.508  31.396  53.500  0.00  0.00     0.037 C 
BRANCH  14  15
ATOM     15  C   UNL d   1      53.076  30.736  53.256  0.00  0.00     0.003 C 
BRANCH  15  16
ATOM     16  C   UNL d   1      53.406  29.982  53.316  0.00  0.00     0.000 C 
ATOM     17  C   UNL d   1      52.997  29.384  53.709  0.00  0.00     0.000 C 
ENDBRANCH  15  16
ENDBRANCH  14  15
ENDBRANCH   3  14
TORSDOF 5
ENDMDL
MODEL 2
REMARK VINA RESULT:      -8.7      0.774      2.998
REMARK  5 active torsions:
REMARK  status: ('A' for Active; 'I' for Inactive)
REMARK    1  A    between atoms: C_6  and  N_1 
REMARK    2  A    between atoms: C_10  and  C_3 
REMARK    3  A    between atoms: C_7  and  C_6 
REMARK    4  A    between atoms: C_13  and  C_10 
REMARK    5  A    between atoms: C_14  and  C_13 
ROOT
ATOM      1  N   UNL d   1      53.107  32.363  53.664  0.00  0.00    -0.289 N 
ATOM      2  N   UNL d   1      52.359  31.925  52.635  0.00  0.00    -0.227 NA
ATOM      3  C   UNL d   1      52.578  32.613  53.082  0.00  0.00     0.148 A 
ATOM      4  C   UNL d   1      53.221  31.569  53.598  0.00  0.00     0.083 A 
ATOM      5  C   UNL d   1      52.749  31.293  52.949  0.00  0.00     0.099 A 
ATOM      6  C   UNL d   1      53.682  31.037  54.023  0.00  0.00     0.019 A 
ATOM      7  C   UNL d   1      52.792  30.482  52.790  0.00  0.00     0.021 A 
ATOM      8  C   UNL d   1      53.681  30.263  53.820  0.00  0.00     0.002 A 
ATOM      9  C   UNL d   1      53.224  29.996  53.193  0.00  0.00     0.002 A 
ENDROOT
BRANCH   1  10
ATOM     10  C   UNL d   1      53.361  32.947  54.127  0.00  0.00     0.088 C 
BRANCH  10  11
ATOM     11  C   UNL d   1      54.147  33.035  54.319  0.00  0.00     0.052 C 
ATOM     12  C   UNL d   1      54.689  33.164  53.710  0.00  0.00     0.009 C 
ATOM     13 BR   UNL d   1      54.426  33.000  55.086  0.00  0.00    -0.048 Br
ENDBRANCH  10  11
ENDBRANCH   1  10
BRANCH   3  14
ATOM     14  C   UNL d   1      52.308  33.381  52.952  0.00  0.00     0.037 C 
BRANCH  14  15
ATOM     15  C   UNL d   1      51.555  33.506  52.637  0.00  0.00     0.003 C 
BRANCH  15  16
ATOM     16  C   UNL d   1      51.275  34.275  52.531  0.00  0.00     0.000 C 
ATOM     17  C   UNL d   1      50.465  34.426  52.561  0.00  0.00     0.000 C 
ENDBRANCH  15  16
ENDBRANCH  14  15
ENDBRANCH   3  14
TORSDOF 5
ENDMDL
MODEL 3
REMARK VINA RESULT:      -8.6      1.148      2.147
REMARK  5 active torsions:
REMARK  status: ('A' for Active; 'I' for Inactive)
REMARK    1  A    between atoms: C_6  and  N_1 
REMARK    2  A    between atoms: C_10  and  C_3 
REMARK    3  A    between atoms: C_7  and  C_6 
REMARK    4  A    between atoms: C_13  and  C_10 
REMARK    5  A    between atoms: C_14  and  C_13 
ROOT
ATOM      1  N   UNL d   1      53.065  32.852  53.491  0.00  0.00    -0.289 N 
ATOM      2  N   UNL d   1      53.829  32.029  54.234  0.00  0.00    -0.227 NA
ATOM      3  C   UNL d   1      53.266  32.058  53.598  0.00  0.00     0.148 A 
ATOM      4  C   UNL d   1      53.469  33.303  54.020  0.00  0.00     0.083 A 
ATOM      5  C   UNL d   1      53.951  32.784  54.489  0.00  0.00     0.099 A 
ATOM      6  C   UNL d   1      53.485  34.113  54.162  0.00  0.00     0.019 A 
ATOM      7  C   UNL d   1      54.414  33.148  55.070  0.00  0.00     0.021 A 
ATOM      8  C   UNL d   1      53.954  34.404  54.740  0.00  0.00     0.002 A 
ATOM      9  C   UNL d   1      54.420  33.903  55.193  0.00  0.00     0.002 A 
ENDROOT
BRANCH   1  10
ATOM     10  C   UNL d   1      52.542  32.965  52.914  0.00  0.00     0.088 C 
BRANCH  10  11
ATOM     11  C   UNL d   1      51.903  33.462  53.003  0.00  0.00     0.052 C 
ATOM     12  C   UNL d   1      51.275  33.214  53.477  0.00  0.00     0.009 C 
ATOM     13 BR   UNL d   1      51.853  34.194  52.644  0.00  0.00    -0.048 Br
ENDBRANCH  10  11
ENDBRANCH   1  10
BRANCH   3  14
ATOM     14  C   UNL d   1      52.981  31.411  53.175  0.00  0.00     0.037 C 
BRANCH  14  15
ATOM     15  C   UNL d   1      53.251  30.651  53.350  0.00  0.00     0.003 C 
BRANCH  15  16
ATOM     16  C   UNL d   1      52.900  29.995  52.994  0.00  0.00     0.000 C 
ATOM     17  C   UNL d   1      52.835  29.286  53.410  0.00  0.00     0.000 C 
ENDBRANCH  15  16
ENDBRANCH  14  15
ENDBRANCH   3  14
TORSDOF 5
ENDMDL
MODEL 4
REMARK VINA RESULT:      -8.2      1.297      3.137
REMARK  5 active torsions:
REMARK  status: ('A' for Active; 'I' for Inactive)
REMARK    1  A    between atoms: C_6  and  N_1 
REMARK    2  A    between atoms: C_10  and  C_3 
REMARK    3  A    between atoms: C_7  and  C_6 
REMARK    4  A    between atoms: C_13  and  C_10 
REMARK    5  A    between atoms: C_14  and  C_13 
ROOT
ATOM      1  N   UNL d   1      52.929  32.830  53.410  0.00  0.00    -0.289 N 
ATOM      2  N   UNL d   1      52.568  33.982  54.006  0.00  0.00    -0.227 NA
ATOM      3  C   UNL d   1      52.346  33.415  53.412  0.00  0.00     0.148 A 
ATOM      4  C   UNL d   1      53.486  33.007  53.962  0.00  0.00     0.083 A 
ATOM      5  C   UNL d   1      53.258  33.733  54.338  0.00  0.00     0.099 A 
ATOM      6  C   UNL d   1      54.177  32.626  54.196  0.00  0.00     0.019 A 
ATOM      7  C   UNL d   1      53.767  34.009  54.929  0.00  0.00     0.021 A 
ATOM      8  C   UNL d   1      54.627  32.945  54.775  0.00  0.00     0.002 A 
ATOM      9  C   UNL d   1      54.407  33.646  55.137  0.00  0.00     0.002 A 
ENDROOT
BRANCH   1  10
ATOM     10  C   UNL d   1      52.797  32.261  52.882  0.00  0.00     0.088 C 
BRANCH  10  11
ATOM     11  C   UNL d   1      52.804  31.474  53.086  0.00  0.00     0.052 C 
ATOM     12  C   UNL d   1      52.151  31.164  53.484  0.00  0.00     0.009 C 
ATOM     13 BR   UNL d   1      53.428  30.974  52.916  0.00  0.00    -0.048 Br
ENDBRANCH  10  11
ENDBRANCH   1  10
BRANCH   3  14
ATOM     14  C   UNL d   1      51.675  33.452  52.935  0.00  0.00     0.037 C 
BRANCH  14  15
ATOM     15  C   UNL d   1      51.202  34.128  52.938  0.00  0.00     0.003 C 
BRANCH  15  16
ATOM     16  C   UNL d   1      50.579  34.199  52.402  0.00  0.00     0.000 C 
ATOM     17  C   UNL d   1      49.889  34.593  52.621  0.00  0.00     0.000 C 
ENDBRANCH  15  16
ENDBRANCH  14  15
ENDBRANCH   3  14
TORSDOF 5
ENDMDL
MODEL 5
REMARK VINA RESULT:      -7.8      1.157      3.295
REMARK  5 active torsions:
REMARK  status: ('A' for Active; 'I' for Inactive)
REMARK    1  A    between atoms: C_6  and  N_1 
REMARK    2  A    between atoms: C_10  and  C_3 
REMARK    3  A    between atoms: C_7  and  C_6 
REMARK    4  A    between atoms: C_13  and  C_10 
REMARK    5  A    between atoms: C_14  and  C_13 
ROOT
ATOM      1  N   UNL d   1      53.173  32.426  53.425  0.00  0.00    -0.289 N 
ATOM      2  N   UNL d   1      53.906  31.704  54.292  0.00  0.00    -0.227 NA
ATOM      3  C   UNL d   1      53.700  32.494  54.057  0.00  0.00     0.148 A 
ATOM      4  C   UNL d   1      53.048  31.648  53.265  0.00  0.00     0.083 A 
ATOM      5  C   UNL d   1      53.510  31.192  53.812  0.00  0.00     0.099 A 
ATOM      6  C   UNL d   1      52.584  31.264  52.704  0.00  0.00     0.019 A 
ATOM      7  C   UNL d   1      53.455  30.371  53.734  0.00  0.00     0.021 A 
ATOM      8  C   UNL d   1      52.573  30.465  52.681  0.00  0.00     0.002 A 
ATOM      9  C   UNL d   1      53.020  30.025  53.209  0.00  0.00     0.002 A 
ENDROOT
BRANCH   1  10
ATOM     10  C   UNL d   1      52.931  33.121  53.145  0.00  0.00     0.088 C 
BRANCH  10  11
ATOM     11  C   UNL d   1      52.143  33.292  53.040  0.00  0.00     0.052 C 
ATOM     12  C   UNL d   1      51.864  33.410  52.273  0.00  0.00     0.009 C 
ATOM     13 BR   UNL d   1      51.612  33.353  53.659  0.00  0.00    -0.048 Br
ENDBRANCH  10  11
ENDBRANCH   1  10
BRANCH   3  14
ATOM     14  C   UNL d   1      53.979  33.189  54.400  0.00  0.00     0.037 C 
BRANCH  14  15
ATOM     15  C   UNL d   1      54.659  33.175  54.868  0.00  0.00     0.003 C 
BRANCH  15  16
ATOM     16  C   UNL d   1      54.881  33.846  55.295  0.00  0.00     0.000 C 
ATOM     17  C   UNL d   1      55.648  34.140  55.230  0.00  0.00     0.000 C 
ENDBRANCH  15  16
ENDBRANCH  14  15
ENDBRANCH   3  14
TORSDOF 5
ENDMDL
MODEL 6
REMARK VINA RESULT:      -7.2      1.344      2.673
REMARK  5 active torsions:
REMARK  status: ('A' for Active; 'I' for Inactive)
REMARK    1  A    between atoms: C_6  and  N_1 
REMARK    2  A    between atoms: C_10  and  C_3 
REMARK    3  A    between atoms: C_7  and  C_6 
REMARK    4  A    between atoms: C_13  and  C_10 
REMARK    5  A    between atoms: C_14  and  C_13 
ROOT
ATOM      1  N   UNL d   1      52.749  32.790  53.727  0.00  0.00    -0.289 N 
ATOM      2  N   UNL d   1      52.979  34.109  53.868  0.00  0.00    -0.227 NA
ATOM      3  C   UNL d   1      53.270  33.335  54.065  0.00  0.00     0.148 A 
ATOM      4  C   UNL d   1      52.164  33.184  53.340  0.00  0.00     0.083 A 
ATOM      5  C   UNL d   1      52.309  34.016  53.429  0.00  0.00     0.099 A 
ATOM      6  C   UNL d   1      51.510  32.927  52.913  0.00  0.00     0.019 A 
ATOM      7  C   UNL d   1      51.761  34.519  53.066  0.00  0.00     0.021 A 
ATOM      8  C   UNL d   1      51.017  33.465  52.585  0.00  0.00     0.002 A 
ATOM      9  C   UNL d   1      51.156  34.268  52.671  0.00  0.00     0.002 A 
ENDROOT
BRANCH   1  10
ATOM     10  C   UNL d   1      52.950  32.042  53.864  0.00  0.00     0.088 C 
BRANCH  10  11
ATOM     11  C   UNL d   1      53.074  31.511  53.260  0.00  0.00     0.052 C 
ATOM     12  C   UNL d   1      53.743  31.603  52.787  0.00  0.00     0.009 C 
ATOM     13 BR   UNL d   1      52.567  30.891  53.100  0.00  0.00    -0.048 Br
ENDBRANCH  10  11
ENDBRANCH   1  10
BRANCH   3  14
ATOM     14  C   UNL d   1      53.944  33.171  54.509  0.00  0.00     0.037 C 
BRANCH  14  15
ATOM     15  C   UNL d   1      54.324  33.775  54.923  0.00  0.00     0.003 C 
BRANCH  15  16
ATOM     16  C   UNL d   1      54.964  33.601  55.413  0.00  0.00     0.000 C 
ATOM     17  C   UNL d   1      55.673  34.013  55.326  0.00  0.00     0.000 C 
ENDBRANCH  15  16
ENDBRANCH  14  15
ENDBRANCH   3  14
TORSDOF 5
ENDMDL
