MODEL 1
REMARK VINA RESULT:      21.0      0.000      0.000
REMARK  4 active torsions:
REMARK  status: ('A' for Active; 'I' for Inactive)
REMARK    1  A    between atoms: C_7  and  N_2 
REMARK    2  A    between atoms: C_12  and  C_7 
REMARK    3  A    between atoms: C_9  and  O_11 
REMARK    4  A    between atoms: O_11  and  C_12 
ROOT
ATOM      1  C   UNL d   1      13.354  13.757  -3.651  0.00  0.00     0.296 A 
ATOM      2  N   UNL d   1      13.237  12.944  -3.614  0.00  0.00    -0.266 N 
ATOM      3  S   UNL d   1      13.330  13.981  -4.458  0.00  0.00    -0.025 SA
ATOM      4  C   UNL d   1      13.141  12.661  -4.388  0.00  0.00     0.074 A 
ATOM      5  C   UNL d   1      13.198  13.296  -4.905  0.00  0.00     0.050 A 
ATOM      6  O   UNL d   1      13.473  14.264  -3.016  0.00  0.00    -0.259 OA
ATOM      7  C   UNL d   1      13.008  11.897  -4.677  0.00  0.00     0.018 A 
ATOM      8  C   UNL d   1      13.124  13.182  -5.723  0.00  0.00     0.008 A 
ATOM      9  C   UNL d   1      12.934  11.780  -5.493  0.00  0.00     0.002 A 
ATOM     10  C   UNL d   1      12.991  12.415  -6.010  0.00  0.00     0.001 A 
ENDROOT
BRANCH   2  11
ATOM     11  C   UNL d   1      13.218  12.488  -2.927  0.00  0.00     0.110 C 
BRANCH  11  12
ATOM     12  C   UNL d   1      13.681  11.810  -2.866  0.00  0.00     0.142 C 
BRANCH  12  13
ATOM     13  O   UNL d   1      14.341  11.789  -2.367  0.00  0.00    -0.304 OA
BRANCH  13  14
ATOM     14  C   UNL d   1      14.277  12.027  -1.580  0.00  0.00     0.100 A 
ATOM     15  C   UNL d   1      14.855  12.514  -1.249  0.00  0.00     0.025 A 
ATOM     16  C   UNL d   1      14.790  12.750  -0.466  0.00  0.00     0.002 A 
ATOM     17  C   UNL d   1      15.368  13.237  -0.136  0.00  0.00     0.000 C 
ATOM     18  C   UNL d   1      14.147  12.500  -0.014  0.00  0.00     0.000 A 
ATOM     19  C   UNL d   1      13.569  12.011  -0.350  0.00  0.00     0.002 A 
ATOM     20  C   UNL d   1      13.641  11.779  -1.135  0.00  0.00     0.025 A 
ENDBRANCH  13  14
ENDBRANCH  12  13
ENDBRANCH  11  12
ENDBRANCH   2  11
TORSDOF 4
ENDMDL
