MODEL 1
REMARK VINA RESULT:      -3.6      0.000      0.000
REMARK  6 active torsions:
REMARK  status: ('A' for Active; 'I' for Inactive)
REMARK    1  A    between atoms: C_4  and  C_1 
REMARK    2  A    between atoms: N_7  and  C_2 
REMARK    3  A    between atoms: C_6  and  C_4 
REMARK    4  A    between atoms: C_8  and  C_4 
REMARK    5  A    between atoms: O_13  and  C_6 
REMARK    6  A    between atoms: C_19  and  O_13 
ROOT
ATOM      1  C   UNL d   1     -40.235  14.327  20.754  0.00  0.00     0.122 A 
ATOM      2  C   UNL d   1     -39.580  14.354  20.252  0.00  0.00     0.166 A 
ATOM      3  N   UNL d   1     -38.838  14.117  20.535  0.00  0.00    -0.225 NA
ATOM      4  N   UNL d   1     -40.157  14.066  21.536  0.00  0.00    -0.241 NA
ATOM      5  C   UNL d   1     -38.757  13.856  21.315  0.00  0.00     0.101 A 
ATOM      6  C   UNL d   1     -39.421  13.832  21.814  0.00  0.00     0.099 A 
ATOM      7  C   UNL d   1     -38.018  13.620  21.596  0.00  0.00     0.021 A 
ATOM      8  C   UNL d   1     -39.335  13.571  22.591  0.00  0.00     0.021 A 
ATOM      9  C   UNL d   1     -38.596  13.335  22.872  0.00  0.00     0.002 A 
ATOM     10  C   UNL d   1     -37.940  13.359  22.379  0.00  0.00     0.002 A 
ENDROOT
BRANCH   1  11
ATOM     11  C   UNL d   1     -40.986  14.563  20.477  0.00  0.00     0.105 C 
BRANCH  11  12
ATOM     12  C   UNL d   1     -41.584  14.010  20.357  0.00  0.00     0.303 C 
ATOM     13  O   UNL d   1     -41.659  13.640  19.623  0.00  0.00    -0.259 OA
BRANCH  12  14
ATOM     14  O   UNL d   1     -42.107  13.826  20.968  0.00  0.00    -0.273 OA
BRANCH  14  15
ATOM     15  C   UNL d   1     -42.739  13.381  21.250  0.00  0.00     0.103 A 
ATOM     16  C   UNL d   1     -43.490  13.716  21.268  0.00  0.00     0.025 A 
ATOM     17  C   UNL d   1     -44.120  13.275  21.549  0.00  0.00     0.002 A 
ATOM     18  C   UNL d   1     -44.013  12.501  21.813  0.00  0.00     0.000 A 
ATOM     19  C   UNL d   1     -43.253  12.176  21.790  0.00  0.00     0.002 A 
ATOM     20  C   UNL d   1     -42.619  12.615  21.509  0.00  0.00     0.025 A 
ENDBRANCH  14  15
ENDBRANCH  12  14
ENDBRANCH  11  12
BRANCH  11  21
ATOM     21  C   UNL d   1     -41.137  15.371  20.318  0.00  0.00     0.129 C 
ATOM     22  N   UNL d   1     -41.659  15.922  20.898  0.00  0.00    -0.146 N 
ENDBRANCH  11  21
ENDBRANCH   1  11
BRANCH   2  23
ATOM     23  N   UNL d   1     -39.664  14.614  19.474  0.00  0.00    -0.285 N 
ATOM     24  C   UNL d   1     -39.583  15.423  19.302  0.00  0.00     0.101 A 
ATOM     25  C   UNL d   1     -39.666  15.693  18.531  0.00  0.00     0.100 A 
ATOM     26  N   UNL d   1     -39.830  15.154  17.924  0.00  0.00    -0.299 N 
ATOM     27  C   UNL d   1     -39.911  14.345  18.096  0.00  0.00     0.100 A 
ATOM     28  C   UNL d   1     -39.915  15.421  17.136  0.00  0.00     0.100 C 
ATOM     29  C   UNL d   1     -39.827  14.077  18.875  0.00  0.00     0.101 A 
ENDBRANCH   2  23
TORSDOF 6
ENDMDL
MODEL 2
REMARK VINA RESULT:      -3.3      5.748      8.393
REMARK  6 active torsions:
REMARK  status: ('A' for Active; 'I' for Inactive)
REMARK    1  A    between atoms: C_4  and  C_1 
REMARK    2  A    between atoms: N_7  and  C_2 
REMARK    3  A    between atoms: C_6  and  C_4 
REMARK    4  A    between atoms: C_8  and  C_4 
REMARK    5  A    between atoms: O_13  and  C_6 
REMARK    6  A    between atoms: C_19  and  O_13 
ROOT
ATOM      1  C   UNL d   1     -47.368  12.918  22.332  0.00  0.00     0.122 A 
ATOM      2  C   UNL d   1     -47.556  12.205  22.705  0.00  0.00     0.166 A 
ATOM      3  N   UNL d   1     -46.948  11.698  22.948  0.00  0.00    -0.225 NA
ATOM      4  N   UNL d   1     -46.578  13.128  22.199  0.00  0.00    -0.241 NA
ATOM      5  C   UNL d   1     -46.159  11.905  22.816  0.00  0.00     0.101 A 
ATOM      6  C   UNL d   1     -45.977  12.623  22.440  0.00  0.00     0.099 A 
ATOM      7  C   UNL d   1     -45.554  11.398  23.058  0.00  0.00     0.021 A 
ATOM      8  C   UNL d   1     -45.189  12.826  22.311  0.00  0.00     0.021 A 
ATOM      9  C   UNL d   1     -44.584  12.319  22.553  0.00  0.00     0.002 A 
ATOM     10  C   UNL d   1     -44.764  11.609  22.925  0.00  0.00     0.002 A 
ENDROOT
BRANCH   1  11
ATOM     11  C   UNL d   1     -47.974  13.435  22.085  0.00  0.00     0.105 C 
BRANCH  11  12
ATOM     12  C   UNL d   1     -48.085  14.162  22.455  0.00  0.00     0.303 C 
ATOM     13  O   UNL d   1     -47.480  14.484  22.916  0.00  0.00    -0.259 OA
BRANCH  12  14
ATOM     14  O   UNL d   1     -48.797  14.568  22.367  0.00  0.00    -0.273 OA
BRANCH  14  15
ATOM     15  C   UNL d   1     -49.437  14.959  22.705  0.00  0.00     0.103 A 
ATOM     16  C   UNL d   1     -49.302  15.532  23.279  0.00  0.00     0.025 A 
ATOM     17  C   UNL d   1     -49.938  15.921  23.616  0.00  0.00     0.002 A 
ATOM     18  C   UNL d   1     -50.711  15.749  23.389  0.00  0.00     0.000 A 
ATOM     19  C   UNL d   1     -50.835  15.170  22.810  0.00  0.00     0.002 A 
ATOM     20  C   UNL d   1     -50.199  14.777  22.470  0.00  0.00     0.025 A 
ENDBRANCH  14  15
ENDBRANCH  12  14
ENDBRANCH  11  12
BRANCH  11  21
ATOM     21  C   UNL d   1     -48.477  13.217  21.452  0.00  0.00     0.129 C 
ATOM     22  N   UNL d   1     -48.253  13.371  20.537  0.00  0.00    -0.146 N 
ENDBRANCH  11  21
ENDBRANCH   1  11
BRANCH   2  23
ATOM     23  N   UNL d   1     -48.345  12.002  22.835  0.00  0.00    -0.285 N 
ATOM     24  C   UNL d   1     -48.786  11.659  22.221  0.00  0.00     0.101 A 
ATOM     25  C   UNL d   1     -49.572  11.452  22.340  0.00  0.00     0.100 A 
ATOM     26  N   UNL d   1     -49.924  11.588  23.077  0.00  0.00    -0.299 N 
ATOM     27  C   UNL d   1     -49.482  11.931  23.692  0.00  0.00     0.100 A 
ATOM     28  C   UNL d   1     -50.724  11.381  23.207  0.00  0.00     0.100 C 
ATOM     29  C   UNL d   1     -48.690  12.138  23.568  0.00  0.00     0.101 A 
ENDBRANCH   2  23
TORSDOF 6
ENDMDL
MODEL 3
REMARK VINA RESULT:      -2.5      1.372      4.129
REMARK  6 active torsions:
REMARK  status: ('A' for Active; 'I' for Inactive)
REMARK    1  A    between atoms: C_4  and  C_1 
REMARK    2  A    between atoms: N_7  and  C_2 
REMARK    3  A    between atoms: C_6  and  C_4 
REMARK    4  A    between atoms: C_8  and  C_4 
REMARK    5  A    between atoms: O_13  and  C_6 
REMARK    6  A    between atoms: C_19  and  O_13 
ROOT
ATOM      1  C   UNL d   1     -41.015  14.243  20.168  0.00  0.00     0.122 A 
ATOM      2  C   UNL d   1     -40.729  14.268  20.942  0.00  0.00     0.166 A 
ATOM      3  N   UNL d   1     -41.142  13.875  21.544  0.00  0.00    -0.225 NA
ATOM      4  N   UNL d   1     -41.710  13.829  19.988  0.00  0.00    -0.241 NA
ATOM      5  C   UNL d   1     -41.835  13.461  21.368  0.00  0.00     0.101 A 
ATOM      6  C   UNL d   1     -42.117  13.440  20.586  0.00  0.00     0.099 A 
ATOM      7  C   UNL d   1     -42.245  13.070  21.968  0.00  0.00     0.021 A 
ATOM      8  C   UNL d   1     -42.808  13.026  20.415  0.00  0.00     0.021 A 
ATOM      9  C   UNL d   1     -43.219  12.635  21.015  0.00  0.00     0.002 A 
ATOM     10  C   UNL d   1     -42.940  12.656  21.788  0.00  0.00     0.002 A 
ENDROOT
BRANCH   1  11
ATOM     11  C   UNL d   1     -40.606  14.636  19.556  0.00  0.00     0.105 C 
BRANCH  11  12
ATOM     12  C   UNL d   1     -40.164  14.213  19.005  0.00  0.00     0.303 C 
ATOM     13  O   UNL d   1     -40.188  13.387  19.008  0.00  0.00    -0.259 OA
BRANCH  12  14
ATOM     14  O   UNL d   1     -39.699  14.611  18.452  0.00  0.00    -0.273 OA
BRANCH  14  15
ATOM     15  C   UNL d   1     -39.205  14.589  17.795  0.00  0.00     0.103 A 
ATOM     16  C   UNL d   1     -39.407  14.117  17.154  0.00  0.00     0.025 A 
ATOM     17  C   UNL d   1     -38.916  14.095  16.499  0.00  0.00     0.002 A 
ATOM     18  C   UNL d   1     -38.222  14.539  16.474  0.00  0.00     0.000 A 
ATOM     19  C   UNL d   1     -38.029  15.010  17.126  0.00  0.00     0.002 A 
ATOM     20  C   UNL d   1     -38.519  15.035  17.784  0.00  0.00     0.025 A 
ENDBRANCH  14  15
ENDBRANCH  12  14
ENDBRANCH  11  12
BRANCH  11  21
ATOM     21  C   UNL d   1     -40.643  15.470  19.498  0.00  0.00     0.129 C 
ATOM     22  N   UNL d   1     -41.292  15.922  18.963  0.00  0.00    -0.146 N 
ENDBRANCH  11  21
ENDBRANCH   1  11
BRANCH   2  23
ATOM     23  N   UNL d   1     -40.037  14.682  21.115  0.00  0.00    -0.285 N 
ATOM     24  C   UNL d   1     -39.320  14.270  21.189  0.00  0.00     0.101 A 
ATOM     25  C   UNL d   1     -38.625  14.673  21.360  0.00  0.00     0.100 A 
ATOM     26  N   UNL d   1     -38.643  15.495  21.460  0.00  0.00    -0.299 N 
ATOM     27  C   UNL d   1     -39.360  15.908  21.386  0.00  0.00     0.100 A 
ATOM     28  C   UNL d   1     -37.940  15.913  21.634  0.00  0.00     0.100 C 
ATOM     29  C   UNL d   1     -40.059  15.498  21.212  0.00  0.00     0.101 A 
ENDBRANCH   2  23
TORSDOF 6
ENDMDL
MODEL 4
REMARK VINA RESULT:      -2.1      4.741      8.063
REMARK  6 active torsions:
REMARK  status: ('A' for Active; 'I' for Inactive)
REMARK    1  A    between atoms: C_4  and  C_1 
REMARK    2  A    between atoms: N_7  and  C_2 
REMARK    3  A    between atoms: C_6  and  C_4 
REMARK    4  A    between atoms: C_8  and  C_4 
REMARK    5  A    between atoms: O_13  and  C_6 
REMARK    6  A    between atoms: C_19  and  O_13 
ROOT
ATOM      1  C   UNL d   1     -47.625  13.646  22.388  0.00  0.00     0.122 A 
ATOM      2  C   UNL d   1     -48.079  13.191  22.905  0.00  0.00     0.166 A 
ATOM      3  N   UNL d   1     -48.723  13.537  23.297  0.00  0.00    -0.225 NA
ATOM      4  N   UNL d   1     -47.806  14.444  22.257  0.00  0.00    -0.241 NA
ATOM      5  C   UNL d   1     -48.907  14.332  23.168  0.00  0.00     0.101 A 
ATOM      6  C   UNL d   1     -48.445  14.784  22.646  0.00  0.00     0.099 A 
ATOM      7  C   UNL d   1     -49.548  14.676  23.559  0.00  0.00     0.021 A 
ATOM      8  C   UNL d   1     -48.631  15.577  22.521  0.00  0.00     0.021 A 
ATOM      9  C   UNL d   1     -49.272  15.920  22.911  0.00  0.00     0.002 A 
ATOM     10  C   UNL d   1     -49.729  15.473  23.428  0.00  0.00     0.002 A 
ENDROOT
BRANCH   1  11
ATOM     11  C   UNL d   1     -46.975  13.307  21.989  0.00  0.00     0.105 C 
BRANCH  11  12
ATOM     12  C   UNL d   1     -46.203  13.502  22.199  0.00  0.00     0.303 C 
ATOM     13  O   UNL d   1     -46.069  14.051  22.801  0.00  0.00    -0.259 OA
BRANCH  12  14
ATOM     14  O   UNL d   1     -45.566  13.151  21.809  0.00  0.00    -0.273 OA
BRANCH  14  15
ATOM     15  C   UNL d   1     -44.759  12.999  21.765  0.00  0.00     0.103 A 
ATOM     16  C   UNL d   1     -44.288  13.463  21.277  0.00  0.00     0.025 A 
ATOM     17  C   UNL d   1     -43.484  13.312  21.233  0.00  0.00     0.002 A 
ATOM     18  C   UNL d   1     -43.141  12.703  21.669  0.00  0.00     0.000 A 
ATOM     19  C   UNL d   1     -43.626  12.243  22.156  0.00  0.00     0.002 A 
ATOM     20  C   UNL d   1     -44.432  12.391  22.203  0.00  0.00     0.025 A 
ENDBRANCH  14  15
ENDBRANCH  12  14
ENDBRANCH  11  12
BRANCH  11  21
ATOM     21  C   UNL d   1     -47.105  12.760  21.368  0.00  0.00     0.129 C 
ATOM     22  N   UNL d   1     -47.451  13.020  20.517  0.00  0.00    -0.146 N 
ENDBRANCH  11  21
ENDBRANCH   1  11
BRANCH   2  23
ATOM     23  N   UNL d   1     -47.894  12.398  23.031  0.00  0.00    -0.285 N 
ATOM     24  C   UNL d   1     -47.287  12.198  23.564  0.00  0.00     0.101 A 
ATOM     25  C   UNL d   1     -47.094  11.410  23.696  0.00  0.00     0.100 A 
ATOM     26  N   UNL d   1     -47.508  10.815  23.295  0.00  0.00    -0.299 N 
ATOM     27  C   UNL d   1     -48.114  11.015  22.763  0.00  0.00     0.100 A 
ATOM     28  C   UNL d   1     -47.318  10.011  23.425  0.00  0.00     0.100 C 
ATOM     29  C   UNL d   1     -48.306  11.810  22.632  0.00  0.00     0.101 A 
ENDBRANCH   2  23
TORSDOF 6
ENDMDL
MODEL 5
REMARK VINA RESULT:      -1.5      5.869      8.375
REMARK  6 active torsions:
REMARK  status: ('A' for Active; 'I' for Inactive)
REMARK    1  A    between atoms: C_4  and  C_1 
REMARK    2  A    between atoms: N_7  and  C_2 
REMARK    3  A    between atoms: C_6  and  C_4 
REMARK    4  A    between atoms: C_8  and  C_4 
REMARK    5  A    between atoms: O_13  and  C_6 
REMARK    6  A    between atoms: C_19  and  O_13 
ROOT
ATOM      1  C   UNL d   1     -48.208  12.362  22.922  0.00  0.00     0.122 A 
ATOM      2  C   UNL d   1     -48.312  13.178  23.001  0.00  0.00     0.166 A 
ATOM      3  N   UNL d   1     -49.057  13.477  23.209  0.00  0.00    -0.225 NA
ATOM      4  N   UNL d   1     -48.841  11.842  23.047  0.00  0.00    -0.241 NA
ATOM      5  C   UNL d   1     -49.690  12.961  23.335  0.00  0.00     0.101 A 
ATOM      6  C   UNL d   1     -49.578  12.142  23.253  0.00  0.00     0.099 A 
ATOM      7  C   UNL d   1     -50.430  13.260  23.542  0.00  0.00     0.021 A 
ATOM      8  C   UNL d   1     -50.211  11.630  23.380  0.00  0.00     0.021 A 
ATOM      9  C   UNL d   1     -50.952  11.929  23.587  0.00  0.00     0.002 A 
ATOM     10  C   UNL d   1     -51.063  12.740  23.668  0.00  0.00     0.002 A 
ENDROOT
BRANCH   1  11
ATOM     11  C   UNL d   1     -47.462  12.052  22.713  0.00  0.00     0.105 C 
BRANCH  11  12
ATOM     12  C   UNL d   1     -47.064  11.538  23.217  0.00  0.00     0.303 C 
ATOM     13  O   UNL d   1     -47.493  11.021  23.697  0.00  0.00    -0.259 OA
BRANCH  12  14
ATOM     14  O   UNL d   1     -46.239  11.537  23.242  0.00  0.00    -0.273 OA
BRANCH  14  15
ATOM     15  C   UNL d   1     -45.532  11.123  23.312  0.00  0.00     0.103 A 
ATOM     16  C   UNL d   1     -44.823  11.507  23.153  0.00  0.00     0.025 A 
ATOM     17  C   UNL d   1     -44.119  11.095  23.222  0.00  0.00     0.002 A 
ATOM     18  C   UNL d   1     -44.110  10.303  23.449  0.00  0.00     0.000 A 
ATOM     19  C   UNL d   1     -44.830   9.928  23.606  0.00  0.00     0.002 A 
ATOM     20  C   UNL d   1     -45.539  10.337  23.538  0.00  0.00     0.025 A 
ENDBRANCH  14  15
ENDBRANCH  12  14
ENDBRANCH  11  12
BRANCH  11  21
ATOM     21  C   UNL d   1     -47.112  12.264  21.983  0.00  0.00     0.129 C 
ATOM     22  N   UNL d   1     -47.057  11.664  21.243  0.00  0.00    -0.146 N 
ENDBRANCH  11  21
ENDBRANCH   1  11
BRANCH   2  23
ATOM     23  N   UNL d   1     -47.679  13.690  22.875  0.00  0.00    -0.285 N 
ATOM     24  C   UNL d   1     -47.132  13.825  23.486  0.00  0.00     0.101 A 
ATOM     25  C   UNL d   1     -46.497  14.334  23.370  0.00  0.00     0.100 A 
ATOM     26  N   UNL d   1     -46.404  14.712  22.639  0.00  0.00    -0.299 N 
ATOM     27  C   UNL d   1     -46.951  14.577  22.028  0.00  0.00     0.100 A 
ATOM     28  C   UNL d   1     -45.761  15.231  22.513  0.00  0.00     0.100 C 
ATOM     29  C   UNL d   1     -47.590  14.063  22.148  0.00  0.00     0.101 A 
ENDBRANCH   2  23
TORSDOF 6
ENDMDL
MODEL 6
REMARK VINA RESULT:      -0.8      5.139      7.765
REMARK  6 active torsions:
REMARK  status: ('A' for Active; 'I' for Inactive)
REMARK    1  A    between atoms: C_4  and  C_1 
REMARK    2  A    between atoms: N_7  and  C_2 
REMARK    3  A    between atoms: C_6  and  C_4 
REMARK    4  A    between atoms: C_8  and  C_4 
REMARK    5  A    between atoms: O_13  and  C_6 
REMARK    6  A    between atoms: C_19  and  O_13 
ROOT
ATOM      1  C   UNL d   1     -47.071  13.119  22.178  0.00  0.00     0.122 A 
ATOM      2  C   UNL d   1     -46.948  13.924  22.313  0.00  0.00     0.166 A 
ATOM      3  N   UNL d   1     -46.177  14.228  22.298  0.00  0.00    -0.225 NA
ATOM      4  N   UNL d   1     -46.432  12.613  22.028  0.00  0.00    -0.241 NA
ATOM      5  C   UNL d   1     -45.537  13.726  22.149  0.00  0.00     0.101 A 
ATOM      6  C   UNL d   1     -45.669  12.917  22.014  0.00  0.00     0.099 A 
ATOM      7  C   UNL d   1     -44.770  14.030  22.134  0.00  0.00     0.021 A 
ATOM      8  C   UNL d   1     -45.029  12.420  21.866  0.00  0.00     0.021 A 
ATOM      9  C   UNL d   1     -44.262  12.723  21.852  0.00  0.00     0.002 A 
ATOM     10  C   UNL d   1     -44.131  13.524  21.985  0.00  0.00     0.002 A 
ENDROOT
BRANCH   1  11
ATOM     11  C   UNL d   1     -47.844  12.805  22.191  0.00  0.00     0.105 C 
BRANCH  11  12
ATOM     12  C   UNL d   1     -48.084  12.301  22.796  0.00  0.00     0.303 C 
ATOM     13  O   UNL d   1     -47.589  12.176  23.446  0.00  0.00    -0.259 OA
BRANCH  12  14
ATOM     14  O   UNL d   1     -48.815  11.921  22.755  0.00  0.00    -0.273 OA
BRANCH  14  15
ATOM     15  C   UNL d   1     -49.563  11.787  23.070  0.00  0.00     0.103 A 
ATOM     16  C   UNL d   1     -50.117  12.394  23.064  0.00  0.00     0.025 A 
ATOM     17  C   UNL d   1     -50.862  12.262  23.377  0.00  0.00     0.002 A 
ATOM     18  C   UNL d   1     -51.064  11.530  23.698  0.00  0.00     0.000 A 
ATOM     19  C   UNL d   1     -50.498  10.927  23.698  0.00  0.00     0.002 A 
ATOM     20  C   UNL d   1     -49.750  11.056  23.385  0.00  0.00     0.025 A 
ENDBRANCH  14  15
ENDBRANCH  12  14
ENDBRANCH  11  12
BRANCH  11  21
ATOM     21  C   UNL d   1     -48.385  13.002  21.583  0.00  0.00     0.129 C 
ATOM     22  N   UNL d   1     -48.467  12.492  20.780  0.00  0.00    -0.146 N 
ENDBRANCH  11  21
ENDBRANCH   1  11
BRANCH   2  23
ATOM     23  N   UNL d   1     -47.588  14.422  22.461  0.00  0.00    -0.285 N 
ATOM     24  C   UNL d   1     -47.800  14.596  23.245  0.00  0.00     0.101 A 
ATOM     25  C   UNL d   1     -48.436  15.090  23.404  0.00  0.00     0.100 A 
ATOM     26  N   UNL d   1     -48.867  15.417  22.776  0.00  0.00    -0.299 N 
ATOM     27  C   UNL d   1     -48.655  15.244  21.991  0.00  0.00     0.100 A 
ATOM     28  C   UNL d   1     -49.516  15.922  22.929  0.00  0.00     0.100 C 
ATOM     29  C   UNL d   1     -48.013  14.744  21.836  0.00  0.00     0.101 A 
ENDBRANCH   2  23
TORSDOF 6
ENDMDL
