MODEL 1
REMARK VINA RESULT:      92.8      0.000      0.000
REMARK  5 active torsions:
REMARK  status: ('A' for Active; 'I' for Inactive)
REMARK    1  A    between atoms: C_9  and  N_1 
REMARK    2  A    between atoms: C_8  and  C_3 
REMARK       I    between atoms: N_12  and  C_8 
REMARK    3  A    between atoms: C_21  and  C_9 
REMARK    4  A    between atoms: C_20  and  N_12 
REMARK    5  A    between atoms: C_13  and  C_20 
ROOT
ATOM      1  N   UNL d   1      59.813  49.456  51.722  0.00  0.00    -0.273 N 
ATOM      2  C   UNL d   1      60.488  49.224  51.324  0.00  0.00     0.177 A 
ATOM      3  C   UNL d   1      60.268  49.050  50.538  0.00  0.00     0.115 A 
ATOM      4  C   UNL d   1      59.177  49.431  51.205  0.00  0.00     0.167 A 
ATOM      5  C   UNL d   1      59.460  49.179  50.470  0.00  0.00     0.123 A 
ATOM      6  N   UNL d   1      58.368  49.604  51.299  0.00  0.00    -0.225 NA
ATOM      7  N   UNL d   1      58.934  49.100  49.828  0.00  0.00    -0.241 NA
ATOM      8  C   UNL d   1      57.851  49.525  50.662  0.00  0.00     0.101 A 
ATOM      9  C   UNL d   1      58.134  49.273  49.927  0.00  0.00     0.099 A 
ATOM     10  N   UNL d   1      61.251  49.170  51.636  0.00  0.00    -0.128 N 
ATOM     11  C   UNL d   1      57.616  49.194  49.289  0.00  0.00     0.021 A 
ATOM     12  C   UNL d   1      57.050  49.698  50.759  0.00  0.00     0.021 A 
ATOM     13  C   UNL d   1      56.814  49.367  49.387  0.00  0.00     0.002 A 
ATOM     14  C   UNL d   1      56.531  49.619  50.122  0.00  0.00     0.002 A 
ENDROOT
BRANCH   3  15
ATOM     15  C   UNL d   1      60.777  48.793  49.935  0.00  0.00     0.284 C 
ATOM     16  N   UNL d   1      60.992  47.999  49.886  0.00  0.00    -0.204 NA
ATOM     17  O   UNL d   1      61.066  49.340  49.381  0.00  0.00    -0.265 OA
BRANCH  16  18
ATOM     18  C   UNL d   1      61.502  47.748  49.278  0.00  0.00     0.127 C 
BRANCH  18  19
ATOM     19  C   UNL d   1      61.756  46.960  49.253  0.00  0.00     0.119 A 
ATOM     20  O   UNL d   1      61.388  46.346  48.838  0.00  0.00    -0.304 OA
ATOM     21  C   UNL d   1      61.825  45.666  48.969  0.00  0.00     0.123 A 
ATOM     22  C   UNL d   1      62.465  45.861  49.467  0.00  0.00     0.029 A 
ATOM     23  C   UNL d   1      62.415  46.655  49.635  0.00  0.00     0.028 A 
ENDBRANCH  18  19
ENDBRANCH  16  18
ENDBRANCH   3  15
BRANCH   1  24
ATOM     24  C   UNL d   1      59.778  49.682  52.529  0.00  0.00     0.083 C 
BRANCH  24  25
ATOM     25  C   UNL d   1      60.463  49.688  52.988  0.00  0.00     0.018 A 
ATOM     26  C   UNL d   1      61.200  49.681  52.627  0.00  0.00     0.002 A 
ATOM     27  C   UNL d   1      61.888  49.686  53.088  0.00  0.00     0.000 A 
ATOM     28  C   UNL d   1      61.837  49.699  53.908  0.00  0.00     0.000 A 
ATOM     29  C   UNL d   1      61.091  49.706  54.272  0.00  0.00     0.000 A 
ATOM     30  C   UNL d   1      60.403  49.701  53.811  0.00  0.00     0.002 A 
ENDBRANCH  24  25
ENDBRANCH   1  24
TORSDOF 5
ENDMDL
