MODEL 1
REMARK VINA RESULT:      44.7      0.000      0.000
REMARK  5 active torsions:
REMARK  status: ('A' for Active; 'I' for Inactive)
REMARK    1  A    between atoms: C_2  and  C_1 
REMARK       I    between atoms: N_4  and  C_2 
REMARK    2  A    between atoms: C_7  and  N_4 
REMARK    3  A    between atoms: C_12  and  C_6 
REMARK    4  A    between atoms: S_11  and  C_12 
REMARK    5  A    between atoms: C_14  and  S_11 
ROOT
ATOM      1  C   UNL d   1     -51.301  26.261  33.472  0.00  0.00     0.158 A 
ATOM      2  O   UNL d   1     -50.948  26.957  33.739  0.00  0.00    -0.302 OA
ATOM      3  C   UNL d   1     -50.693  25.722  33.307  0.00  0.00     0.032 A 
ATOM      4  C   UNL d   1     -50.137  26.854  33.740  0.00  0.00     0.107 A 
ATOM      5  C   UNL d   1     -49.973  26.089  33.473  0.00  0.00     0.027 A 
ENDROOT
BRANCH   1   6
ATOM      6  C   UNL d   1     -52.110  26.118  33.382  0.00  0.00     0.302 C 
ATOM      7  N   UNL d   1     -52.392  25.349  33.306  0.00  0.00    -0.204 NA
ATOM      8  O   UNL d   1     -52.631  26.753  33.371  0.00  0.00    -0.263 OA
BRANCH   7   9
ATOM      9  C   UNL d   1     -51.852  24.715  33.319  0.00  0.00     0.112 A 
ATOM     10  C   UNL d   1     -52.148  23.942  33.319  0.00  0.00     0.158 A 
ATOM     11  F   UNL d   1     -52.958  23.809  33.306  0.00  0.00    -0.203 F 
ATOM     12  C   UNL d   1     -51.619  23.312  33.333  0.00  0.00     0.031 A 
ATOM     13  C   UNL d   1     -50.801  23.450  33.346  0.00  0.00     0.002 A 
ATOM     14  C   UNL d   1     -50.515  24.222  33.346  0.00  0.00     0.002 A 
ATOM     15  C   UNL d   1     -51.046  24.856  33.332  0.00  0.00     0.021 A 
ENDBRANCH   7   9
ENDBRANCH   1   6
BRANCH   4  16
ATOM     16  C   UNL d   1     -49.571  27.412  33.967  0.00  0.00     0.060 C 
BRANCH  16  17
ATOM     17  S   UNL d   1     -49.158  27.313  34.672  0.00  0.00    -0.084 SA
BRANCH  17  18
ATOM     18  C   UNL d   1     -48.798  27.953  35.039  0.00  0.00     0.029 A 
ATOM     19  C   UNL d   1     -49.078  28.228  35.761  0.00  0.00     0.006 A 
ATOM     20  C   UNL d   1     -48.719  28.868  36.129  0.00  0.00     0.001 A 
ATOM     21  C   UNL d   1     -48.071  29.235  35.764  0.00  0.00     0.000 A 
ATOM     22  C   UNL d   1     -47.793  28.956  35.040  0.00  0.00     0.001 A 
ATOM     23  C   UNL d   1     -48.153  28.315  34.673  0.00  0.00     0.006 A 
ENDBRANCH  17  18
ENDBRANCH  16  17
ENDBRANCH   4  16
TORSDOF 5
ENDMDL
