MODEL 1
REMARK VINA RESULT:      -0.4      0.000      0.000
REMARK  1 active torsions:
REMARK  status: ('A' for Active; 'I' for Inactive)
REMARK    1  A    between atoms: C_6  and  N_1 
ROOT
ATOM      1  C   UNL d   1      46.571 -19.587  42.853  0.00  0.00     0.086 A 
ATOM      2  C   UNL d   1      46.604 -20.273  42.405  0.00  0.00     0.023 A 
ATOM      3  C   UNL d   1      46.563 -18.849  42.482  0.00  0.00     0.023 A 
ATOM      4  C   UNL d   1      46.622 -19.497  41.211  0.00  0.00     0.196 A 
ATOM      5  C   UNL d   1      46.589 -18.804  41.659  0.00  0.00     0.044 A 
ATOM      6  C   UNL d   1      46.630 -20.227  41.582  0.00  0.00     0.044 A 
ATOM      7  O   UNL d   1      46.647 -19.452  40.392  0.00  0.00    -0.287 OA
ENDROOT
BRANCH   1   8
ATOM      8  N   UNL d   1      46.546 -19.636  43.668  0.00  0.00    -0.189 N 
ATOM      9  N   UNL d   1      46.607 -20.326  44.118  0.00  0.00    -0.038 NA
ATOM     10  N   UNL d   1      46.554 -20.114  44.913  0.00  0.00    -0.022 NA
ATOM     11  N   UNL d   1      46.461 -19.307  44.955  0.00  0.00    -0.104 NA
ATOM     12  C   UNL d   1      46.456 -19.005  44.186  0.00  0.00     0.226 A 
ENDBRANCH   1   8
TORSDOF 1
ENDMDL
MODEL 2
REMARK VINA RESULT:       0.6      7.854      8.105
REMARK  1 active torsions:
REMARK  status: ('A' for Active; 'I' for Inactive)
REMARK    1  A    between atoms: C_6  and  N_1 
ROOT
ATOM      1  C   UNL d   1      44.554 -15.342  36.645  0.00  0.00     0.086 A 
ATOM      2  C   UNL d   1      43.921 -14.834  36.753  0.00  0.00     0.023 A 
ATOM      3  C   UNL d   1      44.423 -16.130  36.433  0.00  0.00     0.023 A 
ATOM      4  C   UNL d   1      43.016 -15.888  36.441  0.00  0.00     0.196 A 
ATOM      5  C   UNL d   1      43.652 -16.404  36.331  0.00  0.00     0.044 A 
ATOM      6  C   UNL d   1      43.150 -15.108  36.651  0.00  0.00     0.044 A 
ATOM      7  O   UNL d   1      42.248 -16.161  36.339  0.00  0.00    -0.287 OA
ENDROOT
BRANCH   1   8
ATOM      8  N   UNL d   1      45.317 -15.068  36.747  0.00  0.00    -0.189 N 
ATOM      9  N   UNL d   1      45.536 -14.360  37.111  0.00  0.00    -0.038 NA
ATOM     10  N   UNL d   1      46.359 -14.309  37.091  0.00  0.00    -0.022 NA
ATOM     11  N   UNL d   1      46.644 -14.975  36.720  0.00  0.00    -0.104 NA
ATOM     12  C   UNL d   1      46.003 -15.449  36.505  0.00  0.00     0.226 A 
ENDBRANCH   1   8
TORSDOF 1
ENDMDL
MODEL 3
REMARK VINA RESULT:       2.3      5.524      6.271
REMARK  1 active torsions:
REMARK  status: ('A' for Active; 'I' for Inactive)
REMARK    1  A    between atoms: C_6  and  N_1 
ROOT
ATOM      1  C   UNL d   1      45.487 -14.159  44.548  0.00  0.00     0.086 A 
ATOM      2  C   UNL d   1      44.763 -14.446  44.803  0.00  0.00     0.023 A 
ATOM      3  C   UNL d   1      46.119 -14.677  44.425  0.00  0.00     0.023 A 
ATOM      4  C   UNL d   1      45.288 -15.770  44.819  0.00  0.00     0.196 A 
ATOM      5  C   UNL d   1      46.019 -15.485  44.561  0.00  0.00     0.044 A 
ATOM      6  C   UNL d   1      44.663 -15.253  44.939  0.00  0.00     0.044 A 
ATOM      7  O   UNL d   1      45.188 -16.573  44.954  0.00  0.00    -0.287 OA
ENDROOT
BRANCH   1   8
ATOM      8  N   UNL d   1      45.582 -13.359  44.414  0.00  0.00    -0.189 N 
ATOM      9  N   UNL d   1      45.330 -12.942  43.748  0.00  0.00    -0.038 NA
ATOM     10  N   UNL d   1      45.542 -12.151  43.850  0.00  0.00    -0.022 NA
ATOM     11  N   UNL d   1      45.918 -12.080  44.567  0.00  0.00    -0.104 NA
ATOM     12  C   UNL d   1      45.946 -12.826  44.922  0.00  0.00     0.226 A 
ENDBRANCH   1   8
TORSDOF 1
ENDMDL
MODEL 4
REMARK VINA RESULT:       2.5      7.691      7.973
REMARK  1 active torsions:
REMARK  status: ('A' for Active; 'I' for Inactive)
REMARK    1  A    between atoms: C_6  and  N_1 
ROOT
ATOM      1  C   UNL d   1      44.217 -15.343  36.866  0.00  0.00     0.086 A 
ATOM      2  C   UNL d   1      44.668 -15.869  36.430  0.00  0.00     0.023 A 
ATOM      3  C   UNL d   1      44.573 -14.693  37.231  0.00  0.00     0.023 A 
ATOM      4  C   UNL d   1      45.838 -15.109  36.713  0.00  0.00     0.196 A 
ATOM      5  C   UNL d   1      45.386 -14.576  37.154  0.00  0.00     0.044 A 
ATOM      6  C   UNL d   1      45.481 -15.752  36.354  0.00  0.00     0.044 A 
ATOM      7  O   UNL d   1      46.647 -14.992  36.637  0.00  0.00    -0.287 OA
ENDROOT
BRANCH   1   8
ATOM      8  N   UNL d   1      43.412 -15.462  36.940  0.00  0.00    -0.189 N 
ATOM      9  N   UNL d   1      42.973 -15.415  37.637  0.00  0.00    -0.038 NA
ATOM     10  N   UNL d   1      42.185 -15.576  37.452  0.00  0.00    -0.022 NA
ATOM     11  N   UNL d   1      42.138 -15.721  36.653  0.00  0.00    -0.104 NA
ATOM     12  C   UNL d   1      42.895 -15.652  36.330  0.00  0.00     0.226 A 
ENDBRANCH   1   8
TORSDOF 1
ENDMDL
