MODEL 1
REMARK VINA RESULT:      -4.9      0.000      0.000
REMARK  3 active torsions:
REMARK  status: ('A' for Active; 'I' for Inactive)
REMARK    1  A    between atoms: C_6  and  C_3 
REMARK    2  A    between atoms: C_9  and  C_6 
REMARK    3  A    between atoms: C_10  and  C_9 
ROOT
ATOM      1  N   UNL d   1      56.827   0.596  31.814  0.00  0.00    -0.225 NA
ATOM      2  N   UNL d   1      57.015  -0.698  31.487  0.00  0.00    -0.225 NA
ATOM      3  C   UNL d   1      57.227   0.076  31.277  0.00  0.00     0.163 A 
ATOM      4  C   UNL d   1      56.393   0.146  32.322  0.00  0.00     0.101 A 
ATOM      5  C   UNL d   1      56.512  -0.670  32.115  0.00  0.00     0.101 A 
ATOM      6  C   UNL d   1      55.889   0.284  32.960  0.00  0.00     0.021 A 
ATOM      7  C   UNL d   1      56.133  -1.263  32.545  0.00  0.00     0.021 A 
ATOM      8  C   UNL d   1      55.540  -0.265  33.356  0.00  0.00     0.002 A 
ATOM      9  C   UNL d   1      55.655  -1.057  33.155  0.00  0.00     0.002 A 
ENDROOT
BRANCH   3  10
ATOM     10  C   UNL d   1      57.731   0.304  30.666  0.00  0.00     0.039 C 
BRANCH  10  11
ATOM     11  C   UNL d   1      58.077  -0.268  30.182  0.00  0.00     0.003 C 
BRANCH  11  12
ATOM     12  C   UNL d   1      58.541  -0.038  29.539  0.00  0.00     0.000 C 
ATOM     13  C   UNL d   1      58.879  -0.614  29.048  0.00  0.00     0.000 C 
ENDBRANCH  11  12
ENDBRANCH  10  11
ENDBRANCH   3  10
TORSDOF 3
ENDMDL
MODEL 2
REMARK VINA RESULT:      -4.5      0.563      3.544
REMARK  3 active torsions:
REMARK  status: ('A' for Active; 'I' for Inactive)
REMARK    1  A    between atoms: C_6  and  C_3 
REMARK    2  A    between atoms: C_9  and  C_6 
REMARK    3  A    between atoms: C_10  and  C_9 
ROOT
ATOM      1  N   UNL d   1      57.124  -1.125  31.268  0.00  0.00    -0.225 NA
ATOM      2  N   UNL d   1      57.074   0.167  31.649  0.00  0.00    -0.225 NA
ATOM      3  C   UNL d   1      56.788  -0.589  31.832  0.00  0.00     0.163 A 
ATOM      4  C   UNL d   1      57.592  -0.701  30.769  0.00  0.00     0.101 A 
ATOM      5  C   UNL d   1      57.561   0.113  31.009  0.00  0.00     0.101 A 
ATOM      6  C   UNL d   1      58.069  -0.864  30.115  0.00  0.00     0.021 A 
ATOM      7  C   UNL d   1      57.991   0.682  30.594  0.00  0.00     0.021 A 
ATOM      8  C   UNL d   1      58.466  -0.337  29.734  0.00  0.00     0.002 A 
ATOM      9  C   UNL d   1      58.436   0.454  29.967  0.00  0.00     0.002 A 
ENDROOT
BRANCH   3  10
ATOM     10  C   UNL d   1      56.274  -0.790  32.444  0.00  0.00     0.039 C 
BRANCH  10  11
ATOM     11  C   UNL d   1      55.852  -0.199  32.839  0.00  0.00     0.003 C 
BRANCH  11  12
ATOM     12  C   UNL d   1      55.329  -0.401  33.445  0.00  0.00     0.000 C 
ATOM     13  C   UNL d   1      54.952   0.196  33.878  0.00  0.00     0.000 C 
ENDBRANCH  11  12
ENDBRANCH  10  11
ENDBRANCH   3  10
TORSDOF 3
ENDMDL
MODEL 3
REMARK VINA RESULT:      -4.1      0.961      3.613
REMARK  3 active torsions:
REMARK  status: ('A' for Active; 'I' for Inactive)
REMARK    1  A    between atoms: C_6  and  C_3 
REMARK    2  A    between atoms: C_9  and  C_6 
REMARK    3  A    between atoms: C_10  and  C_9 
ROOT
ATOM      1  N   UNL d   1      58.314   0.528  31.325  0.00  0.00    -0.225 NA
ATOM      2  N   UNL d   1      57.390   0.235  30.387  0.00  0.00    -0.225 NA
ATOM      3  C   UNL d   1      57.497   0.336  31.204  0.00  0.00     0.163 A 
ATOM      4  C   UNL d   1      58.677   0.539  30.606  0.00  0.00     0.101 A 
ATOM      5  C   UNL d   1      58.095   0.354  30.015  0.00  0.00     0.101 A 
ATOM      6  C   UNL d   1      59.441   0.679  30.325  0.00  0.00     0.021 A 
ATOM      7  C   UNL d   1      58.310   0.325  29.220  0.00  0.00     0.021 A 
ATOM      8  C   UNL d   1      59.637   0.652  29.590  0.00  0.00     0.002 A 
ATOM      9  C   UNL d   1      59.071   0.472  29.016  0.00  0.00     0.002 A 
ENDROOT
BRANCH   3  10
ATOM     10  C   UNL d   1      56.923   0.267  31.791  0.00  0.00     0.039 C 
BRANCH  10  11
ATOM     11  C   UNL d   1      56.698  -0.480  32.062  0.00  0.00     0.003 C 
BRANCH  11  12
ATOM     12  C   UNL d   1      56.104  -0.551  32.630  0.00  0.00     0.000 C 
ATOM     13  C   UNL d   1      55.974  -1.281  33.001  0.00  0.00     0.000 C 
ENDBRANCH  11  12
ENDBRANCH  10  11
ENDBRANCH   3  10
TORSDOF 3
ENDMDL
MODEL 4
REMARK VINA RESULT:      -3.4      1.137      1.820
REMARK  3 active torsions:
REMARK  status: ('A' for Active; 'I' for Inactive)
REMARK    1  A    between atoms: C_6  and  C_3 
REMARK    2  A    between atoms: C_9  and  C_6 
REMARK    3  A    between atoms: C_10  and  C_9 
ROOT
ATOM      1  N   UNL d   1      55.895   0.320  32.567  0.00  0.00    -0.225 NA
ATOM      2  N   UNL d   1      56.887   0.616  33.431  0.00  0.00    -0.225 NA
ATOM      3  C   UNL d   1      56.729   0.460  32.631  0.00  0.00     0.163 A 
ATOM      4  C   UNL d   1      55.572   0.390  33.302  0.00  0.00     0.101 A 
ATOM      5  C   UNL d   1      56.198   0.577  33.846  0.00  0.00     0.101 A 
ATOM      6  C   UNL d   1      54.818   0.327  33.631  0.00  0.00     0.021 A 
ATOM      7  C   UNL d   1      56.030   0.682  34.646  0.00  0.00     0.021 A 
ATOM      8  C   UNL d   1      54.665   0.425  34.371  0.00  0.00     0.002 A 
ATOM      9  C   UNL d   1      55.273   0.606  34.899  0.00  0.00     0.002 A 
ENDROOT
BRANCH   3  10
ATOM     10  C   UNL d   1      57.272   0.443  32.012  0.00  0.00     0.039 C 
BRANCH  10  11
ATOM     11  C   UNL d   1      57.177  -0.096  31.394  0.00  0.00     0.003 C 
BRANCH  11  12
ATOM     12  C   UNL d   1      57.836  -0.366  30.977  0.00  0.00     0.000 C 
ATOM     13  C   UNL d   1      57.813  -0.402  30.149  0.00  0.00     0.000 C 
ENDBRANCH  11  12
ENDBRANCH  10  11
ENDBRANCH   3  10
TORSDOF 3
ENDMDL
MODEL 5
REMARK VINA RESULT:      -2.9      9.048      9.923
REMARK  3 active torsions:
REMARK  status: ('A' for Active; 'I' for Inactive)
REMARK    1  A    between atoms: C_6  and  C_3 
REMARK    2  A    between atoms: C_9  and  C_6 
REMARK    3  A    between atoms: C_10  and  C_9 
ROOT
ATOM      1  N   UNL d   1      58.940  -9.260  33.860  0.00  0.00    -0.225 NA
ATOM      2  N   UNL d   1      60.269  -9.261  33.637  0.00  0.00    -0.225 NA
ATOM      3  C   UNL d   1      59.695  -9.132  34.222  0.00  0.00     0.163 A 
ATOM      4  C   UNL d   1      59.062  -9.457  33.089  0.00  0.00     0.101 A 
ATOM      5  C   UNL d   1      59.900  -9.458  32.948  0.00  0.00     0.101 A 
ATOM      6  C   UNL d   1      58.589  -9.648  32.439  0.00  0.00     0.021 A 
ATOM      7  C   UNL d   1      60.192  -9.641  32.199  0.00  0.00     0.021 A 
ATOM      8  C   UNL d   1      58.862  -9.817  31.749  0.00  0.00     0.002 A 
ATOM      9  C   UNL d   1      59.675  -9.818  31.612  0.00  0.00     0.002 A 
ENDROOT
BRANCH   3  10
ATOM     10  C   UNL d   1      59.827  -8.920  35.007  0.00  0.00     0.039 C 
BRANCH  10  11
ATOM     11  C   UNL d   1      59.450  -8.258  35.325  0.00  0.00     0.003 C 
BRANCH  11  12
ATOM     12  C   UNL d   1      59.699  -7.949  36.049  0.00  0.00     0.000 C 
ATOM     13  C   UNL d   1      59.389  -7.229  36.318  0.00  0.00     0.000 C 
ENDBRANCH  11  12
ENDBRANCH  10  11
ENDBRANCH   3  10
TORSDOF 3
ENDMDL
MODEL 6
REMARK VINA RESULT:      -2.4      9.624      9.967
REMARK  3 active torsions:
REMARK  status: ('A' for Active; 'I' for Inactive)
REMARK    1  A    between atoms: C_6  and  C_3 
REMARK    2  A    between atoms: C_9  and  C_6 
REMARK    3  A    between atoms: C_10  and  C_9 
ROOT
ATOM      1  N   UNL d   1      57.789  -9.814  32.418  0.00  0.00    -0.225 NA
ATOM      2  N   UNL d   1      59.054  -9.816  31.952  0.00  0.00    -0.225 NA
ATOM      3  C   UNL d   1      58.604  -9.815  32.649  0.00  0.00     0.163 A 
ATOM      4  C   UNL d   1      57.757  -9.815  31.613  0.00  0.00     0.101 A 
ATOM      5  C   UNL d   1      58.555  -9.817  31.320  0.00  0.00     0.101 A 
ATOM      6  C   UNL d   1      57.164  -9.815  31.038  0.00  0.00     0.021 A 
ATOM      7  C   UNL d   1      58.695  -9.818  30.507  0.00  0.00     0.021 A 
ATOM      8  C   UNL d   1      57.297  -9.816  30.289  0.00  0.00     0.002 A 
ATOM      9  C   UNL d   1      58.071  -9.818  30.004  0.00  0.00     0.002 A 
ENDROOT
BRANCH   3  10
ATOM     10  C   UNL d   1      58.888  -9.814  33.423  0.00  0.00     0.039 C 
BRANCH  10  11
ATOM     11  C   UNL d   1      59.401  -9.218  33.674  0.00  0.00     0.003 C 
BRANCH  11  12
ATOM     12  C   UNL d   1      59.548  -9.111  34.478  0.00  0.00     0.000 C 
ATOM     13  C   UNL d   1      60.290  -8.840  34.729  0.00  0.00     0.000 C 
ENDBRANCH  11  12
ENDBRANCH  10  11
ENDBRANCH   3  10
TORSDOF 3
ENDMDL
