MODEL 1
REMARK VINA RESULT:      69.3      0.000      0.000
REMARK  3 active torsions:
REMARK  status: ('A' for Active; 'I' for Inactive)
REMARK    1  A    between atoms: C_7  and  C_1 
REMARK    2  A    between atoms: C_12  and  C_6 
REMARK       I    between atoms: N_10  and  C_7 
REMARK    3  A    between atoms: C_13  and  N_10 
ROOT
ATOM      1  C   UNL d   1      14.024  14.610  -3.440  0.00  0.00     0.108 A 
ATOM      2  C   UNL d   1      14.527  15.009  -2.290  0.00  0.00     0.046 A 
ATOM      3  C   UNL d   1      14.250  14.354  -2.697  0.00  0.00     0.116 A 
ATOM      4  C   UNL d   1      14.463  15.656  -2.798  0.00  0.00     0.112 A 
ATOM      5  S   UNL d   1      14.148  15.388  -3.509  0.00  0.00    -0.061 SA
ATOM      6  C   UNL d   1      14.827  15.112  -1.531  0.00  0.00     0.028 A 
ATOM      7  N   UNL d   1      14.699  16.410  -2.550  0.00  0.00    -0.239 NA
ATOM      8  C   UNL d   1      15.066  15.861  -1.274  0.00  0.00     0.020 A 
ATOM      9  C   UNL d   1      15.002  16.507  -1.782  0.00  0.00     0.082 A 
ATOM     10  N   UNL d   1      14.205  13.574  -2.413  0.00  0.00    -0.147 N 
ATOM     11  C   UNL d   1      15.366  15.963  -0.515  0.00  0.00     0.002 A 
ATOM     12  C   UNL d   1      15.239  17.261  -1.534  0.00  0.00     0.019 A 
ATOM     13  C   UNL d   1      15.607  16.715  -0.254  0.00  0.00     0.000 A 
ATOM     14  C   UNL d   1      15.544  17.362  -0.763  0.00  0.00     0.002 A 
ENDROOT
BRANCH   1  15
ATOM     15  C   UNL d   1      13.710  14.148  -4.049  0.00  0.00     0.287 C 
ATOM     16  N   UNL d   1      13.855  13.344  -4.089  0.00  0.00    -0.208 NA
ATOM     17  O   UNL d   1      13.239  14.513  -4.628  0.00  0.00    -0.265 OA
BRANCH  16  18
ATOM     18  C   UNL d   1      13.538  12.896  -4.698  0.00  0.00     0.085 A 
ATOM     19  C   UNL d   1      13.085  12.224  -4.529  0.00  0.00     0.018 A 
ATOM     20  C   UNL d   1      12.924  11.961  -3.791  0.00  0.00     0.002 C 
ATOM     21  C   UNL d   1      12.769  11.780  -5.162  0.00  0.00     0.002 A 
ATOM     22  C   UNL d   1      12.905  12.006  -5.954  0.00  0.00     0.000 A 
ATOM     23  C   UNL d   1      13.358  12.679  -6.099  0.00  0.00     0.002 A 
ATOM     24  C   UNL d   1      13.674  13.124  -5.480  0.00  0.00     0.019 A 
ENDBRANCH  16  18
ENDBRANCH   1  15
BRANCH   6  25
ATOM     25  C   UNL d   1      14.890  14.469  -1.026  0.00  0.00     0.100 A 
ATOM     26  O   UNL d   1      15.431  13.850  -1.041  0.00  0.00    -0.305 OA
ATOM     27  C   UNL d   1      15.252  13.348  -0.409  0.00  0.00     0.123 A 
ATOM     28  C   UNL d   1      14.624  13.647  -0.017  0.00  0.00     0.029 A 
ATOM     29  C   UNL d   1      14.388  14.336  -0.383  0.00  0.00     0.027 A 
ENDBRANCH   6  25
TORSDOF 3
ENDMDL
MODEL 2
REMARK VINA RESULT:      70.0      1.100      4.640
REMARK  3 active torsions:
REMARK  status: ('A' for Active; 'I' for Inactive)
REMARK    1  A    between atoms: C_7  and  C_1 
REMARK    2  A    between atoms: C_12  and  C_6 
REMARK       I    between atoms: N_10  and  C_7 
REMARK    3  A    between atoms: C_13  and  N_10 
ROOT
ATOM      1  C   UNL d   1      14.143  15.088  -3.030  0.00  0.00     0.108 A 
ATOM      2  C   UNL d   1      13.751  13.895  -3.431  0.00  0.00     0.046 A 
ATOM      3  C   UNL d   1      14.018  14.318  -2.782  0.00  0.00     0.116 A 
ATOM      4  C   UNL d   1      13.719  14.420  -4.067  0.00  0.00     0.112 A 
ATOM      5  S   UNL d   1      13.966  15.157  -3.798  0.00  0.00    -0.061 SA
ATOM      6  C   UNL d   1      13.533  13.109  -3.536  0.00  0.00     0.028 A 
ATOM      7  N   UNL d   1      13.468  14.161  -4.812  0.00  0.00    -0.239 NA
ATOM      8  C   UNL d   1      13.281  12.841  -4.276  0.00  0.00     0.020 A 
ATOM      9  C   UNL d   1      13.248  13.365  -4.912  0.00  0.00     0.082 A 
ATOM     10  N   UNL d   1      14.141  14.026  -2.013  0.00  0.00    -0.147 N 
ATOM     11  C   UNL d   1      13.063  12.055  -4.382  0.00  0.00     0.002 A 
ATOM     12  C   UNL d   1      12.997  13.107  -5.657  0.00  0.00     0.019 A 
ATOM     13  C   UNL d   1      12.809  11.783  -5.125  0.00  0.00     0.000 A 
ATOM     14  C   UNL d   1      12.776  12.307  -5.761  0.00  0.00     0.002 A 
ENDROOT
BRANCH   1  15
ATOM     15  C   UNL d   1      14.413  15.719  -2.571  0.00  0.00     0.287 C 
ATOM     16  N   UNL d   1      14.912  15.597  -1.935  0.00  0.00    -0.208 NA
ATOM     17  O   UNL d   1      14.169  16.490  -2.765  0.00  0.00    -0.265 OA
BRANCH  16  18
ATOM     18  C   UNL d   1      15.173  16.233  -1.487  0.00  0.00     0.085 A 
ATOM     19  C   UNL d   1      15.496  16.108  -0.735  0.00  0.00     0.018 A 
ATOM     20  C   UNL d   1      15.581  15.390  -0.393  0.00  0.00     0.002 C 
ATOM     21  C   UNL d   1      15.757  16.767  -0.293  0.00  0.00     0.002 A 
ATOM     22  C   UNL d   1      15.694  17.540  -0.598  0.00  0.00     0.000 A 
ATOM     23  C   UNL d   1      15.368  17.642  -1.349  0.00  0.00     0.002 A 
ATOM     24  C   UNL d   1      15.108  16.997  -1.794  0.00  0.00     0.019 A 
ENDBRANCH  16  18
ENDBRANCH   1  15
BRANCH   6  25
ATOM     25  C   UNL d   1      13.566  12.588  -2.904  0.00  0.00     0.100 A 
ATOM     26  O   UNL d   1      14.224  12.279  -2.520  0.00  0.00    -0.305 OA
ATOM     27  C   UNL d   1      13.951  11.780  -1.920  0.00  0.00     0.123 A 
ATOM     28  C   UNL d   1      13.153  11.781  -1.933  0.00  0.00     0.029 A 
ATOM     29  C   UNL d   1      12.898  12.272  -2.531  0.00  0.00     0.027 A 
ENDBRANCH   6  25
TORSDOF 3
ENDMDL
