MODEL 1
REMARK VINA RESULT:      70.9      0.000      0.000
REMARK  5 active torsions:
REMARK  status: ('A' for Active; 'I' for Inactive)
REMARK    1  A    between atoms: C_10  and  N_1 
REMARK    2  A    between atoms: C_7  and  C_4 
REMARK    3  A    between atoms: O_16  and  C_9 
REMARK    4  A    between atoms: C_15  and  C_10 
REMARK    5  A    between atoms: O_17  and  C_11 
ROOT
ATOM      1  N   UNL d   1     -53.046  24.207  34.275  0.00  0.00    -0.193 N 
ATOM      2  N   UNL d   1     -52.837  24.584  34.981  0.00  0.00    -0.163 NA
ATOM      3  C   UNL d   1     -53.551  23.565  34.303  0.00  0.00     0.281 A 
ATOM      4  C   UNL d   1     -53.136  24.311  35.700  0.00  0.00     0.102 A 
ATOM      5  C   UNL d   1     -53.854  23.285  35.008  0.00  0.00     0.064 A 
ATOM      6  C   UNL d   1     -53.645  23.662  35.713  0.00  0.00     0.026 A 
ATOM      7  O   UNL d   1     -53.760  23.188  33.598  0.00  0.00    -0.265 OA
ENDROOT
BRANCH   4   8
ATOM      8  C   UNL d   1     -52.930  24.682  36.394  0.00  0.00     0.021 A 
ATOM      9  C   UNL d   1     -53.086  24.316  37.130  0.00  0.00     0.028 A 
ATOM     10  C   UNL d   1     -52.876  24.695  37.824  0.00  0.00     0.116 A 
ATOM     11  C   UNL d   1     -52.512  25.436  37.806  0.00  0.00     0.116 A 
ATOM     12  C   UNL d   1     -52.354  25.806  37.071  0.00  0.00     0.026 A 
ATOM     13  C   UNL d   1     -52.566  25.422  36.376  0.00  0.00     0.004 A 
BRANCH  10  14
ATOM     14  O   UNL d   1     -53.029  24.335  38.547  0.00  0.00    -0.326 OA
ATOM     15  C   UNL d   1     -52.930  23.524  38.639  0.00  0.00     0.181 C 
ENDBRANCH  10  14
BRANCH  11  16
ATOM     16  O   UNL d   1     -52.298  25.821  38.504  0.00  0.00    -0.326 OA
ATOM     17  C   UNL d   1     -51.796  26.475  38.467  0.00  0.00     0.181 C 
ENDBRANCH  11  16
ENDBRANCH   4   8
BRANCH   1  18
ATOM     18  C   UNL d   1     -52.745  24.483  33.564  0.00  0.00     0.104 C 
BRANCH  18  19
ATOM     19  C   UNL d   1     -51.937  24.581  33.478  0.00  0.00     0.019 A 
ATOM     20  C   UNL d   1     -51.611  25.339  33.471  0.00  0.00     0.002 A 
ATOM     21  C   UNL d   1     -50.799  25.438  33.385  0.00  0.00     0.000 A 
ATOM     22  C   UNL d   1     -50.315  24.765  33.307  0.00  0.00     0.000 A 
ATOM     23  C   UNL d   1     -50.641  24.011  33.315  0.00  0.00     0.000 A 
ATOM     24  C   UNL d   1     -51.459  23.921  33.401  0.00  0.00     0.002 A 
ENDBRANCH  18  19
ENDBRANCH   1  18
TORSDOF 5
ENDMDL
MODEL 2
REMARK VINA RESULT:      72.4      5.541      7.260
REMARK  5 active torsions:
REMARK  status: ('A' for Active; 'I' for Inactive)
REMARK    1  A    between atoms: C_10  and  N_1 
REMARK    2  A    between atoms: C_7  and  C_4 
REMARK    3  A    between atoms: O_16  and  C_9 
REMARK    4  A    between atoms: C_15  and  C_10 
REMARK    5  A    between atoms: O_17  and  C_11 
ROOT
ATOM      1  N   UNL d   1     -47.515  29.911  35.198  0.00  0.00    -0.193 N 
ATOM      2  N   UNL d   1     -47.921  29.352  34.743  0.00  0.00    -0.163 NA
ATOM      3  C   UNL d   1     -47.591  29.893  36.011  0.00  0.00     0.281 A 
ATOM      4  C   UNL d   1     -48.394  28.786  35.112  0.00  0.00     0.102 A 
ATOM      5  C   UNL d   1     -48.057  29.338  36.388  0.00  0.00     0.064 A 
ATOM      6  C   UNL d   1     -48.462  28.778  35.934  0.00  0.00     0.026 A 
ATOM      7  O   UNL d   1     -47.186  30.452  36.465  0.00  0.00    -0.265 OA
ENDROOT
BRANCH   4   8
ATOM      8  C   UNL d   1     -48.793  28.235  34.664  0.00  0.00     0.021 A 
ATOM      9  C   UNL d   1     -49.461  28.461  34.215  0.00  0.00     0.028 A 
ATOM     10  C   UNL d   1     -49.857  27.901  33.768  0.00  0.00     0.116 A 
ATOM     11  C   UNL d   1     -49.604  27.116  33.756  0.00  0.00     0.116 A 
ATOM     12  C   UNL d   1     -48.936  26.885  34.205  0.00  0.00     0.026 A 
ATOM     13  C   UNL d   1     -48.540  27.449  34.653  0.00  0.00     0.004 A 
BRANCH  10  14
ATOM     14  O   UNL d   1     -50.513  28.124  33.326  0.00  0.00    -0.326 OA
ATOM     15  C   UNL d   1     -51.191  27.659  33.320  0.00  0.00     0.181 C 
ENDBRANCH  10  14
BRANCH  11  16
ATOM     16  O   UNL d   1     -50.002  26.549  33.306  0.00  0.00    -0.326 OA
ATOM     17  C   UNL d   1     -49.870  25.748  33.457  0.00  0.00     0.181 C 
ENDBRANCH  11  16
ENDBRANCH   4   8
BRANCH   1  18
ATOM     18  C   UNL d   1     -47.046  30.472  34.825  0.00  0.00     0.104 C 
BRANCH  18  19
ATOM     19  C   UNL d   1     -47.380  31.175  34.573  0.00  0.00     0.019 A 
ATOM     20  C   UNL d   1     -46.979  31.654  34.033  0.00  0.00     0.002 A 
ATOM     21  C   UNL d   1     -47.315  32.360  33.779  0.00  0.00     0.000 A 
ATOM     22  C   UNL d   1     -48.061  32.582  34.074  0.00  0.00     0.000 A 
ATOM     23  C   UNL d   1     -48.459  32.105  34.611  0.00  0.00     0.000 A 
ATOM     24  C   UNL d   1     -48.114  31.396  34.861  0.00  0.00     0.002 A 
ENDBRANCH  18  19
ENDBRANCH   1  18
TORSDOF 5
ENDMDL
MODEL 3
REMARK VINA RESULT:      73.5      6.173      7.707
REMARK  5 active torsions:
REMARK  status: ('A' for Active; 'I' for Inactive)
REMARK    1  A    between atoms: C_10  and  N_1 
REMARK    2  A    between atoms: C_7  and  C_4 
REMARK    3  A    between atoms: O_16  and  C_9 
REMARK    4  A    between atoms: C_15  and  C_10 
REMARK    5  A    between atoms: O_17  and  C_11 
ROOT
ATOM      1  N   UNL d   1     -47.576  30.983  35.616  0.00  0.00    -0.193 N 
ATOM      2  N   UNL d   1     -48.061  30.373  35.339  0.00  0.00    -0.163 NA
ATOM      3  C   UNL d   1     -46.864  30.794  35.969  0.00  0.00     0.281 A 
ATOM      4  C   UNL d   1     -47.825  29.587  35.422  0.00  0.00     0.102 A 
ATOM      5  C   UNL d   1     -46.618  30.020  36.057  0.00  0.00     0.064 A 
ATOM      6  C   UNL d   1     -47.104  29.410  35.780  0.00  0.00     0.026 A 
ATOM      7  O   UNL d   1     -46.379  31.403  36.245  0.00  0.00    -0.265 OA
ENDROOT
BRANCH   4   8
ATOM      8  C   UNL d   1     -48.303  28.987  35.149  0.00  0.00     0.021 A 
ATOM      9  C   UNL d   1     -48.680  28.470  35.688  0.00  0.00     0.028 A 
ATOM     10  C   UNL d   1     -49.159  27.869  35.407  0.00  0.00     0.116 A 
ATOM     11  C   UNL d   1     -49.274  27.768  34.596  0.00  0.00     0.116 A 
ATOM     12  C   UNL d   1     -48.899  28.283  34.052  0.00  0.00     0.026 A 
ATOM     13  C   UNL d   1     -48.419  28.885  34.338  0.00  0.00     0.004 A 
BRANCH  10  14
ATOM     14  O   UNL d   1     -49.528  27.362  35.937  0.00  0.00    -0.326 OA
ATOM     15  C   UNL d   1     -49.807  27.641  36.658  0.00  0.00     0.181 C 
ENDBRANCH  10  14
BRANCH  11  16
ATOM     16  O   UNL d   1     -49.757  27.162  34.308  0.00  0.00    -0.326 OA
ATOM     17  C   UNL d   1     -50.016  27.190  33.525  0.00  0.00     0.181 C 
ENDBRANCH  11  16
ENDBRANCH   4   8
BRANCH   1  18
ATOM     18  C   UNL d   1     -47.817  31.763  35.530  0.00  0.00     0.104 C 
BRANCH  18  19
ATOM     19  C   UNL d   1     -47.800  32.112  34.791  0.00  0.00     0.019 A 
ATOM     20  C   UNL d   1     -48.497  32.193  34.356  0.00  0.00     0.002 A 
ATOM     21  C   UNL d   1     -48.480  32.544  33.612  0.00  0.00     0.000 A 
ATOM     22  C   UNL d   1     -47.754  32.813  33.308  0.00  0.00     0.000 A 
ATOM     23  C   UNL d   1     -47.062  32.732  33.742  0.00  0.00     0.000 A 
ATOM     24  C   UNL d   1     -47.087  32.378  34.489  0.00  0.00     0.002 A 
ENDBRANCH  18  19
ENDBRANCH   1  18
TORSDOF 5
ENDMDL
