MODEL 1
REMARK VINA RESULT:      57.3      0.000      0.000
REMARK  7 active torsions:
REMARK  status: ('A' for Active; 'I' for Inactive)
REMARK    1  A    between atoms: N_10  and  C_4 
REMARK    2  A    between atoms: C_16  and  N_5 
REMARK    3  A    between atoms: C_18  and  N_11 
REMARK    4  A    between atoms: C_22  and  C_16 
REMARK    5  A    between atoms: C_21  and  C_18 
REMARK    6  A    between atoms: C_24  and  C_22 
REMARK    7  A    between atoms: C_23  and  C_24 
ROOT
ATOM      1  C   UNL d   1      46.174 -18.929  42.922  0.00  0.00     0.191 A 
ATOM      2  C   UNL d   1      46.267 -18.143  43.152  0.00  0.00     0.174 A 
ATOM      3  N   UNL d   1      45.964 -18.945  42.124  0.00  0.00    -0.042 NA
ATOM      4  C   UNL d   1      45.930 -18.157  41.873  0.00  0.00     0.722 A 
ATOM      5  N   UNL d   1      46.116 -17.659  42.501  0.00  0.00    -0.132 N 
ATOM      6  N   UNL d   1      46.293 -19.544  43.467  0.00  0.00    -0.239 N 
ATOM      7  C   UNL d   1      46.509 -19.361  44.264  0.00  0.00     0.358 A 
ATOM      8  N   UNL d   1      46.602 -18.576  44.494  0.00  0.00    -0.152 NA
ATOM      9  C   UNL d   1      46.480 -17.959  43.932  0.00  0.00     0.303 A 
ATOM     10  O   UNL d   1      46.632 -19.983  44.828  0.00  0.00    -0.244 OA
ATOM     11  O   UNL d   1      46.573 -17.166  44.164  0.00  0.00    -0.263 OA
ATOM     12  C   UNL d   1      46.200 -20.330  43.237  0.00  0.00     0.105 C 
ENDROOT
BRANCH   4  13
ATOM     13  N   UNL d   1      45.739 -17.909  41.107  0.00  0.00    -0.136 N 
ATOM     14  C   UNL d   1      46.319 -17.571  40.625  0.00  0.00     0.117 A 
ATOM     15  C   UNL d   1      46.129 -17.325  39.862  0.00  0.00     0.100 A 
ATOM     16  N   UNL d   1      45.362 -17.416  39.579  0.00  0.00    -0.300 N 
ATOM     17  C   UNL d   1      44.771 -17.754  40.054  0.00  0.00     0.100 A 
ATOM     18  C   UNL d   1      44.963 -18.003  40.824  0.00  0.00     0.117 A 
BRANCH  16  19
ATOM     19  C   UNL d   1      44.808 -17.327  38.977  0.00  0.00     0.080 C 
BRANCH  19  20
ATOM     20  C   UNL d   1      44.879 -16.710  38.440  0.00  0.00     0.018 A 
ATOM     21  C   UNL d   1      44.214 -16.303  38.200  0.00  0.00     0.002 A 
ATOM     22  C   UNL d   1      44.281 -15.684  37.662  0.00  0.00     0.000 A 
ATOM     23  C   UNL d   1      45.020 -15.477  37.367  0.00  0.00     0.000 A 
ATOM     24  C   UNL d   1      45.691 -15.891  37.612  0.00  0.00     0.000 A 
ATOM     25  C   UNL d   1      45.617 -16.506  38.147  0.00  0.00     0.002 A 
ENDBRANCH  19  20
ENDBRANCH  16  19
ENDBRANCH   4  13
BRANCH   5  26
ATOM     26  C   UNL d   1      46.157 -16.833  42.527  0.00  0.00     0.098 C 
BRANCH  26  27
ATOM     27  C   UNL d   1      45.979 -16.436  43.232  0.00  0.00     0.020 C 
BRANCH  27  28
ATOM     28  C   UNL d   1      46.089 -15.618  43.280  0.00  0.00     0.002 C 
BRANCH  28  29
ATOM     29  C   UNL d   1      45.666 -15.180  43.841  0.00  0.00     0.000 A 
ATOM     30  C   UNL d   1      45.736 -14.365  43.847  0.00  0.00     0.000 A 
ATOM     31  C   UNL d   1      45.316 -13.920  44.406  0.00  0.00     0.000 A 
ATOM     32  C   UNL d   1      44.827 -14.306  44.955  0.00  0.00     0.000 A 
ATOM     33  C   UNL d   1      44.761 -15.130  44.943  0.00  0.00     0.000 A 
ATOM     34  C   UNL d   1      45.182 -15.568  44.383  0.00  0.00     0.000 A 
ENDBRANCH  28  29
ENDBRANCH  27  28
ENDBRANCH  26  27
ENDBRANCH   5  26
TORSDOF 7
ENDMDL
