MODEL 1
REMARK VINA RESULT:      45.5      0.000      0.000
REMARK  5 active torsions:
REMARK  status: ('A' for Active; 'I' for Inactive)
REMARK    1  A    between atoms: O_8  and  C_2 
REMARK    2  A    between atoms: C_9  and  C_5 
REMARK    3  A    between atoms: C_14  and  O_8 
REMARK    4  A    between atoms: N_11  and  C_9 
REMARK    5  A    between atoms: O_20  and  C_17 
ROOT
ATOM      1  C   UNL d   1      14.460  13.067  -1.839  0.00  0.00     0.108 A 
ATOM      2  C   UNL d   1      13.406  13.067  -3.127  0.00  0.00     0.161 A 
ATOM      3  C   UNL d   1      13.937  12.421  -1.954  0.00  0.00     0.064 A 
ATOM      4  C   UNL d   1      13.413  12.424  -2.598  0.00  0.00     0.222 A 
ATOM      5  C   UNL d   1      14.978  13.068  -1.207  0.00  0.00     0.079 A 
ATOM      6  O   UNL d   1      14.451  13.707  -2.370  0.00  0.00    -0.305 OA
ATOM      7  C   UNL d   1      13.924  13.707  -3.013  0.00  0.00     0.126 A 
ATOM      8  C   UNL d   1      13.957  11.794  -1.421  0.00  0.00     0.009 A 
ATOM      9  C   UNL d   1      14.993  12.439  -0.678  0.00  0.00     0.199 A 
ATOM     10  O   UNL d   1      12.898  11.787  -2.711  0.00  0.00    -0.284 OA
ATOM     11  C   UNL d   1      14.480  11.801  -0.788  0.00  0.00     0.042 A 
ATOM     12  O   UNL d   1      15.518  12.444  -0.041  0.00  0.00    -0.286 OA
ATOM     13  C   UNL d   1      13.918  14.347  -3.540  0.00  0.00     0.029 C 
ENDROOT
BRANCH   2  14
ATOM     14  O   UNL d   1      12.882  13.062  -3.764  0.00  0.00    -0.302 OA
BRANCH  14  15
ATOM     15  C   UNL d   1      13.124  12.793  -4.507  0.00  0.00     0.102 A 
ATOM     16  C   UNL d   1      13.615  13.257  -4.969  0.00  0.00     0.049 A 
ATOM     17  C   UNL d   1      13.855  12.985  -5.712  0.00  0.00     0.096 A 
ATOM     18  C   UNL d   1      13.601  12.246  -5.989  0.00  0.00     0.024 A 
ATOM     19  C   UNL d   1      13.104  11.782  -5.514  0.00  0.00     0.004 A 
ATOM     20  C   UNL d   1      12.867  12.057  -4.776  0.00  0.00     0.025 A 
BRANCH  17  21
ATOM     21  O   UNL d   1      14.346  13.449  -6.174  0.00  0.00    -0.328 OA
ATOM     22  C   UNL d   1      14.382  14.267  -6.055  0.00  0.00     0.181 C 
ENDBRANCH  17  21
ENDBRANCH  14  15
ENDBRANCH   2  14
BRANCH   5  23
ATOM     23  C   UNL d   1      15.484  13.696  -1.099  0.00  0.00     0.085 C 
BRANCH  23  24
ATOM     24  N   UNL d   1      15.289  14.427  -0.795  0.00  0.00    -0.302 N 
ATOM     25  C   UNL d   1      15.438  15.147  -1.143  0.00  0.00     0.080 A 
ATOM     26  C   UNL d   1      15.155  15.721  -0.656  0.00  0.00     0.021 A 
ATOM     27  C   UNL d   1      14.835  15.373  -0.015  0.00  0.00     0.021 A 
ATOM     28  C   UNL d   1      14.916  14.560  -0.096  0.00  0.00     0.080 A 
ENDBRANCH  23  24
ENDBRANCH   5  23
TORSDOF 5
ENDMDL
