MODEL 1
REMARK VINA RESULT:      34.2      0.000      0.000
REMARK  8 active torsions:
REMARK  status: ('A' for Active; 'I' for Inactive)
REMARK       I    between atoms: C_2  and  N_1 
REMARK    1  A    between atoms: C_3  and  N_1 
REMARK    2  A    between atoms: C_4  and  C_2 
REMARK    3  A    between atoms: N_12  and  C_3 
REMARK    4  A    between atoms: O_19  and  C_5 
REMARK    5  A    between atoms: O_20  and  C_6 
REMARK    6  A    between atoms: O_21  and  C_7 
REMARK    7  A    between atoms: C_10  and  C_18 
REMARK    8  A    between atoms: C_18  and  N_12 
ROOT
ATOM      1  C   UNL d   1      15.092  14.720  -1.038  0.00  0.00     0.062 A 
ATOM      2  C   UNL d   1      15.068  16.272  -1.625  0.00  0.00     0.138 A 
ATOM      3  C   UNL d   1      14.789  15.644  -2.096  0.00  0.00     0.118 A 
ATOM      4  C   UNL d   1      15.354  16.103  -0.866  0.00  0.00     0.118 A 
ATOM      5  C   UNL d   1      15.366  15.339  -0.576  0.00  0.00     0.031 A 
ATOM      6  C   UNL d   1      14.804  14.867  -1.797  0.00  0.00     0.031 A 
ENDROOT
BRANCH   1   7
ATOM      7  C   UNL d   1      15.107  13.938  -0.735  0.00  0.00     0.281 C 
ATOM      8  N   UNL d   1      14.760  13.326  -1.179  0.00  0.00    -0.179 NA
ATOM      9  O   UNL d   1      15.455  13.771  -0.017  0.00  0.00    -0.265 OA
BRANCH   8  10
ATOM     10  C   UNL d   1      14.774  12.551  -0.878  0.00  0.00     0.224 C 
ATOM     11  S   UNL d   1      14.897  12.358  -0.086  0.00  0.00    -0.037 SA
BRANCH  10  12
ATOM     12  N   UNL d   1      14.657  11.961  -1.426  0.00  0.00    -0.214 NA
BRANCH  12  13
ATOM     13  C   UNL d   1      13.895  11.783  -1.683  0.00  0.00     0.126 C 
BRANCH  13  14
ATOM     14  C   UNL d   1      13.706  11.793  -2.481  0.00  0.00     0.119 A 
ATOM     15  O   UNL d   1      14.233  11.781  -3.139  0.00  0.00    -0.304 OA
ATOM     16  C   UNL d   1      13.780  11.799  -3.825  0.00  0.00     0.123 A 
ATOM     17  C   UNL d   1      12.993  11.822  -3.619  0.00  0.00     0.029 A 
ATOM     18  C   UNL d   1      12.937  11.819  -2.779  0.00  0.00     0.028 A 
ENDBRANCH  13  14
ENDBRANCH  12  13
ENDBRANCH  10  12
ENDBRANCH   8  10
ENDBRANCH   1   7
BRANCH   4  19
ATOM     19  O   UNL d   1      15.633  16.739  -0.396  0.00  0.00    -0.326 OA
ATOM     20  C   UNL d   1      16.386  17.070  -0.569  0.00  0.00     0.181 C 
ENDBRANCH   4  19
BRANCH   3  21
ATOM     21  O   UNL d   1      14.495  15.799  -2.870  0.00  0.00    -0.326 OA
ATOM     22  C   UNL d   1      14.186  15.201  -3.334  0.00  0.00     0.181 C 
ENDBRANCH   3  21
BRANCH   2  23
ATOM     23  O   UNL d   1      15.060  17.059  -1.914  0.00  0.00    -0.324 OA
ATOM     24  C   UNL d   1      14.363  17.509  -1.914  0.00  0.00     0.182 C 
ENDBRANCH   2  23
TORSDOF 8
ENDMDL
MODEL 2
REMARK VINA RESULT:      34.5      1.767      3.247
REMARK  8 active torsions:
REMARK  status: ('A' for Active; 'I' for Inactive)
REMARK       I    between atoms: C_2  and  N_1 
REMARK    1  A    between atoms: C_3  and  N_1 
REMARK    2  A    between atoms: C_4  and  C_2 
REMARK    3  A    between atoms: N_12  and  C_3 
REMARK    4  A    between atoms: O_19  and  C_5 
REMARK    5  A    between atoms: O_20  and  C_6 
REMARK    6  A    between atoms: O_21  and  C_7 
REMARK    7  A    between atoms: C_10  and  C_18 
REMARK    8  A    between atoms: C_18  and  N_12 
ROOT
ATOM      1  C   UNL d   1      13.717  14.391  -4.009  0.00  0.00     0.062 A 
ATOM      2  C   UNL d   1      14.305  15.943  -3.998  0.00  0.00     0.138 A 
ATOM      3  C   UNL d   1      14.297  15.496  -3.296  0.00  0.00     0.118 A 
ATOM      4  C   UNL d   1      14.015  15.597  -4.693  0.00  0.00     0.118 A 
ATOM      5  C   UNL d   1      13.725  14.832  -4.699  0.00  0.00     0.031 A 
ATOM      6  C   UNL d   1      14.001  14.718  -3.306  0.00  0.00     0.031 A 
ENDROOT
BRANCH   1   7
ATOM      7  C   UNL d   1      13.419  13.607  -4.021  0.00  0.00     0.281 C 
ATOM      8  N   UNL d   1      13.641  13.080  -3.416  0.00  0.00    -0.179 NA
ATOM      9  O   UNL d   1      12.917  13.357  -4.613  0.00  0.00    -0.265 OA
BRANCH   8  10
ATOM     10  C   UNL d   1      13.345  12.304  -3.429  0.00  0.00     0.224 C 
ATOM     11  S   UNL d   1      12.802  12.018  -3.980  0.00  0.00    -0.037 SA
BRANCH  10  12
ATOM     12  N   UNL d   1      13.627  11.813  -2.845  0.00  0.00    -0.214 NA
BRANCH  12  13
ATOM     13  C   UNL d   1      13.350  11.889  -2.073  0.00  0.00     0.126 C 
BRANCH  13  14
ATOM     14  C   UNL d   1      13.865  11.852  -1.435  0.00  0.00     0.119 A 
ATOM     15  O   UNL d   1      14.707  11.802  -1.450  0.00  0.00    -0.304 OA
ATOM     16  C   UNL d   1      14.971  11.779  -0.672  0.00  0.00     0.123 A 
ATOM     17  C   UNL d   1      14.327  11.812  -0.175  0.00  0.00     0.029 A 
ATOM     18  C   UNL d   1      13.630  11.858  -0.644  0.00  0.00     0.028 A 
ENDBRANCH  13  14
ENDBRANCH  12  13
ENDBRANCH  10  12
ENDBRANCH   8  10
ENDBRANCH   1   7
BRANCH   4  19
ATOM     19  O   UNL d   1      14.025  16.052  -5.397  0.00  0.00    -0.326 OA
ATOM     20  C   UNL d   1      13.956  15.656  -6.135  0.00  0.00     0.181 C 
ENDBRANCH   4  19
BRANCH   3  21
ATOM     21  O   UNL d   1      14.589  15.833  -2.580  0.00  0.00    -0.326 OA
ATOM     22  C   UNL d   1      14.679  15.381  -1.904  0.00  0.00     0.181 C 
ENDBRANCH   3  21
BRANCH   2  23
ATOM     23  O   UNL d   1      14.600  16.727  -4.002  0.00  0.00    -0.324 OA
ATOM     24  C   UNL d   1      15.386  16.890  -4.212  0.00  0.00     0.182 C 
ENDBRANCH   2  23
TORSDOF 8
ENDMDL
