MODEL 1
REMARK VINA RESULT:      65.3      0.000      0.000
REMARK  4 active torsions:
REMARK  status: ('A' for Active; 'I' for Inactive)
REMARK    1  A    between atoms: S_12  and  C_5 
REMARK       I    between atoms: N_7  and  C_9 
REMARK    2  A    between atoms: C_19  and  N_8 
REMARK    3  A    between atoms: C_9  and  C_14 
REMARK    4  A    between atoms: C_14  and  S_12 
ROOT
ATOM      1  C   UNL d   1      13.727  14.512  -4.580  0.00  0.00     0.098 C 
ENDROOT
BRANCH   1   2
ATOM      2  C   UNL d   1      13.514  14.856  -5.299  0.00  0.00     0.272 C 
ATOM      3  N   UNL d   1      13.630  15.666  -5.421  0.00  0.00    -0.269 N 
ATOM      4  C   UNL d   1      13.957  16.126  -4.823  0.00  0.00     0.102 A 
ATOM      5  C   UNL d   1      13.418  16.010  -6.135  0.00  0.00     0.102 A 
ATOM      6  C   UNL d   1      14.073  16.935  -4.945  0.00  0.00     0.100 A 
ATOM      7  N   UNL d   1      13.860  17.280  -5.664  0.00  0.00    -0.301 N 
ATOM      8  C   UNL d   1      13.533  16.815  -6.256  0.00  0.00     0.100 A 
ATOM      9  O   UNL d   1      13.187  14.387  -5.892  0.00  0.00    -0.266 OA
BRANCH   7  10
ATOM     10  C   UNL d   1      13.974  18.085  -5.786  0.00  0.00     0.064 A 
ATOM     11  C   UNL d   1      14.618  18.468  -5.449  0.00  0.00     0.018 A 
ATOM     12  C   UNL d   1      14.731  19.276  -5.573  0.00  0.00     0.002 A 
ATOM     13  C   UNL d   1      14.202  19.699  -6.032  0.00  0.00     0.000 A 
ATOM     14  C   UNL d   1      13.555  19.316  -6.371  0.00  0.00     0.002 A 
ATOM     15  C   UNL d   1      13.441  18.511  -6.249  0.00  0.00     0.018 A 
ENDBRANCH   7  10
ENDBRANCH   1   2
BRANCH   1  16
ATOM     16  S   UNL d   1      13.155  14.137  -4.114  0.00  0.00    -0.060 SA
BRANCH  16  17
ATOM     17  C   UNL d   1      13.272  13.350  -3.872  0.00  0.00     0.137 A 
ATOM     18  C   UNL d   1      13.648  13.181  -3.159  0.00  0.00     0.141 A 
ATOM     19  O   UNL d   1      13.964  13.673  -2.576  0.00  0.00    -0.303 OA
ATOM     20  C   UNL d   1      13.761  12.395  -2.925  0.00  0.00     0.110 A 
ATOM     21  C   UNL d   1      14.275  13.188  -1.976  0.00  0.00     0.102 A 
ATOM     22  C   UNL d   1      14.656  13.364  -1.262  0.00  0.00     0.025 A 
ATOM     23  C   UNL d   1      14.146  12.401  -2.198  0.00  0.00     0.043 A 
ATOM     24  C   UNL d   1      14.907  12.747  -0.772  0.00  0.00     0.002 A 
ATOM     25  C   UNL d   1      14.781  11.961  -0.988  0.00  0.00     0.000 A 
ATOM     26  C   UNL d   1      14.400  11.783  -1.704  0.00  0.00     0.004 A 
ATOM     27  N   UNL d   1      13.495  11.784  -3.411  0.00  0.00    -0.222 NA
ATOM     28  C   UNL d   1      13.120  11.952  -4.123  0.00  0.00     0.200 A 
ATOM     29  N   UNL d   1      13.006  12.730  -4.357  0.00  0.00    -0.215 NA
ENDBRANCH  16  17
ENDBRANCH   1  16
TORSDOF 4
ENDMDL
MODEL 2
REMARK VINA RESULT:      66.9      2.112      2.583
REMARK  4 active torsions:
REMARK  status: ('A' for Active; 'I' for Inactive)
REMARK    1  A    between atoms: S_12  and  C_5 
REMARK       I    between atoms: N_7  and  C_9 
REMARK    2  A    between atoms: C_19  and  N_8 
REMARK    3  A    between atoms: C_9  and  C_14 
REMARK    4  A    between atoms: C_14  and  S_12 
ROOT
ATOM      1  C   UNL d   1      15.001  16.381  -2.765  0.00  0.00     0.098 C 
ENDROOT
BRANCH   1   2
ATOM      2  C   UNL d   1      15.103  16.356  -3.583  0.00  0.00     0.272 C 
ATOM      3  N   UNL d   1      14.962  17.032  -4.039  0.00  0.00    -0.269 N 
ATOM      4  C   UNL d   1      14.719  17.727  -3.674  0.00  0.00     0.102 A 
ATOM      5  C   UNL d   1      15.064  17.009  -4.853  0.00  0.00     0.102 A 
ATOM      6  C   UNL d   1      14.578  18.402  -4.130  0.00  0.00     0.100 A 
ATOM      7  N   UNL d   1      14.681  18.378  -4.948  0.00  0.00    -0.301 N 
ATOM      8  C   UNL d   1      14.924  17.680  -5.306  0.00  0.00     0.100 A 
ATOM      9  O   UNL d   1      15.347  15.655  -3.940  0.00  0.00    -0.266 OA
BRANCH   7  10
ATOM     10  C   UNL d   1      14.541  19.049  -5.402  0.00  0.00     0.064 A 
ATOM     11  C   UNL d   1      15.144  19.589  -5.540  0.00  0.00     0.018 A 
ATOM     12  C   UNL d   1      15.001  20.263  -5.996  0.00  0.00     0.002 A 
ATOM     13  C   UNL d   1      14.258  20.393  -6.312  0.00  0.00     0.000 A 
ATOM     14  C   UNL d   1      13.652  19.852  -6.175  0.00  0.00     0.002 A 
ATOM     15  C   UNL d   1      13.792  19.181  -5.721  0.00  0.00     0.018 A 
ENDBRANCH   7  10
ENDBRANCH   1   2
BRANCH   1  16
ATOM     16  S   UNL d   1      14.576  15.782  -2.382  0.00  0.00    -0.060 SA
BRANCH  16  17
ATOM     17  C   UNL d   1      14.811  15.532  -1.624  0.00  0.00     0.137 A 
ATOM     18  C   UNL d   1      14.798  14.734  -1.423  0.00  0.00     0.141 A 
ATOM     19  O   UNL d   1      14.581  14.063  -1.853  0.00  0.00    -0.303 OA
ATOM     20  C   UNL d   1      15.033  14.492  -0.666  0.00  0.00     0.110 A 
ATOM     21  C   UNL d   1      14.682  13.401  -1.360  0.00  0.00     0.102 A 
ATOM     22  C   UNL d   1      14.556  12.592  -1.485  0.00  0.00     0.025 A 
ATOM     23  C   UNL d   1      14.961  13.673  -0.630  0.00  0.00     0.043 A 
ATOM     24  C   UNL d   1      14.711  12.058  -0.873  0.00  0.00     0.002 A 
ATOM     25  C   UNL d   1      14.989  12.323  -0.143  0.00  0.00     0.000 A 
ATOM     26  C   UNL d   1      15.116  13.134  -0.017  0.00  0.00     0.004 A 
ATOM     27  N   UNL d   1      15.280  15.056  -0.118  0.00  0.00    -0.222 NA
ATOM     28  C   UNL d   1      15.293  15.854  -0.318  0.00  0.00     0.200 A 
ATOM     29  N   UNL d   1      15.061  16.096  -1.067  0.00  0.00    -0.215 NA
ENDBRANCH  16  17
ENDBRANCH   1  16
TORSDOF 4
ENDMDL
MODEL 3
REMARK VINA RESULT:      68.0      1.405      2.252
REMARK  4 active torsions:
REMARK  status: ('A' for Active; 'I' for Inactive)
REMARK    1  A    between atoms: S_12  and  C_5 
REMARK       I    between atoms: N_7  and  C_9 
REMARK    2  A    between atoms: C_19  and  N_8 
REMARK    3  A    between atoms: C_9  and  C_14 
REMARK    4  A    between atoms: C_14  and  S_12 
ROOT
ATOM      1  C   UNL d   1      13.089  12.581  -3.580  0.00  0.00     0.098 C 
ENDROOT
BRANCH   1   2
ATOM      2  C   UNL d   1      13.365  12.774  -4.333  0.00  0.00     0.272 C 
ATOM      3  N   UNL d   1      13.624  13.542  -4.495  0.00  0.00    -0.269 N 
ATOM      4  C   UNL d   1      13.606  14.113  -3.904  0.00  0.00     0.102 A 
ATOM      5  C   UNL d   1      13.898  13.736  -5.244  0.00  0.00     0.102 A 
ATOM      6  C   UNL d   1      13.866  14.881  -4.066  0.00  0.00     0.100 A 
ATOM      7  N   UNL d   1      14.141  15.074  -4.819  0.00  0.00    -0.301 N 
ATOM      8  C   UNL d   1      14.156  14.499  -5.406  0.00  0.00     0.100 A 
ATOM      9  O   UNL d   1      13.379  12.196  -4.920  0.00  0.00    -0.266 OA
BRANCH   7  10
ATOM     10  C   UNL d   1      14.399  15.837  -4.981  0.00  0.00     0.064 A 
ATOM     11  C   UNL d   1      14.898  16.226  -4.458  0.00  0.00     0.018 A 
ATOM     12  C   UNL d   1      15.157  16.993  -4.622  0.00  0.00     0.002 A 
ATOM     13  C   UNL d   1      14.916  17.368  -5.308  0.00  0.00     0.000 A 
ATOM     14  C   UNL d   1      14.414  16.979  -5.835  0.00  0.00     0.002 A 
ATOM     15  C   UNL d   1      14.156  16.216  -5.673  0.00  0.00     0.018 A 
ENDBRANCH   7  10
ENDBRANCH   1   2
BRANCH   1  16
ATOM     16  S   UNL d   1      13.434  11.957  -3.159  0.00  0.00    -0.060 SA
BRANCH  16  17
ATOM     17  C   UNL d   1      13.465  11.989  -2.328  0.00  0.00     0.137 A 
ATOM     18  C   UNL d   1      14.167  12.179  -1.942  0.00  0.00     0.141 A 
ATOM     19  O   UNL d   1      14.919  12.362  -2.228  0.00  0.00    -0.303 OA
ATOM     20  C   UNL d   1      14.190  12.209  -1.114  0.00  0.00     0.110 A 
ATOM     21  C   UNL d   1      15.412  12.507  -1.574  0.00  0.00     0.102 A 
ATOM     22  C   UNL d   1      16.213  12.712  -1.518  0.00  0.00     0.025 A 
ATOM     23  C   UNL d   1      14.956  12.411  -0.891  0.00  0.00     0.043 A 
ATOM     24  C   UNL d   1      16.552  12.820  -0.772  0.00  0.00     0.002 A 
ATOM     25  C   UNL d   1      16.102  12.726  -0.087  0.00  0.00     0.000 A 
ATOM     26  C   UNL d   1      15.300  12.520  -0.142  0.00  0.00     0.004 A 
ATOM     27  N   UNL d   1      13.506  12.048  -0.683  0.00  0.00    -0.222 NA
ATOM     28  C   UNL d   1      12.805  11.858  -1.068  0.00  0.00     0.200 A 
ATOM     29  N   UNL d   1      12.779  11.828  -1.888  0.00  0.00    -0.215 NA
ENDBRANCH  16  17
ENDBRANCH   1  16
TORSDOF 4
ENDMDL
