MODEL 1
REMARK VINA RESULT:      -3.6      0.000      0.000
REMARK  3 active torsions:
REMARK  status: ('A' for Active; 'I' for Inactive)
REMARK    1  A    between atoms: C_9  and  C_1 
REMARK    2  A    between atoms: C_11  and  N_5 
REMARK    3  A    between atoms: N_8  and  C_9 
ROOT
ATOM      1  N   UNL d   1     -41.766-122.227 -52.897  0.00  0.00    -0.301 N 
ATOM      2  N   UNL d   1     -41.492-122.271 -51.265  0.00  0.00    -0.300 N 
ATOM      3  C   UNL d   1     -41.379-122.878 -52.556  0.00  0.00     0.100 A 
ATOM      4  C   UNL d   1     -42.015-121.599 -52.417  0.00  0.00     0.100 A 
ATOM      5  C   UNL d   1     -41.239-122.903 -51.732  0.00  0.00     0.100 A 
ATOM      6  C   UNL d   1     -41.876-121.630 -51.613  0.00  0.00     0.100 A 
ENDROOT
BRANCH   2   7
ATOM      7  C   UNL d   1     -41.358-122.287 -50.448  0.00  0.00     0.084 C 
BRANCH   7   8
ATOM      8  C   UNL d   1     -41.904-122.668 -49.968  0.00  0.00     0.059 A 
ATOM      9  C   UNL d   1     -41.777-122.673 -49.150  0.00  0.00     0.214 A 
ATOM     10  C   UNL d   1     -42.327-123.058 -48.656  0.00  0.00     0.121 A 
ATOM     11  O   UNL d   1     -41.123-122.308 -48.822  0.00  0.00    -0.285 OA
ATOM     12  N   UNL d   1     -42.200-123.063 -47.838  0.00  0.00    -0.241 NA
ATOM     13  C   UNL d   1     -42.989-123.428 -48.979  0.00  0.00     0.032 A 
ATOM     14  C   UNL d   1     -42.749-123.447 -47.347  0.00  0.00     0.099 A 
ATOM     15  C   UNL d   1     -43.411-123.817 -47.671  0.00  0.00     0.021 A 
ATOM     16  C   UNL d   1     -43.524-123.804 -48.485  0.00  0.00     0.004 A 
ATOM     17  C   UNL d   1     -43.104-123.416 -49.790  0.00  0.00     0.059 A 
ATOM     18  C   UNL d   1     -42.566-123.038 -50.292  0.00  0.00     0.016 A 
ATOM     19 CL   UNL d   1     -43.772-123.790 -50.117  0.00  0.00    -0.082 Cl
ENDBRANCH   7   8
ENDBRANCH   2   7
BRANCH   1  20
ATOM     20  C   UNL d   1     -41.899-122.209 -53.702  0.00  0.00     0.064 A 
ATOM     21  C   UNL d   1     -41.475-122.716 -54.195  0.00  0.00     0.020 A 
ATOM     22  C   UNL d   1     -41.605-122.704 -55.014  0.00  0.00     0.031 A 
ATOM     23  C   UNL d   1     -42.165-122.178 -55.338  0.00  0.00     0.140 A 
ATOM     24  C   UNL d   1     -42.584-121.675 -54.835  0.00  0.00     0.031 A 
ATOM     25  F   UNL d   1     -42.290-122.170 -56.148  0.00  0.00    -0.204 F 
ATOM     26  C   UNL d   1     -42.451-121.692 -54.020  0.00  0.00     0.020 A 
ENDBRANCH   1  20
TORSDOF 3
ENDMDL
