MODEL 1
REMARK VINA RESULT:       8.9      0.000      0.000
REMARK  1 active torsions:
REMARK  status: ('A' for Active; 'I' for Inactive)
REMARK    1  A    between atoms: C_7  and  C_1 
ROOT
ATOM      1  C   UNL d   1     -51.565  24.511  33.355  0.00  0.00     0.102 A 
ATOM      2  C   UNL d   1     -52.315  24.858  33.348  0.00  0.00     0.303 A 
ATOM      3  C   UNL d   1     -50.893  24.995  33.347  0.00  0.00     0.011 A 
ATOM      4  O   UNL d   1     -52.395  25.690  33.333  0.00  0.00    -0.273 OA
ATOM      5  C   UNL d   1     -50.964  25.809  33.334  0.00  0.00     0.023 A 
ATOM      6  C   UNL d   1     -51.714  26.157  33.327  0.00  0.00     0.103 A 
ATOM      7  O   UNL d   1     -53.006  24.370  33.355  0.00  0.00    -0.259 OA
ATOM      8  C   UNL d   1     -50.298  26.282  33.326  0.00  0.00     0.002 A 
ATOM      9  C   UNL d   1     -51.800  26.977  33.313  0.00  0.00     0.025 A 
ATOM     10  C   UNL d   1     -50.370  27.091  33.313  0.00  0.00     0.000 A 
ATOM     11  C   UNL d   1     -51.121  27.439  33.306  0.00  0.00     0.002 A 
ENDROOT
BRANCH   1  12
ATOM     12  C   UNL d   1     -51.504  23.675  33.369  0.00  0.00     0.201 C 
ATOM     13  O   UNL d   1     -50.757  23.329  33.445  0.00  0.00    -0.286 OA
ATOM     14  C   UNL d   1     -52.168  23.201  33.309  0.00  0.00     0.045 C 
ENDBRANCH   1  12
TORSDOF 1
ENDMDL
