MODEL 1
REMARK VINA RESULT:      -3.0      0.000      0.000
REMARK  1 active torsions:
REMARK  status: ('A' for Active; 'I' for Inactive)
REMARK    1  A    between atoms: N_2  and  C_1 
ROOT
ATOM      1  C   UNL d   1      32.694  18.077 -23.318  0.00  0.00     0.110 A 
ATOM      2  C   UNL d   1      32.004  17.846 -23.735  0.00  0.00     0.212 A 
ATOM      3  C   UNL d   1      33.240  17.503 -23.075  0.00  0.00     0.056 A 
ATOM      4  C   UNL d   1      31.875  17.052 -23.899  0.00  0.00     0.046 A 
ATOM      5  S   UNL d   1      33.098  16.697 -23.249  0.00  0.00    -0.085 SA
ATOM      6  C   UNL d   1      32.418  16.473 -23.659  0.00  0.00     0.033 A 
ATOM      7  O   UNL d   1      31.462  18.415 -23.976  0.00  0.00    -0.285 OA
ATOM      8  C   UNL d   1      31.199  16.820 -24.309  0.00  0.00     0.004 A 
ATOM      9  C   UNL d   1      32.285  15.679 -23.826  0.00  0.00     0.007 A 
ATOM     10  C   UNL d   1      31.060  16.030 -24.479  0.00  0.00     0.000 A 
ATOM     11  C   UNL d   1      31.607  15.456 -24.236  0.00  0.00     0.001 A 
ENDROOT
BRANCH   1  12
ATOM     12  N   UNL d   1      32.830  18.875 -23.148  0.00  0.00    -0.301 N 
ATOM     13  C   UNL d   1      32.715  19.159 -22.394  0.00  0.00     0.080 A 
ATOM     14  C   UNL d   1      32.851  19.958 -22.220  0.00  0.00     0.018 A 
ATOM     15  C   UNL d   1      32.734  20.243 -21.459  0.00  0.00     0.002 A 
ATOM     16  C   UNL d   1      33.104  20.467 -22.814  0.00  0.00     0.003 A 
ATOM     17  C   UNL d   1      32.870  21.039 -21.288  0.00  0.00     0.000 A 
ATOM     18  C   UNL d   1      33.123  21.549 -21.884  0.00  0.00     0.000 A 
ATOM     19  C   UNL d   1      33.241  21.261 -22.651  0.00  0.00     0.000 A 
ATOM     20  C   UNL d   1      33.224  20.182 -23.591  0.00  0.00     0.019 A 
ATOM     21  C   UNL d   1      33.085  19.388 -23.748  0.00  0.00     0.080 A 
ENDBRANCH   1  12
TORSDOF 1
ENDMDL
MODEL 2
REMARK VINA RESULT:      -2.5      1.711      4.693
REMARK  1 active torsions:
REMARK  status: ('A' for Active; 'I' for Inactive)
REMARK    1  A    between atoms: N_2  and  C_1 
ROOT
ATOM      1  C   UNL d   1      32.966  20.595 -22.334  0.00  0.00     0.110 A 
ATOM      2  C   UNL d   1      32.689  20.824 -21.576  0.00  0.00     0.212 A 
ATOM      3  C   UNL d   1      33.241  21.171 -22.863  0.00  0.00     0.056 A 
ATOM      4  C   UNL d   1      32.692  21.617 -21.365  0.00  0.00     0.046 A 
ATOM      5  S   UNL d   1      33.239  21.976 -22.635  0.00  0.00    -0.085 SA
ATOM      6  C   UNL d   1      32.966  22.198 -21.889  0.00  0.00     0.033 A 
ATOM      7  O   UNL d   1      32.416  20.253 -21.051  0.00  0.00    -0.285 OA
ATOM      8  C   UNL d   1      32.420  21.846 -20.621  0.00  0.00     0.004 A 
ATOM      9  C   UNL d   1      32.967  22.990 -21.673  0.00  0.00     0.007 A 
ATOM     10  C   UNL d   1      32.419  22.636 -20.399  0.00  0.00     0.000 A 
ATOM     11  C   UNL d   1      32.694  23.211 -20.928  0.00  0.00     0.001 A 
ENDROOT
BRANCH   1  12
ATOM     12  N   UNL d   1      32.966  19.798 -22.555  0.00  0.00    -0.301 N 
ATOM     13  C   UNL d   1      32.700  19.578 -23.293  0.00  0.00     0.080 A 
ATOM     14  C   UNL d   1      32.698  18.779 -23.518  0.00  0.00     0.018 A 
ATOM     15  C   UNL d   1      32.429  18.559 -24.261  0.00  0.00     0.002 A 
ATOM     16  C   UNL d   1      32.966  18.208 -22.992  0.00  0.00     0.003 A 
ATOM     17  C   UNL d   1      32.428  17.764 -24.483  0.00  0.00     0.000 A 
ATOM     18  C   UNL d   1      32.698  17.190 -23.955  0.00  0.00     0.000 A 
ATOM     19  C   UNL d   1      32.969  17.413 -23.206  0.00  0.00     0.000 A 
ATOM     20  C   UNL d   1      33.241  18.427 -22.233  0.00  0.00     0.019 A 
ATOM     21  C   UNL d   1      33.237  19.222 -22.024  0.00  0.00     0.080 A 
ENDBRANCH   1  12
TORSDOF 1
ENDMDL
MODEL 3
REMARK VINA RESULT:      -2.3      2.129      4.641
REMARK  1 active torsions:
REMARK  status: ('A' for Active; 'I' for Inactive)
REMARK    1  A    between atoms: N_2  and  C_1 
ROOT
ATOM      1  C   UNL d   1      30.892  16.956 -24.214  0.00  0.00     0.110 A 
ATOM      2  C   UNL d   1      31.033  17.669 -24.632  0.00  0.00     0.212 A 
ATOM      3  C   UNL d   1      31.493  16.627 -23.746  0.00  0.00     0.056 A 
ATOM      4  C   UNL d   1      31.765  18.036 -24.573  0.00  0.00     0.046 A 
ATOM      5  S   UNL d   1      32.234  17.011 -23.695  0.00  0.00    -0.085 SA
ATOM      6  C   UNL d   1      32.370  17.713 -24.107  0.00  0.00     0.033 A 
ATOM      7  O   UNL d   1      30.438  17.995 -25.096  0.00  0.00    -0.285 OA
ATOM      8  C   UNL d   1      31.908  18.737 -24.982  0.00  0.00     0.004 A 
ATOM      9  C   UNL d   1      33.100  18.083 -24.052  0.00  0.00     0.007 A 
ATOM     10  C   UNL d   1      32.635  19.113 -24.932  0.00  0.00     0.000 A 
ATOM     11  C   UNL d   1      33.235  18.784 -24.464  0.00  0.00     0.001 A 
ENDROOT
BRANCH   1  12
ATOM     12  N   UNL d   1      30.157  16.579 -24.267  0.00  0.00    -0.301 N 
ATOM     13  C   UNL d   1      29.626  16.630 -23.652  0.00  0.00     0.080 A 
ATOM     14  C   UNL d   1      28.888  16.255 -23.701  0.00  0.00     0.018 A 
ATOM     15  C   UNL d   1      28.354  16.307 -23.081  0.00  0.00     0.002 A 
ATOM     16  C   UNL d   1      28.693  15.829 -24.376  0.00  0.00     0.003 A 
ATOM     17  C   UNL d   1      27.620  15.932 -23.132  0.00  0.00     0.000 A 
ATOM     18  C   UNL d   1      27.425  15.505 -23.810  0.00  0.00     0.000 A 
ATOM     19  C   UNL d   1      27.964  15.453 -24.435  0.00  0.00     0.000 A 
ATOM     20  C   UNL d   1      29.234  15.773 -25.012  0.00  0.00     0.019 A 
ATOM     21  C   UNL d   1      29.961  16.150 -24.948  0.00  0.00     0.080 A 
ENDBRANCH   1  12
TORSDOF 1
ENDMDL
MODEL 4
REMARK VINA RESULT:      -2.1      1.020      1.486
REMARK  1 active torsions:
REMARK  status: ('A' for Active; 'I' for Inactive)
REMARK    1  A    between atoms: N_2  and  C_1 
ROOT
ATOM      1  C   UNL d   1      32.966  19.308 -22.877  0.00  0.00     0.110 A 
ATOM      2  C   UNL d   1      32.704  19.129 -23.654  0.00  0.00     0.212 A 
ATOM      3  C   UNL d   1      33.234  18.700 -22.382  0.00  0.00     0.056 A 
ATOM      4  C   UNL d   1      32.716  18.352 -23.917  0.00  0.00     0.046 A 
ATOM      5  S   UNL d   1      33.240  17.911 -22.663  0.00  0.00    -0.085 SA
ATOM      6  C   UNL d   1      32.982  17.739 -23.427  0.00  0.00     0.033 A 
ATOM      7  O   UNL d   1      32.439  19.733 -24.145  0.00  0.00    -0.285 OA
ATOM      8  C   UNL d   1      32.459  18.172 -24.679  0.00  0.00     0.004 A 
ATOM      9  C   UNL d   1      32.991  16.962 -23.695  0.00  0.00     0.007 A 
ATOM     10  C   UNL d   1      32.466  17.399 -24.954  0.00  0.00     0.000 A 
ATOM     11  C   UNL d   1      32.733  16.790 -24.459  0.00  0.00     0.001 A 
ENDROOT
BRANCH   1  12
ATOM     12  N   UNL d   1      32.958  20.089 -22.604  0.00  0.00    -0.301 N 
ATOM     13  C   UNL d   1      32.673  20.260 -21.861  0.00  0.00     0.080 A 
ATOM     14  C   UNL d   1      32.663  21.041 -21.583  0.00  0.00     0.018 A 
ATOM     15  C   UNL d   1      32.376  21.212 -20.834  0.00  0.00     0.002 A 
ATOM     16  C   UNL d   1      32.944  21.647 -22.063  0.00  0.00     0.003 A 
ATOM     17  C   UNL d   1      32.367  21.991 -20.560  0.00  0.00     0.000 A 
ATOM     18  C   UNL d   1      32.648  22.598 -21.041  0.00  0.00     0.000 A 
ATOM     19  C   UNL d   1      32.938  22.425 -21.797  0.00  0.00     0.000 A 
ATOM     20  C   UNL d   1      33.238  21.479 -22.828  0.00  0.00     0.019 A 
ATOM     21  C   UNL d   1      33.241  20.700 -23.089  0.00  0.00     0.080 A 
ENDBRANCH   1  12
TORSDOF 1
ENDMDL
MODEL 5
REMARK VINA RESULT:      -1.9      1.105      4.298
REMARK  1 active torsions:
REMARK  status: ('A' for Active; 'I' for Inactive)
REMARK    1  A    between atoms: N_2  and  C_1 
ROOT
ATOM      1  C   UNL d   1      32.804  19.295 -23.178  0.00  0.00     0.110 A 
ATOM      2  C   UNL d   1      32.718  19.604 -22.403  0.00  0.00     0.212 A 
ATOM      3  C   UNL d   1      33.036  19.795 -23.798  0.00  0.00     0.056 A 
ATOM      4  C   UNL d   1      32.864  20.400 -22.264  0.00  0.00     0.046 A 
ATOM      5  S   UNL d   1      33.181  20.604 -23.643  0.00  0.00    -0.085 SA
ATOM      6  C   UNL d   1      33.096  20.905 -22.879  0.00  0.00     0.033 A 
ATOM      7  O   UNL d   1      32.488  19.109 -21.789  0.00  0.00    -0.285 OA
ATOM      8  C   UNL d   1      32.780  20.707 -21.504  0.00  0.00     0.004 A 
ATOM      9  C   UNL d   1      33.240  21.701 -22.736  0.00  0.00     0.007 A 
ATOM     10  C   UNL d   1      32.923  21.501 -21.354  0.00  0.00     0.000 A 
ATOM     11  C   UNL d   1      33.154  22.001 -21.973  0.00  0.00     0.001 A 
ENDROOT
BRANCH   1  12
ATOM     12  N   UNL d   1      32.659  18.494 -23.326  0.00  0.00    -0.301 N 
ATOM     13  C   UNL d   1      31.951  18.260 -23.653  0.00  0.00     0.080 A 
ATOM     14  C   UNL d   1      31.802  17.458 -23.803  0.00  0.00     0.018 A 
ATOM     15  C   UNL d   1      31.088  17.224 -24.132  0.00  0.00     0.002 A 
ATOM     16  C   UNL d   1      32.374  16.897 -23.619  0.00  0.00     0.003 A 
ATOM     17  C   UNL d   1      30.941  16.425 -24.281  0.00  0.00     0.000 A 
ATOM     18  C   UNL d   1      31.515  15.862 -24.097  0.00  0.00     0.000 A 
ATOM     19  C   UNL d   1      32.235  16.099 -23.764  0.00  0.00     0.000 A 
ATOM     20  C   UNL d   1      33.103  17.130 -23.284  0.00  0.00     0.019 A 
ATOM     21  C   UNL d   1      33.236  17.928 -23.141  0.00  0.00     0.080 A 
ENDBRANCH   1  12
TORSDOF 1
ENDMDL
MODEL 6
REMARK VINA RESULT:      -1.3      1.674      2.725
REMARK  1 active torsions:
REMARK  status: ('A' for Active; 'I' for Inactive)
REMARK    1  A    between atoms: N_2  and  C_1 
ROOT
ATOM      1  C   UNL d   1      33.239  20.221 -22.536  0.00  0.00     0.110 A 
ATOM      2  C   UNL d   1      33.239  19.408 -22.328  0.00  0.00     0.212 A 
ATOM      3  C   UNL d   1      33.238  20.443 -23.335  0.00  0.00     0.056 A 
ATOM      4  C   UNL d   1      33.240  18.839 -22.919  0.00  0.00     0.046 A 
ATOM      5  S   UNL d   1      33.239  19.852 -23.927  0.00  0.00    -0.085 SA
ATOM      6  C   UNL d   1      33.239  19.053 -23.720  0.00  0.00     0.033 A 
ATOM      7  O   UNL d   1      33.240  19.189 -21.536  0.00  0.00    -0.285 OA
ATOM      8  C   UNL d   1      33.240  18.039 -22.719  0.00  0.00     0.004 A 
ATOM      9  C   UNL d   1      33.239  18.479 -24.308  0.00  0.00     0.007 A 
ATOM     10  C   UNL d   1      33.240  17.461 -23.301  0.00  0.00     0.000 A 
ATOM     11  C   UNL d   1      33.240  17.682 -24.100  0.00  0.00     0.001 A 
ENDROOT
BRANCH   1  12
ATOM     12  N   UNL d   1      33.238  20.802 -21.946  0.00  0.00    -0.301 N 
ATOM     13  C   UNL d   1      33.237  21.591 -22.149  0.00  0.00     0.080 A 
ATOM     14  C   UNL d   1      33.237  22.176 -21.561  0.00  0.00     0.018 A 
ATOM     15  C   UNL d   1      33.236  22.970 -21.766  0.00  0.00     0.002 A 
ATOM     16  C   UNL d   1      33.238  21.956 -20.769  0.00  0.00     0.003 A 
ATOM     17  C   UNL d   1      33.236  23.551 -21.180  0.00  0.00     0.000 A 
ATOM     18  C   UNL d   1      33.237  23.331 -20.385  0.00  0.00     0.000 A 
ATOM     19  C   UNL d   1      33.238  22.530 -20.178  0.00  0.00     0.000 A 
ATOM     20  C   UNL d   1      33.239  21.149 -20.554  0.00  0.00     0.019 A 
ATOM     21  C   UNL d   1      33.239  20.581 -21.147  0.00  0.00     0.080 A 
ENDBRANCH   1  12
TORSDOF 1
ENDMDL
MODEL 7
REMARK VINA RESULT:      -1.3      2.294      3.564
REMARK  1 active torsions:
REMARK  status: ('A' for Active; 'I' for Inactive)
REMARK    1  A    between atoms: N_2  and  C_1 
ROOT
ATOM      1  C   UNL d   1      30.155  16.407 -23.787  0.00  0.00     0.110 A 
ATOM      2  C   UNL d   1      29.427  16.578 -24.165  0.00  0.00     0.212 A 
ATOM      3  C   UNL d   1      30.167  15.919 -23.117  0.00  0.00     0.056 A 
ATOM      4  C   UNL d   1      28.730  16.259 -23.869  0.00  0.00     0.046 A 
ATOM      5  S   UNL d   1      29.450  15.600 -22.825  0.00  0.00    -0.085 SA
ATOM      6  C   UNL d   1      28.735  15.770 -23.200  0.00  0.00     0.033 A 
ATOM      7  O   UNL d   1      29.415  17.062 -24.830  0.00  0.00    -0.285 OA
ATOM      8  C   UNL d   1      28.013  16.425 -24.239  0.00  0.00     0.004 A 
ATOM      9  C   UNL d   1      28.036  15.454 -22.907  0.00  0.00     0.007 A 
ATOM     10  C   UNL d   1      27.310  16.112 -23.952  0.00  0.00     0.000 A 
ATOM     11  C   UNL d   1      27.322  15.623 -23.282  0.00  0.00     0.001 A 
ENDROOT
BRANCH   1  12
ATOM     12  N   UNL d   1      30.861  16.724 -24.079  0.00  0.00    -0.301 N 
ATOM     13  C   UNL d   1      31.126  17.447 -23.813  0.00  0.00     0.080 A 
ATOM     14  C   UNL d   1      31.833  17.769 -24.104  0.00  0.00     0.018 A 
ATOM     15  C   UNL d   1      32.098  18.497 -23.836  0.00  0.00     0.002 A 
ATOM     16  C   UNL d   1      32.269  17.353 -24.663  0.00  0.00     0.003 A 
ATOM     17  C   UNL d   1      32.803  18.816 -24.126  0.00  0.00     0.000 A 
ATOM     18  C   UNL d   1      33.240  18.399 -24.688  0.00  0.00     0.000 A 
ATOM     19  C   UNL d   1      32.972  17.664 -24.958  0.00  0.00     0.000 A 
ATOM     20  C   UNL d   1      32.003  16.611 -24.940  0.00  0.00     0.019 A 
ATOM     21  C   UNL d   1      31.301  16.305 -24.643  0.00  0.00     0.080 A 
ENDBRANCH   1  12
TORSDOF 1
ENDMDL
MODEL 8
REMARK VINA RESULT:      -0.6      2.808      5.340
REMARK  1 active torsions:
REMARK  status: ('A' for Active; 'I' for Inactive)
REMARK    1  A    between atoms: N_2  and  C_1 
ROOT
ATOM      1  C   UNL d   1      33.182  21.864 -21.738  0.00  0.00     0.110 A 
ATOM      2  C   UNL d   1      33.201  21.687 -20.918  0.00  0.00     0.212 A 
ATOM      3  C   UNL d   1      33.150  22.653 -21.989  0.00  0.00     0.056 A 
ATOM      4  C   UNL d   1      33.186  22.298 -20.371  0.00  0.00     0.046 A 
ATOM      5  S   UNL d   1      33.136  23.267 -21.420  0.00  0.00    -0.085 SA
ATOM      6  C   UNL d   1      33.154  23.090 -20.615  0.00  0.00     0.033 A 
ATOM      7  O   UNL d   1      33.232  20.904 -20.670  0.00  0.00    -0.285 OA
ATOM      8  C   UNL d   1      33.204  22.129 -19.565  0.00  0.00     0.004 A 
ATOM      9  C   UNL d   1      33.140  23.698 -20.063  0.00  0.00     0.007 A 
ATOM     10  C   UNL d   1      33.190  22.731 -19.008  0.00  0.00     0.000 A 
ATOM     11  C   UNL d   1      33.158  23.521 -19.259  0.00  0.00     0.001 A 
ENDROOT
BRANCH   1  12
ATOM     12  N   UNL d   1      33.197  21.253 -22.297  0.00  0.00    -0.301 N 
ATOM     13  C   UNL d   1      33.198  21.426 -23.093  0.00  0.00     0.080 A 
ATOM     14  C   UNL d   1      33.212  20.818 -23.656  0.00  0.00     0.018 A 
ATOM     15  C   UNL d   1      33.213  20.994 -24.456  0.00  0.00     0.002 A 
ATOM     16  C   UNL d   1      33.225  20.034 -23.407  0.00  0.00     0.003 A 
ATOM     17  C   UNL d   1      33.227  20.386 -25.016  0.00  0.00     0.000 A 
ATOM     18  C   UNL d   1      33.240  19.600 -24.766  0.00  0.00     0.000 A 
ATOM     19  C   UNL d   1      33.239  19.423 -23.958  0.00  0.00     0.000 A 
ATOM     20  C   UNL d   1      33.224  19.849 -22.592  0.00  0.00     0.019 A 
ATOM     21  C   UNL d   1      33.210  20.463 -22.046  0.00  0.00     0.080 A 
ENDBRANCH   1  12
TORSDOF 1
ENDMDL
