MODEL 1
REMARK VINA RESULT:       3.6      0.000      0.000
REMARK  1 active torsions:
REMARK  status: ('A' for Active; 'I' for Inactive)
REMARK    1  A    between atoms: N_3  and  C_1 
ROOT
ATOM      1  C   UNL d   1      46.319 -19.425  42.605  0.00  0.00     0.158 A 
ATOM      2  C   UNL d   1      46.386 -18.624  42.407  0.00  0.00     0.103 A 
ATOM      3  C   UNL d   1      46.290 -18.039  42.983  0.00  0.00     0.104 C 
ATOM      4  N   UNL d   1      46.193 -17.462  43.560  0.00  0.00    -0.191 NA
ATOM      5  N   UNL d   1      46.416 -20.003  42.024  0.00  0.00    -0.226 NA
ATOM      6  C   UNL d   1      46.550 -18.404  41.629  0.00  0.00     0.015 A 
ATOM      7  C   UNL d   1      46.580 -19.783  41.249  0.00  0.00     0.101 A 
ATOM      8  C   UNL d   1      46.647 -18.982  41.050  0.00  0.00     0.021 A 
ENDROOT
BRANCH   1   9
ATOM      9  N   UNL d   1      46.155 -19.641  43.380  0.00  0.00    -0.286 N 
ATOM     10  C   UNL d   1      45.496 -20.114  43.545  0.00  0.00     0.102 A 
ATOM     11  C   UNL d   1      45.333 -20.329  44.318  0.00  0.00     0.118 A 
ATOM     12  N   UNL d   1      45.819 -20.081  44.930  0.00  0.00    -0.239 NA
ATOM     13  C   UNL d   1      46.475 -19.610  44.766  0.00  0.00     0.118 A 
ATOM     14  C   UNL d   1      46.645 -19.390  43.990  0.00  0.00     0.102 A 
ENDBRANCH   1   9
TORSDOF 1
ENDMDL
