MODEL 1
REMARK VINA RESULT:      -7.8      0.000      0.000
REMARK  4 active torsions:
REMARK  status: ('A' for Active; 'I' for Inactive)
REMARK    1  A    between atoms: S_4  and  C_3 
REMARK    2  A    between atoms: C_12  and  S_4 
REMARK    3  A    between atoms: C_23  and  N_6 
REMARK    4  A    between atoms: C_27  and  C_23 
ROOT
ATOM      1  C   UNL d   1     -48.589  13.506  23.278  0.00  0.00     0.155 A 
ATOM      2  C   UNL d   1     -48.130  14.104  22.955  0.00  0.00     0.092 A 
ATOM      3  C   UNL d   1     -47.048  13.189  22.820  0.00  0.00     0.124 A 
ATOM      4  N   UNL d   1     -49.365  13.660  23.510  0.00  0.00    -0.210 NA
ATOM      5  N   UNL d   1     -48.280  12.753  23.372  0.00  0.00    -0.273 N 
ATOM      6  C   UNL d   1     -47.504  12.594  23.141  0.00  0.00     0.181 A 
ATOM      7  C   UNL d   1     -48.441  14.863  22.861  0.00  0.00     0.269 A 
ATOM      8  N   UNL d   1     -49.215  15.017  23.092  0.00  0.00    -0.258 N 
ATOM      9  C   UNL d   1     -47.356  13.951  22.723  0.00  0.00     0.022 A 
ATOM     10  C   UNL d   1     -49.677  14.416  23.417  0.00  0.00     0.152 A 
ATOM     11  N   UNL d   1     -47.195  11.832  23.237  0.00  0.00    -0.128 N 
ATOM     12  C   UNL d   1     -49.525  15.779  22.997  0.00  0.00     0.084 A 
ATOM     13  O   UNL d   1     -47.974  15.460  22.535  0.00  0.00    -0.266 OA
ATOM     14  C   UNL d   1     -50.447  14.576  23.646  0.00  0.00     0.038 A 
ATOM     15  C   UNL d   1     -50.297  15.922  23.231  0.00  0.00     0.019 A 
ATOM     16  C   UNL d   1     -50.759  15.320  23.555  0.00  0.00     0.005 A 
ENDROOT
BRANCH   3  17
ATOM     17  S   UNL d   1     -46.266  13.030  22.587  0.00  0.00     0.213 S 
ATOM     18  O   UNL d   1     -46.529  12.870  21.827  0.00  0.00    -0.217 OA
ATOM     19  O   UNL d   1     -46.008  13.195  23.362  0.00  0.00    -0.217 OA
BRANCH  17  20
ATOM     20  C   UNL d   1     -45.484  12.874  22.364  0.00  0.00     0.088 A 
ATOM     21  C   UNL d   1     -45.088  12.229  22.694  0.00  0.00     0.011 A 
ATOM     22  C   UNL d   1     -44.315  12.073  22.475  0.00  0.00     0.001 A 
ATOM     23  C   UNL d   1     -43.918  11.429  22.804  0.00  0.00     0.000 C 
ATOM     24  C   UNL d   1     -43.931  12.560  21.924  0.00  0.00     0.000 A 
ATOM     25  C   UNL d   1     -44.327  13.204  21.594  0.00  0.00     0.001 A 
ATOM     26  C   UNL d   1     -43.147  12.399  21.703  0.00  0.00     0.000 C 
ATOM     27  C   UNL d   1     -45.111  13.364  21.815  0.00  0.00     0.011 A 
ENDBRANCH  17  20
ENDBRANCH   3  17
BRANCH   5  28
ATOM     28  C   UNL d   1     -48.748  12.157  23.698  0.00  0.00     0.083 C 
BRANCH  28  29
ATOM     29  C   UNL d   1     -49.032  11.551  23.214  0.00  0.00     0.019 C 
ATOM     30  C   UNL d   1     -49.646  11.065  23.475  0.00  0.00     0.002 C 
ENDBRANCH  28  29
ENDBRANCH   5  28
TORSDOF 4
ENDMDL
MODEL 2
REMARK VINA RESULT:      -6.6      7.628      9.547
REMARK  4 active torsions:
REMARK  status: ('A' for Active; 'I' for Inactive)
REMARK    1  A    between atoms: S_4  and  C_3 
REMARK    2  A    between atoms: C_12  and  S_4 
REMARK    3  A    between atoms: C_23  and  N_6 
REMARK    4  A    between atoms: C_27  and  C_23 
ROOT
ATOM      1  C   UNL d   1     -39.379  14.464  20.987  0.00  0.00     0.155 A 
ATOM      2  C   UNL d   1     -38.846  13.888  20.748  0.00  0.00     0.092 A 
ATOM      3  C   UNL d   1     -39.052  14.271  19.392  0.00  0.00     0.124 A 
ATOM      4  N   UNL d   1     -39.546  14.565  21.787  0.00  0.00    -0.210 NA
ATOM      5  N   UNL d   1     -39.747  14.942  20.432  0.00  0.00    -0.273 N 
ATOM      6  C   UNL d   1     -39.582  14.844  19.630  0.00  0.00     0.181 A 
ATOM      7  C   UNL d   1     -38.475  13.406  21.307  0.00  0.00     0.269 A 
ATOM      8  N   UNL d   1     -38.642  13.507  22.106  0.00  0.00    -0.258 N 
ATOM      9  C   UNL d   1     -38.678  13.787  19.949  0.00  0.00     0.022 A 
ATOM     10  C   UNL d   1     -39.178  14.086  22.346  0.00  0.00     0.152 A 
ATOM     11  N   UNL d   1     -39.956  15.329  19.072  0.00  0.00    -0.128 N 
ATOM     12  C   UNL d   1     -38.268  13.023  22.664  0.00  0.00     0.084 A 
ATOM     13  O   UNL d   1     -37.940  12.829  21.059  0.00  0.00    -0.266 OA
ATOM     14  C   UNL d   1     -39.340  14.181  23.144  0.00  0.00     0.038 A 
ATOM     15  C   UNL d   1     -38.442  13.131  23.458  0.00  0.00     0.019 A 
ATOM     16  C   UNL d   1     -38.978  13.711  23.698  0.00  0.00     0.005 A 
ENDROOT
BRANCH   3  17
ATOM     17  S   UNL d   1     -38.885  14.172  18.584  0.00  0.00     0.213 S 
ATOM     18  O   UNL d   1     -38.273  14.713  18.648  0.00  0.00    -0.217 OA
ATOM     19  O   UNL d   1     -39.511  13.624  18.529  0.00  0.00    -0.217 OA
BRANCH  17  20
ATOM     20  C   UNL d   1     -38.727  14.067  17.779  0.00  0.00     0.088 A 
ATOM     21  C   UNL d   1     -38.515  14.717  17.317  0.00  0.00     0.011 A 
ATOM     22  C   UNL d   1     -38.358  14.615  16.520  0.00  0.00     0.001 A 
ATOM     23  C   UNL d   1     -38.147  15.265  16.057  0.00  0.00     0.000 C 
ATOM     24  C   UNL d   1     -38.411  13.861  16.177  0.00  0.00     0.000 A 
ATOM     25  C   UNL d   1     -38.623  13.211  16.639  0.00  0.00     0.001 A 
ATOM     26  C   UNL d   1     -38.252  13.760  15.369  0.00  0.00     0.000 C 
ATOM     27  C   UNL d   1     -38.783  13.312  17.447  0.00  0.00     0.011 A 
ENDBRANCH  17  20
ENDBRANCH   3  17
BRANCH   5  28
ATOM     28  C   UNL d   1     -40.281  15.519  20.681  0.00  0.00     0.083 C 
BRANCH  28  29
ATOM     29  C   UNL d   1     -41.089  15.412  20.547  0.00  0.00     0.019 C 
ATOM     30  C   UNL d   1     -41.639  15.921  20.893  0.00  0.00     0.002 C 
ENDBRANCH  28  29
ENDBRANCH   5  28
TORSDOF 4
ENDMDL
MODEL 3
REMARK VINA RESULT:      -6.4      1.349      2.381
REMARK  4 active torsions:
REMARK  status: ('A' for Active; 'I' for Inactive)
REMARK    1  A    between atoms: S_4  and  C_3 
REMARK    2  A    between atoms: C_12  and  S_4 
REMARK    3  A    between atoms: C_23  and  N_6 
REMARK    4  A    between atoms: C_27  and  C_23 
ROOT
ATOM      1  C   UNL d   1     -48.244  13.203  23.131  0.00  0.00     0.155 A 
ATOM      2  C   UNL d   1     -48.173  12.390  23.218  0.00  0.00     0.092 A 
ATOM      3  C   UNL d   1     -46.761  12.507  23.078  0.00  0.00     0.124 A 
ATOM      4  N   UNL d   1     -48.988  13.557  23.156  0.00  0.00    -0.210 NA
ATOM      5  N   UNL d   1     -47.578  13.666  23.017  0.00  0.00    -0.273 N 
ATOM      6  C   UNL d   1     -46.832  13.315  22.991  0.00  0.00     0.181 A 
ATOM      7  C   UNL d   1     -48.844  11.923  23.333  0.00  0.00     0.269 A 
ATOM      8  N   UNL d   1     -49.587  12.277  23.358  0.00  0.00    -0.258 N 
ATOM      9  C   UNL d   1     -47.431  12.036  23.193  0.00  0.00     0.022 A 
ATOM     10  C   UNL d   1     -49.658  13.094  23.270  0.00  0.00     0.152 A 
ATOM     11  N   UNL d   1     -46.161  13.787  22.876  0.00  0.00    -0.128 N 
ATOM     12  C   UNL d   1     -50.258  11.806  23.473  0.00  0.00     0.084 A 
ATOM     13  O   UNL d   1     -48.765  11.106  23.420  0.00  0.00    -0.266 OA
ATOM     14  C   UNL d   1     -50.401  13.439  23.297  0.00  0.00     0.038 A 
ATOM     15  C   UNL d   1     -50.993  12.168  23.497  0.00  0.00     0.019 A 
ATOM     16  C   UNL d   1     -51.064  12.985  23.409  0.00  0.00     0.005 A 
ENDROOT
BRANCH   3  17
ATOM     17  S   UNL d   1     -46.010  12.153  23.052  0.00  0.00     0.213 S 
ATOM     18  O   UNL d   1     -45.780  12.602  23.698  0.00  0.00    -0.217 OA
ATOM     19  O   UNL d   1     -46.253  11.701  22.395  0.00  0.00    -0.217 OA
BRANCH  17  20
ATOM     20  C   UNL d   1     -45.264  11.795  23.018  0.00  0.00     0.088 A 
ATOM     21  C   UNL d   1     -45.149  11.060  23.373  0.00  0.00     0.011 A 
ATOM     22  C   UNL d   1     -44.412  10.704  23.340  0.00  0.00     0.001 A 
ATOM     23  C   UNL d   1     -44.296   9.969  23.696  0.00  0.00     0.000 C 
ATOM     24  C   UNL d   1     -43.783  11.081  22.951  0.00  0.00     0.000 A 
ATOM     25  C   UNL d   1     -43.899  11.817  22.596  0.00  0.00     0.001 A 
ATOM     26  C   UNL d   1     -43.037  10.719  22.919  0.00  0.00     0.000 C 
ATOM     27  C   UNL d   1     -44.645  12.179  22.628  0.00  0.00     0.011 A 
ENDBRANCH  17  20
ENDBRANCH   3  17
BRANCH   5  28
ATOM     28  C   UNL d   1     -47.658  14.482  22.930  0.00  0.00     0.083 C 
BRANCH  28  29
ATOM     29  C   UNL d   1     -47.794  14.801  22.181  0.00  0.00     0.019 C 
ATOM     30  C   UNL d   1     -47.657  15.602  22.039  0.00  0.00     0.002 C 
ENDBRANCH  28  29
ENDBRANCH   5  28
TORSDOF 4
ENDMDL
