MODEL 1
REMARK VINA RESULT:      -3.9      0.000      0.000
REMARK  7 active torsions:
REMARK  status: ('A' for Active; 'I' for Inactive)
REMARK    1  A    between atoms: C_17  and  N_1 
REMARK       I    between atoms: C_4  and  N_7 
REMARK    2  A    between atoms: C_8  and  C_4 
REMARK    3  A    between atoms: N_7  and  C_26 
REMARK    4  A    between atoms: C_9  and  N_7 
REMARK    5  A    between atoms: C_27  and  C_17 
REMARK    6  A    between atoms: C_26  and  C_28 
REMARK    7  A    between atoms: C_28  and  C_27 
ROOT
ATOM      1  C   UNL d   1      58.322  -1.763  29.710  0.00  0.00     0.287 C 
ATOM      2  N   UNL d   1      58.428  -0.944  29.743  0.00  0.00    -0.272 N 
ATOM      3  O   UNL d   1      57.657  -2.099  30.028  0.00  0.00    -0.264 OA
ENDROOT
BRANCH   2   4
ATOM      4  C   UNL d   1      57.865  -0.481  30.094  0.00  0.00     0.083 C 
BRANCH   4   5
ATOM      5  C   UNL d   1      57.998  -0.167  30.850  0.00  0.00     0.021 C 
BRANCH   5   6
ATOM      6  C   UNL d   1      57.377   0.136  31.281  0.00  0.00     0.021 C 
BRANCH   6   7
ATOM      7  C   UNL d   1      57.517   0.439  32.035  0.00  0.00     0.086 C 
BRANCH   7   8
ATOM      8  N   UNL d   1      56.886   0.480  32.585  0.00  0.00    -0.240 N 
ATOM      9  C   UNL d   1      56.118   0.519  32.401  0.00  0.00     0.267 A 
ATOM     10  C   UNL d   1      55.685   0.551  33.097  0.00  0.00     0.061 A 
ATOM     11  O   UNL d   1      55.779   0.528  31.610  0.00  0.00    -0.267 OA
ATOM     12  C   UNL d   1      54.886   0.596  33.243  0.00  0.00     0.005 A 
ATOM     13  C   UNL d   1      56.235   0.529  33.729  0.00  0.00     0.061 A 
ATOM     14  C   UNL d   1      54.618   0.620  34.028  0.00  0.00     0.000 A 
ATOM     15  C   UNL d   1      55.167   0.598  34.660  0.00  0.00     0.000 A 
ATOM     16  C   UNL d   1      55.974   0.552  34.493  0.00  0.00     0.005 A 
ATOM     17  C   UNL d   1      56.982   0.485  33.395  0.00  0.00     0.267 A 
ATOM     18  O   UNL d   1      57.715   0.451  33.836  0.00  0.00    -0.267 OA
ENDBRANCH   7   8
ENDBRANCH   6   7
ENDBRANCH   5   6
ENDBRANCH   4   5
ENDBRANCH   2   4
BRANCH   2  19
ATOM     19  C   UNL d   1      59.104  -0.592  29.421  0.00  0.00     0.067 A 
ATOM     20  C   UNL d   1      59.857  -0.792  29.698  0.00  0.00     0.018 A 
ATOM     21  C   UNL d   1      60.533  -0.440  29.376  0.00  0.00     0.013 A 
ATOM     22  C   UNL d   1      60.455   0.113  28.776  0.00  0.00     0.058 A 
ATOM     23  C   UNL d   1      59.702   0.310  28.503  0.00  0.00     0.013 A 
ATOM     24 CL   UNL d   1      61.131   0.463  28.457  0.00  0.00    -0.082 Cl
ATOM     25  C   UNL d   1      59.026  -0.039  28.822  0.00  0.00     0.018 A 
ENDBRANCH   2  19
BRANCH   1  26
ATOM     26  C   UNL d   1      58.892  -2.232  29.355  0.00  0.00     0.156 A 
ATOM     27  O   UNL d   1      59.683  -2.395  29.529  0.00  0.00    -0.300 OA
ATOM     28  C   UNL d   1      59.982  -2.915  28.966  0.00  0.00     0.123 A 
ATOM     29  C   UNL d   1      59.396  -3.070  28.459  0.00  0.00     0.029 A 
ATOM     30  C   UNL d   1      58.701  -2.657  28.675  0.00  0.00     0.032 A 
ENDBRANCH   1  26
TORSDOF 7
ENDMDL
