MODEL 1
REMARK VINA RESULT:      46.5      0.000      0.000
REMARK  5 active torsions:
REMARK  status: ('A' for Active; 'I' for Inactive)
REMARK    1  A    between atoms: C_11  and  N_1 
REMARK    2  A    between atoms: C_5  and  C_3 
REMARK       I    between atoms: N_14  and  C_5 
REMARK    3  A    between atoms: N_7  and  C_18 
REMARK    4  A    between atoms: C_17  and  N_14 
REMARK    5  A    between atoms: C_18  and  C_17 
ROOT
ATOM      1  C   UNL d   1      13.043  13.521  -4.671  0.00  0.00     0.281 C 
ATOM      2  O   UNL d   1      12.892  13.093  -5.358  0.00  0.00    -0.265 OA
ATOM      3  N   UNL d   1      13.028  13.142  -3.945  0.00  0.00    -0.205 NA
ENDROOT
BRANCH   1   4
ATOM      4  C   UNL d   1      13.210  14.333  -4.718  0.00  0.00     0.080 A 
ATOM      5  C   UNL d   1      13.844  14.718  -4.358  0.00  0.00     0.088 A 
ATOM      6  N   UNL d   1      13.792  15.519  -4.552  0.00  0.00    -0.273 N 
ATOM      7  C   UNL d   1      13.133  15.628  -5.028  0.00  0.00     0.265 A 
ATOM      8  C   UNL d   1      12.769  14.892  -5.132  0.00  0.00     0.067 A 
ATOM      9  O   UNL d   1      12.909  16.367  -5.328  0.00  0.00    -0.267 OA
BRANCH   6  10
ATOM     10  C   UNL d   1      14.315  16.110  -4.310  0.00  0.00     0.067 A 
ATOM     11  C   UNL d   1      14.798  16.078  -3.640  0.00  0.00     0.018 A 
ATOM     12  C   UNL d   1      15.229  16.780  -3.607  0.00  0.00     0.002 A 
ATOM     13  C   UNL d   1      15.007  17.239  -4.256  0.00  0.00     0.002 A 
ATOM     14  C   UNL d   1      14.448  16.832  -4.689  0.00  0.00     0.018 A 
ENDBRANCH   6  10
ENDBRANCH   1   4
BRANCH   3  15
ATOM     15  C   UNL d   1      12.863  12.340  -3.900  0.00  0.00     0.121 C 
BRANCH  15  16
ATOM     16  C   UNL d   1      13.401  11.820  -3.563  0.00  0.00     0.101 C 
BRANCH  16  17
ATOM     17  N   UNL d   1      13.536  11.852  -2.745  0.00  0.00    -0.301 N 
ATOM     18  C   UNL d   1      14.307  11.816  -2.459  0.00  0.00     0.080 A 
ATOM     19  C   UNL d   1      14.436  11.848  -1.643  0.00  0.00     0.018 A 
ATOM     20  C   UNL d   1      15.198  11.813  -1.347  0.00  0.00     0.002 A 
ATOM     21  C   UNL d   1      13.803  11.915  -1.122  0.00  0.00     0.003 A 
ATOM     22  C   UNL d   1      15.334  11.845  -0.542  0.00  0.00     0.000 A 
ATOM     23  C   UNL d   1      14.699  11.912  -0.015  0.00  0.00     0.000 A 
ATOM     24  C   UNL d   1      13.929  11.948  -0.307  0.00  0.00     0.000 A 
ATOM     25  C   UNL d   1      13.032  11.951  -1.419  0.00  0.00     0.019 A 
ATOM     26  C   UNL d   1      12.896  11.919  -2.235  0.00  0.00     0.080 A 
ENDBRANCH  16  17
ENDBRANCH  15  16
ENDBRANCH   3  15
TORSDOF 5
ENDMDL
MODEL 2
REMARK VINA RESULT:      48.8      1.173      4.541
REMARK  5 active torsions:
REMARK  status: ('A' for Active; 'I' for Inactive)
REMARK    1  A    between atoms: C_11  and  N_1 
REMARK    2  A    between atoms: C_5  and  C_3 
REMARK       I    between atoms: N_14  and  C_5 
REMARK    3  A    between atoms: N_7  and  C_18 
REMARK    4  A    between atoms: C_17  and  N_14 
REMARK    5  A    between atoms: C_18  and  C_17 
ROOT
ATOM      1  C   UNL d   1      13.209  12.412  -3.700  0.00  0.00     0.281 C 
ATOM      2  O   UNL d   1      13.191  11.783  -4.231  0.00  0.00    -0.265 OA
ATOM      3  N   UNL d   1      13.068  13.174  -3.968  0.00  0.00    -0.205 NA
ENDROOT
BRANCH   1   4
ATOM      4  C   UNL d   1      13.370  12.273  -2.897  0.00  0.00     0.080 A 
ATOM      5  C   UNL d   1      14.110  12.314  -2.537  0.00  0.00     0.088 A 
ATOM      6  N   UNL d   1      14.008  12.134  -1.738  0.00  0.00    -0.273 N 
ATOM      7  C   UNL d   1      13.213  11.983  -1.605  0.00  0.00     0.265 A 
ATOM      8  C   UNL d   1      12.814  12.069  -2.324  0.00  0.00     0.067 A 
ATOM      9  O   UNL d   1      12.909  11.784  -0.860  0.00  0.00    -0.267 OA
BRANCH   6  10
ATOM     10  C   UNL d   1      14.606  12.110  -1.169  0.00  0.00     0.067 A 
ATOM     11  C   UNL d   1      14.515  11.854  -0.388  0.00  0.00     0.018 A 
ATOM     12  C   UNL d   1      15.248  11.922  -0.015  0.00  0.00     0.002 A 
ATOM     13  C   UNL d   1      15.783  12.219  -0.569  0.00  0.00     0.002 A 
ATOM     14  C   UNL d   1      15.394  12.335  -1.277  0.00  0.00     0.018 A 
ENDBRANCH   6  10
ENDBRANCH   1   4
BRANCH   3  15
ATOM     15  C   UNL d   1      12.910  13.311  -4.761  0.00  0.00     0.121 C 
BRANCH  15  16
ATOM     16  C   UNL d   1      12.786  14.073  -5.037  0.00  0.00     0.101 C 
BRANCH  16  17
ATOM     17  N   UNL d   1      13.341  14.665  -4.856  0.00  0.00    -0.301 N 
ATOM     18  C   UNL d   1      13.439  14.905  -4.075  0.00  0.00     0.080 A 
ATOM     19  C   UNL d   1      13.992  15.494  -3.901  0.00  0.00     0.018 A 
ATOM     20  C   UNL d   1      14.098  15.740  -3.128  0.00  0.00     0.002 A 
ATOM     21  C   UNL d   1      14.440  15.836  -4.499  0.00  0.00     0.003 A 
ATOM     22  C   UNL d   1      14.643  16.322  -2.948  0.00  0.00     0.000 A 
ATOM     23  C   UNL d   1      15.095  16.668  -3.548  0.00  0.00     0.000 A 
ATOM     24  C   UNL d   1      14.993  16.424  -4.329  0.00  0.00     0.000 A 
ATOM     25  C   UNL d   1      14.334  15.589  -5.281  0.00  0.00     0.019 A 
ATOM     26  C   UNL d   1      13.781  14.999  -5.463  0.00  0.00     0.080 A 
ENDBRANCH  16  17
ENDBRANCH  15  16
ENDBRANCH   3  15
TORSDOF 5
ENDMDL
MODEL 3
REMARK VINA RESULT:      49.5      1.657      5.763
REMARK  5 active torsions:
REMARK  status: ('A' for Active; 'I' for Inactive)
REMARK    1  A    between atoms: C_11  and  N_1 
REMARK    2  A    between atoms: C_5  and  C_3 
REMARK       I    between atoms: N_14  and  C_5 
REMARK    3  A    between atoms: N_7  and  C_18 
REMARK    4  A    between atoms: C_17  and  N_14 
REMARK    5  A    between atoms: C_18  and  C_17 
ROOT
ATOM      1  C   UNL d   1      13.413  14.438  -4.642  0.00  0.00     0.281 C 
ATOM      2  O   UNL d   1      12.771  14.513  -5.153  0.00  0.00    -0.265 OA
ATOM      3  N   UNL d   1      14.000  15.009  -4.642  0.00  0.00    -0.205 NA
ENDROOT
BRANCH   1   4
ATOM      4  C   UNL d   1      13.461  13.786  -4.131  0.00  0.00     0.080 A 
ATOM      5  C   UNL d   1      13.862  13.765  -3.410  0.00  0.00     0.088 A 
ATOM      6  N   UNL d   1      13.762  13.010  -3.093  0.00  0.00    -0.273 N 
ATOM      7  C   UNL d   1      13.305  12.568  -3.611  0.00  0.00     0.265 A 
ATOM      8  C   UNL d   1      13.116  13.049  -4.257  0.00  0.00     0.067 A 
ATOM      9  O   UNL d   1      13.093  11.779  -3.468  0.00  0.00    -0.267 OA
BRANCH   6  10
ATOM     10  C   UNL d   1      14.071  12.744  -2.374  0.00  0.00     0.067 A 
ATOM     11  C   UNL d   1      13.804  12.085  -1.951  0.00  0.00     0.018 A 
ATOM     12  C   UNL d   1      14.264  12.021  -1.271  0.00  0.00     0.002 A 
ATOM     13  C   UNL d   1      14.811  12.639  -1.280  0.00  0.00     0.002 A 
ATOM     14  C   UNL d   1      14.696  13.084  -1.954  0.00  0.00     0.018 A 
ENDBRANCH   6  10
ENDBRANCH   1   4
BRANCH   3  15
ATOM     15  C   UNL d   1      13.952  15.653  -5.148  0.00  0.00     0.121 C 
BRANCH  15  16
ATOM     16  C   UNL d   1      14.427  16.312  -5.034  0.00  0.00     0.101 C 
BRANCH  16  17
ATOM     17  N   UNL d   1      14.203  17.036  -5.373  0.00  0.00    -0.301 N 
ATOM     18  C   UNL d   1      14.608  17.723  -5.168  0.00  0.00     0.080 A 
ATOM     19  C   UNL d   1      14.381  18.442  -5.509  0.00  0.00     0.018 A 
ATOM     20  C   UNL d   1      14.776  19.130  -5.313  0.00  0.00     0.002 A 
ATOM     21  C   UNL d   1      13.758  18.471  -6.046  0.00  0.00     0.003 A 
ATOM     22  C   UNL d   1      14.557  19.844  -5.645  0.00  0.00     0.000 A 
ATOM     23  C   UNL d   1      13.931  19.877  -6.186  0.00  0.00     0.000 A 
ATOM     24  C   UNL d   1      13.529  19.186  -6.387  0.00  0.00     0.000 A 
ATOM     25  C   UNL d   1      13.358  17.776  -6.245  0.00  0.00     0.019 A 
ATOM     26  C   UNL d   1      13.581  17.052  -5.908  0.00  0.00     0.080 A 
ENDBRANCH  16  17
ENDBRANCH  15  16
ENDBRANCH   3  15
TORSDOF 5
ENDMDL
