MODEL 1
REMARK VINA RESULT:      16.8      0.000      0.000
REMARK  7 active torsions:
REMARK  status: ('A' for Active; 'I' for Inactive)
REMARK    1  A    between atoms: C_11  and  C_4 
REMARK    2  A    between atoms: N_12  and  C_5 
REMARK    3  A    between atoms: C_10  and  C_8 
REMARK    4  A    between atoms: C_15  and  N_12 
REMARK    5  A    between atoms: N_13  and  C_19 
REMARK    6  A    between atoms: C_14  and  C_15 
REMARK    7  A    between atoms: C_19  and  C_14 
ROOT
ATOM      1  C   UNL d   1     -41.629-121.714 -52.559  0.00  0.00     0.168 A 
ATOM      2  N   UNL d   1     -41.476-122.122 -51.843  0.00  0.00    -0.184 N 
ATOM      3  N   UNL d   1     -41.725-122.133 -53.253  0.00  0.00    -0.231 NA
ATOM      4  C   UNL d   1     -41.682-120.907 -52.562  0.00  0.00     0.057 A 
ATOM      5  C   UNL d   1     -41.428-122.927 -51.863  0.00  0.00     0.217 A 
ATOM      6  N   UNL d   1     -41.435-120.897 -51.168  0.00  0.00    -0.160 NA
ATOM      7  C   UNL d   1     -41.522-123.358 -52.553  0.00  0.00     0.067 A 
ATOM      8  C   UNL d   1     -41.673-122.956 -53.258  0.00  0.00     0.064 A 
ATOM      9  C   UNL d   1     -41.586-120.495 -51.872  0.00  0.00     0.124 A 
ENDROOT
BRANCH   5  10
ATOM     10  N   UNL d   1     -41.272-123.342 -51.135  0.00  0.00    -0.380 NA
BRANCH  10  11
ATOM     11  C   UNL d   1     -41.125-123.817 -50.452  0.00  0.00     0.164 C 
BRANCH  11  12
ATOM     12  C   UNL d   1     -41.179-123.453 -49.684  0.00  0.00     0.054 C 
BRANCH  12  13
ATOM     13  C   UNL d   1     -41.830-123.662 -49.166  0.00  0.00     0.083 C 
BRANCH  13  14
ATOM     14  N   UNL d   1     -41.798-123.453 -48.346  0.00  0.00    -0.300 N 
ATOM     15  C   UNL d   1     -42.642-123.508 -48.274  0.00  0.00     0.100 C 
ATOM     16  C   UNL d   1     -41.337-123.239 -47.659  0.00  0.00     0.100 C 
ENDBRANCH  13  14
ENDBRANCH  12  13
ENDBRANCH  11  12
ENDBRANCH  10  11
ENDBRANCH   5  10
BRANCH   8  17
ATOM     17  C   UNL d   1     -41.773-123.390 -53.985  0.00  0.00     0.036 C 
ATOM     18  C   UNL d   1     -41.868-123.817 -54.705  0.00  0.00     0.006 C 
ATOM     19  C   UNL d   1     -42.522-123.756 -54.157  0.00  0.00     0.006 C 
ATOM     20  C   UNL d   1     -41.123-123.454 -54.536  0.00  0.00     0.006 C 
ENDBRANCH   8  17
BRANCH   4  21
ATOM     21  C   UNL d   1     -41.832-120.505 -53.267  0.00  0.00     0.004 A 
ATOM     22  C   UNL d   1     -41.279-120.001 -53.558  0.00  0.00     0.000 A 
ATOM     23  C   UNL d   1     -41.430-119.599 -54.262  0.00  0.00     0.000 A 
ATOM     24  C   UNL d   1     -42.128-119.714 -54.654  0.00  0.00     0.000 A 
ATOM     25  C   UNL d   1     -42.686-120.227 -54.352  0.00  0.00     0.000 A 
ATOM     26  C   UNL d   1     -42.536-120.629 -53.648  0.00  0.00     0.000 A 
ENDBRANCH   4  21
TORSDOF 7
ENDMDL
