MODEL 1
REMARK VINA RESULT:      -9.4      0.000      0.000
REMARK  1 active torsions:
REMARK  status: ('A' for Active; 'I' for Inactive)
REMARK    1  A    between atoms: C_7  and  C_1 
ROOT
ATOM      1  C   UNL d   1      53.393  31.403  53.542  0.00  0.00     0.102 A 
ATOM      2  C   UNL d   1      52.981  31.900  53.050  0.00  0.00     0.303 A 
ATOM      3  C   UNL d   1      53.796  31.711  54.197  0.00  0.00     0.011 A 
ATOM      4  O   UNL d   1      52.963  32.714  53.205  0.00  0.00    -0.273 OA
ATOM      5  C   UNL d   1      53.365  33.019  53.859  0.00  0.00     0.106 A 
ATOM      6  C   UNL d   1      53.778  32.522  54.351  0.00  0.00     0.023 A 
ATOM      7  C   UNL d   1      53.348  33.832  54.014  0.00  0.00     0.067 A 
ATOM      8  O   UNL d   1      52.580  31.598  52.398  0.00  0.00    -0.259 OA
ATOM      9  C   UNL d   1      54.180  32.829  55.006  0.00  0.00     0.005 A 
ATOM     10  C   UNL d   1      53.750  34.141  54.670  0.00  0.00     0.198 A 
ATOM     11  C   UNL d   1      54.163  33.643  55.162  0.00  0.00     0.042 A 
ATOM     12  O   UNL d   1      53.786  34.934  54.899  0.00  0.00    -0.286 OA
ENDROOT
BRANCH   1  13
ATOM     13  C   UNL d   1      53.413  30.595  53.390  0.00  0.00     0.201 C 
ATOM     14  O   UNL d   1      54.100  30.244  53.091  0.00  0.00    -0.286 OA
ATOM     15  C   UNL d   1      52.763  30.137  53.531  0.00  0.00     0.045 C 
ENDBRANCH   1  13
TORSDOF 1
ENDMDL
MODEL 2
REMARK VINA RESULT:      -9.1      0.728      3.086
REMARK  1 active torsions:
REMARK  status: ('A' for Active; 'I' for Inactive)
REMARK    1  A    between atoms: C_7  and  C_1 
ROOT
ATOM      1  C   UNL d   1      53.930  33.320  54.448  0.00  0.00     0.102 A 
ATOM      2  C   UNL d   1      53.468  33.628  53.856  0.00  0.00     0.303 A 
ATOM      3  C   UNL d   1      54.033  32.500  54.508  0.00  0.00     0.011 A 
ATOM      4  O   UNL d   1      53.100  33.121  53.313  0.00  0.00    -0.273 OA
ATOM      5  C   UNL d   1      53.204  32.304  53.374  0.00  0.00     0.106 A 
ATOM      6  C   UNL d   1      53.666  31.996  53.966  0.00  0.00     0.023 A 
ATOM      7  C   UNL d   1      52.836  31.798  52.831  0.00  0.00     0.067 A 
ATOM      8  O   UNL d   1      53.363  34.441  53.794  0.00  0.00    -0.259 OA
ATOM      9  C   UNL d   1      53.769  31.177  54.026  0.00  0.00     0.005 A 
ATOM     10  C   UNL d   1      52.939  30.977  52.891  0.00  0.00     0.198 A 
ATOM     11  C   UNL d   1      53.401  30.669  53.483  0.00  0.00     0.042 A 
ATOM     12  O   UNL d   1      52.612  30.402  52.395  0.00  0.00    -0.286 OA
ENDROOT
BRANCH   1  13
ATOM     13  C   UNL d   1      54.296  33.820  54.989  0.00  0.00     0.201 C 
ATOM     14  O   UNL d   1      53.841  34.314  55.473  0.00  0.00    -0.286 OA
ATOM     15  C   UNL d   1      55.101  33.834  55.052  0.00  0.00     0.045 C 
ENDBRANCH   1  13
TORSDOF 1
ENDMDL
MODEL 3
REMARK VINA RESULT:      -9.1      1.509      2.717
REMARK  1 active torsions:
REMARK  status: ('A' for Active; 'I' for Inactive)
REMARK    1  A    between atoms: C_7  and  C_1 
ROOT
ATOM      1  C   UNL d   1      53.757  33.183  54.396  0.00  0.00     0.102 A 
ATOM      2  C   UNL d   1      53.683  32.587  53.850  0.00  0.00     0.303 A 
ATOM      3  C   UNL d   1      53.271  33.853  54.345  0.00  0.00     0.011 A 
ATOM      4  O   UNL d   1      53.123  32.650  53.243  0.00  0.00    -0.273 OA
ATOM      5  C   UNL d   1      52.639  33.317  53.193  0.00  0.00     0.106 A 
ATOM      6  C   UNL d   1      52.713  33.913  53.739  0.00  0.00     0.023 A 
ATOM      7  C   UNL d   1      52.079  33.380  52.587  0.00  0.00     0.067 A 
ATOM      8  O   UNL d   1      54.164  31.922  53.897  0.00  0.00    -0.259 OA
ATOM      9  C   UNL d   1      52.227  34.583  53.688  0.00  0.00     0.005 A 
ATOM     10  C   UNL d   1      51.593  34.049  52.535  0.00  0.00     0.198 A 
ATOM     11  C   UNL d   1      51.666  34.646  53.081  0.00  0.00     0.042 A 
ATOM     12  O   UNL d   1      51.010  34.193  51.966  0.00  0.00    -0.286 OA
ENDROOT
BRANCH   1  13
ATOM     13  C   UNL d   1      54.312  33.125  54.999  0.00  0.00     0.201 C 
ATOM     14  O   UNL d   1      54.171  32.630  55.648  0.00  0.00    -0.286 OA
ATOM     15  C   UNL d   1      55.000  33.547  54.964  0.00  0.00     0.045 C 
ENDBRANCH   1  13
TORSDOF 1
ENDMDL
MODEL 4
REMARK VINA RESULT:      -8.9      1.483      2.286
REMARK  1 active torsions:
REMARK  status: ('A' for Active; 'I' for Inactive)
REMARK    1  A    between atoms: C_7  and  C_1 
ROOT
ATOM      1  C   UNL d   1      52.162  33.424  53.315  0.00  0.00     0.102 A 
ATOM      2  C   UNL d   1      52.631  32.814  53.055  0.00  0.00     0.303 A 
ATOM      3  C   UNL d   1      52.431  33.924  53.918  0.00  0.00     0.011 A 
ATOM      4  O   UNL d   1      53.378  32.694  53.394  0.00  0.00    -0.273 OA
ATOM      5  C   UNL d   1      53.644  33.193  53.995  0.00  0.00     0.106 A 
ATOM      6  C   UNL d   1      53.175  33.803  54.255  0.00  0.00     0.023 A 
ATOM      7  C   UNL d   1      54.391  33.073  54.334  0.00  0.00     0.067 A 
ATOM      8  O   UNL d   1      52.367  32.316  52.457  0.00  0.00    -0.259 OA
ATOM      9  C   UNL d   1      53.445  34.303  54.858  0.00  0.00     0.005 A 
ATOM     10  C   UNL d   1      54.660  33.573  54.938  0.00  0.00     0.198 A 
ATOM     11  C   UNL d   1      54.191  34.183  55.198  0.00  0.00     0.042 A 
ATOM     12  O   UNL d   1      55.387  33.525  55.330  0.00  0.00    -0.286 OA
ENDROOT
BRANCH   1  13
ATOM     13  C   UNL d   1      51.421  33.546  52.981  0.00  0.00     0.201 C 
ATOM     14  O   UNL d   1      50.757  33.162  53.290  0.00  0.00    -0.286 OA
ATOM     15  C   UNL d   1      51.335  34.042  52.349  0.00  0.00     0.045 C 
ENDBRANCH   1  13
TORSDOF 1
ENDMDL
MODEL 5
REMARK VINA RESULT:      -8.6      0.997      3.244
REMARK  1 active torsions:
REMARK  status: ('A' for Active; 'I' for Inactive)
REMARK    1  A    between atoms: C_7  and  C_1 
ROOT
ATOM      1  C   UNL d   1      52.992  34.126  54.069  0.00  0.00     0.102 A 
ATOM      2  C   UNL d   1      52.333  34.085  53.595  0.00  0.00     0.303 A 
ATOM      3  C   UNL d   1      53.481  33.463  54.154  0.00  0.00     0.011 A 
ATOM      4  O   UNL d   1      52.153  33.381  53.199  0.00  0.00    -0.273 OA
ATOM      5  C   UNL d   1      52.641  32.720  53.285  0.00  0.00     0.106 A 
ATOM      6  C   UNL d   1      53.299  32.761  53.758  0.00  0.00     0.023 A 
ATOM      7  C   UNL d   1      52.460  32.016  52.889  0.00  0.00     0.067 A 
ATOM      8  O   UNL d   1      51.846  34.742  53.508  0.00  0.00    -0.259 OA
ATOM      9  C   UNL d   1      53.788  32.098  53.844  0.00  0.00     0.005 A 
ATOM     10  C   UNL d   1      52.949  31.352  52.974  0.00  0.00     0.198 A 
ATOM     11  C   UNL d   1      53.607  31.392  53.448  0.00  0.00     0.042 A 
ATOM     12  O   UNL d   1      52.844  30.613  52.617  0.00  0.00    -0.286 OA
ENDROOT
BRANCH   1  13
ATOM     13  C   UNL d   1      53.174  34.824  54.463  0.00  0.00     0.201 C 
ATOM     14  O   UNL d   1      53.180  34.844  55.291  0.00  0.00    -0.286 OA
ATOM     15  C   UNL d   1      53.348  35.494  54.048  0.00  0.00     0.045 C 
ENDBRANCH   1  13
TORSDOF 1
ENDMDL
