MODEL 1
REMARK VINA RESULT:      -4.6      0.000      0.000
REMARK  1 active torsions:
REMARK  status: ('A' for Active; 'I' for Inactive)
REMARK    1  A    between atoms: C_15  and  C_10 
ROOT
ATOM      1  C   UNL d   1     -41.536-122.454 -53.553  0.00  0.00     0.111 A 
ATOM      2  C   UNL d   1     -41.497-122.230 -52.146  0.00  0.00     0.062 A 
ATOM      3  C   UNL d   1     -41.678-123.006 -52.017  0.00  0.00     0.105 A 
ATOM      4  C   UNL d   1     -41.717-123.231 -53.424  0.00  0.00     0.213 A 
ATOM      5  C   UNL d   1     -41.424-121.946 -52.918  0.00  0.00     0.018 A 
ATOM      6  O   UNL d   1     -41.790-123.514 -52.657  0.00  0.00    -0.287 OA
ATOM      7  C   UNL d   1     -41.376-121.683 -51.492  0.00  0.00     0.198 A 
ATOM      8  C   UNL d   1     -41.463-122.171 -54.329  0.00  0.00     0.105 C 
ATOM      9  C   UNL d   1     -41.758-123.320 -51.220  0.00  0.00     0.025 A 
ATOM     10  C   UNL d   1     -41.641-122.791 -50.573  0.00  0.00     0.005 A 
ATOM     11  C   UNL d   1     -41.450-121.975 -50.708  0.00  0.00     0.042 A 
ATOM     12  N   UNL d   1     -41.395-121.906 -55.083  0.00  0.00    -0.191 NA
ATOM     13  O   UNL d   1     -41.235-121.080 -51.592  0.00  0.00    -0.286 OA
ATOM     14  N   UNL d   1     -41.829-123.739 -54.069  0.00  0.00    -0.120 N 
ATOM     15  C   UNL d   1     -41.229-121.111 -53.025  0.00  0.00     0.001 C 
ENDROOT
BRANCH  10  16
ATOM     16  C   UNL d   1     -41.714-123.076 -49.817  0.00  0.00     0.000 A 
ATOM     17  C   UNL d   1     -41.123-123.532 -49.469  0.00  0.00     0.000 A 
ATOM     18  C   UNL d   1     -41.210-123.809 -48.716  0.00  0.00     0.000 A 
ATOM     19  C   UNL d   1     -41.899-123.639 -48.273  0.00  0.00     0.000 A 
ATOM     20  C   UNL d   1     -42.481-123.185 -48.627  0.00  0.00     0.000 A 
ATOM     21  C   UNL d   1     -42.394-122.898 -49.404  0.00  0.00     0.000 A 
ENDBRANCH  10  16
TORSDOF 1
ENDMDL
MODEL 2
REMARK VINA RESULT:      -3.0      1.773      4.033
REMARK  1 active torsions:
REMARK  status: ('A' for Active; 'I' for Inactive)
REMARK    1  A    between atoms: C_15  and  C_10 
ROOT
ATOM      1  C   UNL d   1     -42.046-122.565 -50.065  0.00  0.00     0.111 A 
ATOM      2  C   UNL d   1     -41.711-122.085 -51.364  0.00  0.00     0.062 A 
ATOM      3  C   UNL d   1     -42.024-122.754 -51.692  0.00  0.00     0.105 A 
ATOM      4  C   UNL d   1     -42.359-123.234 -50.392  0.00  0.00     0.213 A 
ATOM      5  C   UNL d   1     -41.720-121.985 -50.545  0.00  0.00     0.018 A 
ATOM      6  O   UNL d   1     -42.352-123.335 -51.206  0.00  0.00    -0.287 OA
ATOM      7  C   UNL d   1     -41.365-121.467 -51.853  0.00  0.00     0.198 A 
ATOM      8  C   UNL d   1     -42.056-122.466 -49.241  0.00  0.00     0.105 C 
ATOM      9  C   UNL d   1     -42.025-122.877 -52.543  0.00  0.00     0.025 A 
ATOM     10  C   UNL d   1     -41.687-122.275 -53.030  0.00  0.00     0.005 A 
ATOM     11  C   UNL d   1     -41.358-121.572 -52.686  0.00  0.00     0.042 A 
ATOM     12  N   UNL d   1     -42.069-122.377 -48.444  0.00  0.00    -0.191 NA
ATOM     13  O   UNL d   1     -41.122-120.948 -51.599  0.00  0.00    -0.286 OA
ATOM     14  N   UNL d   1     -42.688-123.816 -49.902  0.00  0.00    -0.120 N 
ATOM     15  C   UNL d   1     -41.378-121.259 -50.223  0.00  0.00     0.001 C 
ENDROOT
BRANCH  10  16
ATOM     16  C   UNL d   1     -41.682-122.380 -53.834  0.00  0.00     0.000 A 
ATOM     17  C   UNL d   1     -41.150-122.894 -54.199  0.00  0.00     0.000 A 
ATOM     18  C   UNL d   1     -41.157-122.988 -55.000  0.00  0.00     0.000 A 
ATOM     19  C   UNL d   1     -41.702-122.568 -55.477  0.00  0.00     0.000 A 
ATOM     20  C   UNL d   1     -42.226-122.061 -55.106  0.00  0.00     0.000 A 
ATOM     21  C   UNL d   1     -42.222-121.962 -54.279  0.00  0.00     0.000 A 
ENDBRANCH  10  16
TORSDOF 1
ENDMDL
MODEL 3
REMARK VINA RESULT:      -2.5      1.239      2.077
REMARK  1 active torsions:
REMARK  status: ('A' for Active; 'I' for Inactive)
REMARK    1  A    between atoms: C_15  and  C_10 
ROOT
ATOM      1  C   UNL d   1     -42.251-121.941 -54.808  0.00  0.00     0.111 A 
ATOM      2  C   UNL d   1     -41.774-122.688 -53.692  0.00  0.00     0.062 A 
ATOM      3  C   UNL d   1     -42.073-122.130 -53.190  0.00  0.00     0.105 A 
ATOM      4  C   UNL d   1     -42.550-121.383 -54.306  0.00  0.00     0.213 A 
ATOM      5  C   UNL d   1     -41.861-122.597 -54.508  0.00  0.00     0.018 A 
ATOM      6  O   UNL d   1     -42.464-121.471 -53.494  0.00  0.00    -0.287 OA
ATOM      7  C   UNL d   1     -41.361-123.383 -53.395  0.00  0.00     0.198 A 
ATOM      8  C   UNL d   1     -42.341-121.848 -55.627  0.00  0.00     0.105 C 
ATOM      9  C   UNL d   1     -41.991-122.206 -52.337  0.00  0.00     0.025 A 
ATOM     10  C   UNL d   1     -41.588-122.885 -52.037  0.00  0.00     0.005 A 
ATOM     11  C   UNL d   1     -41.274-123.472 -52.565  0.00  0.00     0.042 A 
ATOM     12  N   UNL d   1     -42.431-121.751 -56.418  0.00  0.00    -0.191 NA
ATOM     13  O   UNL d   1     -41.129-123.816 -53.785  0.00  0.00    -0.286 OA
ATOM     14  N   UNL d   1     -42.944-120.721 -54.614  0.00  0.00    -0.120 N 
ATOM     15  C   UNL d   1     -41.531-123.211 -55.020  0.00  0.00     0.001 C 
ENDROOT
BRANCH  10  16
ATOM     16  C   UNL d   1     -41.506-122.968 -51.235  0.00  0.00     0.000 A 
ATOM     17  C   UNL d   1     -41.616-123.695 -50.862  0.00  0.00     0.000 A 
ATOM     18  C   UNL d   1     -41.531-123.761 -50.063  0.00  0.00     0.000 A 
ATOM     19  C   UNL d   1     -41.329-123.097 -49.596  0.00  0.00     0.000 A 
ATOM     20  C   UNL d   1     -41.221-122.380 -49.974  0.00  0.00     0.000 A 
ATOM     21  C   UNL d   1     -41.308-122.307 -50.800  0.00  0.00     0.000 A 
ENDBRANCH  10  16
TORSDOF 1
ENDMDL
