MODEL 1
REMARK VINA RESULT:       5.6      0.000      0.000
REMARK  7 active torsions:
REMARK  status: ('A' for Active; 'I' for Inactive)
REMARK    1  A    between atoms: N_10  and  C_1 
REMARK    2  A    between atoms: C_11  and  C_2 
REMARK    3  A    between atoms: C_7  and  S_14 
REMARK       I    between atoms: C_13  and  N_10 
REMARK    4  A    between atoms: O_18  and  C_11 
REMARK    5  A    between atoms: C_17  and  C_13 
REMARK    6  A    between atoms: S_14  and  C_17 
REMARK    7  A    between atoms: C_22  and  O_18 
ROOT
ATOM      1  C   UNL d   1     -41.267-121.787 -52.201  0.00  0.00     0.119 A 
ATOM      2  C   UNL d   1     -41.561-121.463 -52.902  0.00  0.00     0.088 A 
ATOM      3  S   UNL d   1     -41.130-122.576 -52.315  0.00  0.00    -0.068 SA
ATOM      4  C   UNL d   1     -41.604-122.078 -53.461  0.00  0.00     0.013 A 
ATOM      5  C   UNL d   1     -41.337-122.770 -53.099  0.00  0.00     0.031 A 
ATOM      6  C   UNL d   1     -41.876-121.968 -54.241  0.00  0.00     0.001 A 
ATOM      7  C   UNL d   1     -41.273-123.528 -53.423  0.00  0.00     0.006 A 
ATOM      8  C   UNL d   1     -41.942-122.532 -54.838  0.00  0.00     0.000 A 
ATOM      9  C   UNL d   1     -41.464-123.773 -54.192  0.00  0.00     0.001 A 
ATOM     10  C   UNL d   1     -41.758-123.331 -54.813  0.00  0.00     0.000 A 
ENDROOT
BRANCH   1  11
ATOM     11  N   UNL d   1     -41.132-121.376 -51.491  0.00  0.00    -0.201 NA
ATOM     12  C   UNL d   1     -41.314-121.733 -50.763  0.00  0.00     0.286 C 
ATOM     13  O   UNL d   1     -41.176-121.317 -50.064  0.00  0.00    -0.265 OA
BRANCH  12  14
ATOM     14  C   UNL d   1     -41.629-122.493 -50.736  0.00  0.00     0.100 C 
BRANCH  14  15
ATOM     15  S   UNL d   1     -41.534-122.958 -50.059  0.00  0.00    -0.054 SA
BRANCH  15  16
ATOM     16  C   UNL d   1     -42.188-123.170 -49.603  0.00  0.00     0.164 A 
ATOM     17  S   UNL d   1     -42.958-123.387 -49.813  0.00  0.00    -0.039 SA
ATOM     18  C   UNL d   1     -43.377-123.541 -49.109  0.00  0.00     0.134 A 
ATOM     19  C   UNL d   1     -44.168-123.776 -49.058  0.00  0.00     0.030 C 
ATOM     20  N   UNL d   1     -42.863-123.417 -48.476  0.00  0.00    -0.140 NA
ATOM     21  N   UNL d   1     -42.129-123.189 -48.774  0.00  0.00    -0.134 NA
ENDBRANCH  15  16
ENDBRANCH  14  15
ENDBRANCH  12  14
ENDBRANCH   1  11
BRANCH   2  22
ATOM     22  C   UNL d   1     -41.774-120.676 -53.029  0.00  0.00     0.302 C 
ATOM     23  O   UNL d   1     -42.417-120.490 -53.522  0.00  0.00    -0.259 OA
BRANCH  22  24
ATOM     24  O   UNL d   1     -41.346-120.066 -52.663  0.00  0.00    -0.271 OA
BRANCH  24  25
ATOM     25  C   UNL d   1     -41.160-119.382 -53.083  0.00  0.00     0.126 C 
ATOM     26  C   UNL d   1     -41.242-118.640 -52.734  0.00  0.00     0.029 C 
ENDBRANCH  24  25
ENDBRANCH  22  24
ENDBRANCH   2  22
TORSDOF 7
ENDMDL
