MODEL 1
REMARK VINA RESULT:      72.6      0.000      0.000
REMARK  3 active torsions:
REMARK  status: ('A' for Active; 'I' for Inactive)
REMARK    1  A    between atoms: C_5  and  C_2 
REMARK    2  A    between atoms: C_10  and  C_4 
REMARK    3  A    between atoms: O_19  and  C_16 
ROOT
ATOM      1  N   UNL d   1      56.404  49.285  52.037  0.00  0.00    -0.245 NA
ATOM      2  C   UNL d   1      56.838  49.228  51.351  0.00  0.00     0.088 A 
ATOM      3  S   UNL d   1      58.161  49.534  52.593  0.00  0.00    -0.085 SA
ATOM      4  C   UNL d   1      58.263  49.429  51.801  0.00  0.00     0.031 A 
ATOM      5  C   UNL d   1      57.661  49.289  51.234  0.00  0.00     0.026 A 
ATOM      6  C   UNL d   1      56.698  49.423  52.788  0.00  0.00     0.087 A 
ATOM      7  C   UNL d   1      57.476  49.533  53.034  0.00  0.00     0.047 A 
ATOM      8  C   UNL d   1      56.100  49.446  53.349  0.00  0.00     0.020 A 
ATOM      9  C   UNL d   1      57.661  49.668  53.842  0.00  0.00     0.008 A 
ATOM     10  C   UNL d   1      56.251  49.575  54.135  0.00  0.00     0.002 A 
ATOM     11  C   UNL d   1      57.029  49.685  54.381  0.00  0.00     0.001 A 
ENDROOT
BRANCH   4  12
ATOM     12  C   UNL d   1      58.998  49.450  51.455  0.00  0.00     0.006 A 
ATOM     13  C   UNL d   1      59.066  49.339  50.629  0.00  0.00     0.003 A 
ATOM     14  C   UNL d   1      59.799  49.359  50.283  0.00  0.00     0.024 A 
ATOM     15  C   UNL d   1      60.470  49.488  50.747  0.00  0.00     0.094 A 
ATOM     16  C   UNL d   1      60.409  49.597  51.553  0.00  0.00     0.024 A 
ATOM     17  C   UNL d   1      59.668  49.579  51.919  0.00  0.00     0.003 A 
BRANCH  15  18
ATOM     18  O   UNL d   1      61.236  49.512  50.406  0.00  0.00    -0.328 OA
ATOM     19  C   UNL d   1      61.347  49.359  49.595  0.00  0.00     0.181 C 
ENDBRANCH  15  18
ENDBRANCH   4  12
BRANCH   2  20
ATOM     20  C   UNL d   1      56.872  49.109  50.509  0.00  0.00     0.047 A 
ATOM     21  S   UNL d   1      56.399  49.549  50.009  0.00  0.00    -0.085 SA
ATOM     22  C   UNL d   1      56.567  49.298  49.243  0.00  0.00     0.035 A 
ATOM     23  C   UNL d   1      57.129  48.716  49.252  0.00  0.00     0.007 A 
ATOM     24  C   UNL d   1      57.319  48.597  50.032  0.00  0.00     0.009 A 
ENDBRANCH   2  20
TORSDOF 3
ENDMDL
MODEL 2
REMARK VINA RESULT:      73.3      1.006      2.844
REMARK  3 active torsions:
REMARK  status: ('A' for Active; 'I' for Inactive)
REMARK    1  A    between atoms: C_5  and  C_2 
REMARK    2  A    between atoms: C_10  and  C_4 
REMARK    3  A    between atoms: O_19  and  C_16 
ROOT
ATOM      1  N   UNL d   1      56.998  49.566  51.268  0.00  0.00    -0.245 NA
ATOM      2  C   UNL d   1      57.664  49.551  51.737  0.00  0.00     0.088 A 
ATOM      3  S   UNL d   1      58.407  49.576  50.054  0.00  0.00    -0.085 SA
ATOM      4  C   UNL d   1      58.806  49.559  50.752  0.00  0.00     0.031 A 
ATOM      5  C   UNL d   1      58.469  49.548  51.521  0.00  0.00     0.026 A 
ATOM      6  C   UNL d   1      56.981  49.582  50.450  0.00  0.00     0.087 A 
ATOM      7  C   UNL d   1      57.604  49.586  49.913  0.00  0.00     0.047 A 
ATOM      8  C   UNL d   1      56.212  49.594  50.164  0.00  0.00     0.020 A 
ATOM      9  C   UNL d   1      57.463  49.602  49.085  0.00  0.00     0.008 A 
ATOM     10  C   UNL d   1      56.049  49.610  49.370  0.00  0.00     0.002 A 
ATOM     11  C   UNL d   1      56.672  49.614  48.832  0.00  0.00     0.001 A 
ENDROOT
BRANCH   4  12
ATOM     12  C   UNL d   1      59.617  49.551  50.786  0.00  0.00     0.006 A 
ATOM     13  C   UNL d   1      60.055  49.384  50.094  0.00  0.00     0.003 A 
ATOM     14  C   UNL d   1      60.865  49.376  50.127  0.00  0.00     0.024 A 
ATOM     15  C   UNL d   1      61.250  49.532  50.841  0.00  0.00     0.094 A 
ATOM     16  C   UNL d   1      60.828  49.695  51.519  0.00  0.00     0.024 A 
ATOM     17  C   UNL d   1      60.002  49.707  51.500  0.00  0.00     0.003 A 
BRANCH  15  18
ATOM     18  O   UNL d   1      62.088  49.527  50.894  0.00  0.00    -0.328 OA
ATOM     19  C   UNL d   1      62.507  48.811  50.967  0.00  0.00     0.181 C 
ENDBRANCH  15  18
ENDBRANCH   4  12
BRANCH   2  20
ATOM     20  C   UNL d   1      58.019  49.534  52.511  0.00  0.00     0.047 A 
ATOM     21  S   UNL d   1      57.565  49.660  53.178  0.00  0.00    -0.085 SA
ATOM     22  C   UNL d   1      58.074  49.606  53.823  0.00  0.00     0.035 A 
ATOM     23  C   UNL d   1      58.829  49.450  53.576  0.00  0.00     0.007 A 
ATOM     24  C   UNL d   1      58.798  49.405  52.766  0.00  0.00     0.009 A 
ENDBRANCH   2  20
TORSDOF 3
ENDMDL
