MODEL 1
REMARK VINA RESULT:      43.1      0.000      0.000
REMARK  7 active torsions:
REMARK  status: ('A' for Active; 'I' for Inactive)
REMARK    1  A    between atoms: O_8  and  C_2 
REMARK    2  A    between atoms: C_10  and  C_5 
REMARK    3  A    between atoms: C_21  and  O_8 
REMARK    4  A    between atoms: N_9  and  C_10 
REMARK    5  A    between atoms: C_12  and  C_15 
REMARK    6  A    between atoms: O_26  and  C_12 
REMARK    7  A    between atoms: C_32  and  O_26 
ROOT
ATOM      1  C   UNL d   1      46.302 -18.552  42.856  0.00  0.00     0.108 A 
ATOM      2  C   UNL d   1      46.161 -17.565  44.185  0.00  0.00     0.161 A 
ATOM      3  C   UNL d   1      46.021 -18.861  43.581  0.00  0.00     0.064 A 
ATOM      4  C   UNL d   1      45.951 -18.374  44.238  0.00  0.00     0.222 A 
ATOM      5  C   UNL d   1      46.372 -19.044  42.191  0.00  0.00     0.079 A 
ATOM      6  O   UNL d   1      46.512 -17.751  42.793  0.00  0.00    -0.305 OA
ATOM      7  C   UNL d   1      46.440 -17.257  43.466  0.00  0.00     0.126 A 
ATOM      8  C   UNL d   1      45.815 -19.666  43.623  0.00  0.00     0.009 A 
ATOM      9  C   UNL d   1      46.166 -19.840  42.243  0.00  0.00     0.199 A 
ATOM     10  O   UNL d   1      45.674 -18.677  44.954  0.00  0.00    -0.284 OA
ATOM     11  C   UNL d   1      45.885 -20.153  42.963  0.00  0.00     0.042 A 
ATOM     12  O   UNL d   1      46.234 -20.328  41.589  0.00  0.00    -0.286 OA
ATOM     13  C   UNL d   1      46.646 -16.462  43.415  0.00  0.00     0.029 C 
ENDROOT
BRANCH   2  14
ATOM     14  O   UNL d   1      46.090 -17.079  44.845  0.00  0.00    -0.302 OA
BRANCH  14  15
ATOM     15  C   UNL d   1      45.807 -16.311  44.761  0.00  0.00     0.100 A 
ATOM     16  C   UNL d   1      46.310 -15.671  44.886  0.00  0.00     0.025 A 
ATOM     17  C   UNL d   1      46.026 -14.904  44.802  0.00  0.00     0.007 A 
ATOM     18  C   UNL d   1      45.239 -14.775  44.593  0.00  0.00     0.064 A 
ATOM     19  C   UNL d   1      44.733 -15.426  44.467  0.00  0.00     0.007 A 
ATOM     20  C   UNL d   1      45.018 -16.186  44.552  0.00  0.00     0.025 A 
BRANCH  18  21
ATOM     21  C   UNL d   1      44.951 -14.005  44.507  0.00  0.00     0.300 C 
ATOM     22  O   UNL d   1      44.142 -13.854  44.569  0.00  0.00    -0.259 OA
BRANCH  21  23
ATOM     23  O   UNL d   1      45.469 -13.378  44.359  0.00  0.00    -0.271 OA
BRANCH  23  24
ATOM     24  C   UNL d   1      45.190 -12.702  43.979  0.00  0.00     0.126 C 
ATOM     25  C   UNL d   1      45.242 -12.633  43.160  0.00  0.00     0.029 C 
ENDBRANCH  23  24
ENDBRANCH  21  23
ENDBRANCH  18  21
ENDBRANCH  14  15
ENDBRANCH   2  14
BRANCH   5  26
ATOM     26  C   UNL d   1      46.647 -18.738  41.486  0.00  0.00     0.086 C 
BRANCH  26  27
ATOM     27  N   UNL d   1      46.117 -18.398  40.950  0.00  0.00    -0.300 N 
ATOM     28  C   UNL d   1      46.381 -17.825  40.418  0.00  0.00     0.100 A 
ATOM     29  C   UNL d   1      45.854 -17.488  39.886  0.00  0.00     0.100 A 
ATOM     30  N   UNL d   1      45.065 -17.718  39.881  0.00  0.00    -0.299 N 
ATOM     31  C   UNL d   1      44.800 -18.293  40.416  0.00  0.00     0.100 A 
ATOM     32  C   UNL d   1      44.531 -17.377  39.343  0.00  0.00     0.100 C 
ATOM     33  C   UNL d   1      45.330 -18.634  40.952  0.00  0.00     0.100 A 
ENDBRANCH  26  27
ENDBRANCH   5  26
TORSDOF 7
ENDMDL
