MODEL 1
REMARK VINA RESULT:      -4.6      0.000      0.000
REMARK  6 active torsions:
REMARK  status: ('A' for Active; 'I' for Inactive)
REMARK    1  A    between atoms: N_2  and  S_1 
REMARK    2  A    between atoms: C_5  and  S_1 
REMARK    3  A    between atoms: S_6  and  C_3 
REMARK    4  A    between atoms: C_18  and  S_6 
REMARK       I    between atoms: C_9  and  N_11 
REMARK    5  A    between atoms: N_11  and  C_19 
REMARK    6  A    between atoms: C_17  and  C_18 
ROOT
ATOM      1  N   UNL d   1     -41.376-122.504 -51.937  0.00  0.00    -0.208 N 
ATOM      2  C   UNL d   1     -41.436-122.741 -52.733  0.00  0.00     0.189 A 
ATOM      3  N   UNL d   1     -41.279-123.553 -52.773  0.00  0.00    -0.219 NA
ATOM      4  C   UNL d   1     -41.182-123.175 -51.484  0.00  0.00     0.114 A 
ATOM      5  C   UNL d   1     -41.123-123.817 -52.001  0.00  0.00     0.121 A 
ENDROOT
BRANCH   1   6
ATOM      6  S   UNL d   1     -41.492-121.734 -51.650  0.00  0.00     0.273 S 
ATOM      7  O   UNL d   1     -41.533-120.908 -51.599  0.00  0.00    -0.200 OA
ATOM      8  O   UNL d   1     -41.263-121.463 -52.388  0.00  0.00    -0.200 OA
BRANCH   6   9
ATOM      9  C   UNL d   1     -41.726-121.989 -50.898  0.00  0.00     0.104 A 
ATOM     10  C   UNL d   1     -42.518-122.016 -50.713  0.00  0.00     0.014 A 
ATOM     11  C   UNL d   1     -42.765-122.269 -49.962  0.00  0.00     0.020 A 
ATOM     12  C   UNL d   1     -42.196-122.491 -49.411  0.00  0.00     0.085 A 
ATOM     13  C   UNL d   1     -41.395-122.462 -49.605  0.00  0.00     0.020 A 
ATOM     14  C   UNL d   1     -41.152-122.209 -50.352  0.00  0.00     0.014 A 
BRANCH  12  15
ATOM     15  N   UNL d   1     -42.430-122.745 -48.661  0.00  0.00    -0.208 NA
ATOM     16  C   UNL d   1     -42.919-123.403 -48.587  0.00  0.00     0.279 C 
ATOM     17  O   UNL d   1     -43.181-123.813 -49.248  0.00  0.00    -0.265 OA
ATOM     18  C   UNL d   1     -43.158-123.662 -47.826  0.00  0.00     0.068 C 
ENDBRANCH  12  15
ENDBRANCH   6   9
ENDBRANCH   1   6
BRANCH   2  19
ATOM     19  S   UNL d   1     -41.621-122.245 -53.375  0.00  0.00    -0.049 SA
BRANCH  19  20
ATOM     20  C   UNL d   1     -41.451-122.492 -54.145  0.00  0.00     0.040 C 
BRANCH  20  21
ATOM     21  C   UNL d   1     -41.909-122.220 -54.773  0.00  0.00     0.026 A 
ATOM     22  C   UNL d   1     -42.744-122.172 -54.695  0.00  0.00     0.099 A 
ATOM     23  N   UNL d   1     -43.215-121.903 -55.312  0.00  0.00    -0.242 NA
ATOM     24  C   UNL d   1     -42.850-121.677 -56.016  0.00  0.00     0.099 A 
ATOM     25  C   UNL d   1     -42.031-121.721 -56.100  0.00  0.00     0.021 A 
ATOM     26  C   UNL d   1     -41.563-121.993 -55.478  0.00  0.00     0.004 A 
ENDBRANCH  20  21
ENDBRANCH  19  20
ENDBRANCH   2  19
TORSDOF 6
ENDMDL
MODEL 2
REMARK VINA RESULT:      -2.5      1.379      5.203
REMARK  6 active torsions:
REMARK  status: ('A' for Active; 'I' for Inactive)
REMARK    1  A    between atoms: N_2  and  S_1 
REMARK    2  A    between atoms: C_5  and  S_1 
REMARK    3  A    between atoms: S_6  and  C_3 
REMARK    4  A    between atoms: C_18  and  S_6 
REMARK       I    between atoms: C_9  and  N_11 
REMARK    5  A    between atoms: N_11  and  C_19 
REMARK    6  A    between atoms: C_17  and  C_18 
ROOT
ATOM      1  N   UNL d   1     -41.671-122.298 -51.629  0.00  0.00    -0.208 N 
ATOM      2  C   UNL d   1     -41.640-122.198 -50.804  0.00  0.00     0.189 A 
ATOM      3  N   UNL d   1     -41.489-121.399 -50.647  0.00  0.00    -0.219 NA
ATOM      4  C   UNL d   1     -41.540-121.556 -51.983  0.00  0.00     0.114 A 
ATOM      5  C   UNL d   1     -41.428-121.007 -51.376  0.00  0.00     0.121 A 
ENDROOT
BRANCH   1   6
ATOM      6  S   UNL d   1     -41.810-123.014 -52.026  0.00  0.00     0.273 S 
ATOM      7  O   UNL d   1     -41.952-123.815 -52.183  0.00  0.00    -0.200 OA
ATOM      8  O   UNL d   1     -41.835-123.375 -51.290  0.00  0.00    -0.200 OA
BRANCH   6   9
ATOM      9  C   UNL d   1     -41.789-122.667 -52.777  0.00  0.00     0.104 A 
ATOM     10  C   UNL d   1     -41.162-122.824 -53.272  0.00  0.00     0.014 A 
ATOM     11  C   UNL d   1     -41.129-122.482 -54.028  0.00  0.00     0.020 A 
ATOM     12  C   UNL d   1     -41.740-121.985 -54.265  0.00  0.00     0.085 A 
ATOM     13  C   UNL d   1     -42.372-121.831 -53.759  0.00  0.00     0.020 A 
ATOM     14  C   UNL d   1     -42.402-122.171 -53.008  0.00  0.00     0.014 A 
BRANCH  12  15
ATOM     15  N   UNL d   1     -41.718-121.639 -55.015  0.00  0.00    -0.208 NA
ATOM     16  C   UNL d   1     -42.186-121.946 -55.619  0.00  0.00     0.279 C 
ATOM     17  O   UNL d   1     -42.675-122.591 -55.491  0.00  0.00    -0.265 OA
ATOM     18  C   UNL d   1     -42.165-121.596 -56.382  0.00  0.00     0.068 C 
ENDBRANCH  12  15
ENDBRANCH   6   9
ENDBRANCH   1   6
BRANCH   2  19
ATOM     19  S   UNL d   1     -41.742-122.798 -50.236  0.00  0.00    -0.049 SA
BRANCH  19  20
ATOM     20  C   UNL d   1     -41.383-122.726 -49.495  0.00  0.00     0.040 C 
BRANCH  20  21
ATOM     21  C   UNL d   1     -41.724-123.088 -48.838  0.00  0.00     0.026 A 
ATOM     22  C   UNL d   1     -42.558-123.081 -48.740  0.00  0.00     0.099 A 
ATOM     23  N   UNL d   1     -42.913-123.438 -48.090  0.00  0.00    -0.242 NA
ATOM     24  C   UNL d   1     -42.431-123.806 -47.531  0.00  0.00     0.099 A 
ATOM     25  C   UNL d   1     -41.612-123.817 -47.621  0.00  0.00     0.021 A 
ATOM     26  C   UNL d   1     -41.260-123.458 -48.276  0.00  0.00     0.004 A 
ENDBRANCH  20  21
ENDBRANCH  19  20
ENDBRANCH   2  19
TORSDOF 6
ENDMDL
