MODEL 1
REMARK VINA RESULT:      36.2      0.000      0.000
REMARK  3 active torsions:
REMARK  status: ('A' for Active; 'I' for Inactive)
REMARK    1  A    between atoms: C_21  and  N_1 
REMARK       I    between atoms: N_6  and  C_8 
REMARK    2  A    between atoms: C_8  and  C_9 
REMARK    3  A    between atoms: C_24  and  C_21 
ROOT
ATOM      1  N   UNL d   1      46.354 -19.019  42.014  0.00  0.00    -0.249 N 
ATOM      2  C   UNL d   1      46.134 -18.355  41.593  0.00  0.00     0.208 A 
ATOM      3  C   UNL d   1      46.290 -19.028  42.838  0.00  0.00     0.268 A 
ATOM      4  C   UNL d   1      46.001 -18.360  43.226  0.00  0.00     0.074 A 
ATOM      5  N   UNL d   1      45.844 -17.684  41.987  0.00  0.00    -0.218 NA
ATOM      6  C   UNL d   1      45.784 -17.702  42.802  0.00  0.00     0.088 A 
ATOM      7  C   UNL d   1      45.428 -17.036  44.019  0.00  0.00     0.058 A 
ATOM      8  C   UNL d   1      45.496 -17.035  43.193  0.00  0.00     0.024 A 
ATOM      9  C   UNL d   1      45.938 -18.371  44.045  0.00  0.00     0.006 A 
ATOM     10  S   UNL d   1      46.200 -18.348  40.758  0.00  0.00    -0.038 SA
ATOM     11  O   UNL d   1      46.511 -19.697  43.266  0.00  0.00    -0.267 OA
ATOM     12  C   UNL d   1      45.649 -17.703  44.442  0.00  0.00     0.005 A 
ENDROOT
BRANCH   7  13
ATOM     13  C   UNL d   1      45.139 -16.366  44.412  0.00  0.00     0.265 C 
ATOM     14  N   UNL d   1      45.470 -15.628  44.257  0.00  0.00    -0.272 N 
ATOM     15  C   UNL d   1      45.184 -14.966  44.647  0.00  0.00     0.083 A 
ATOM     16  C   UNL d   1      46.086 -15.548  43.716  0.00  0.00     0.083 A 
ATOM     17  C   UNL d   1      45.509 -14.239  44.496  0.00  0.00     0.018 A 
ATOM     18  C   UNL d   1      45.211 -13.576  44.896  0.00  0.00     0.002 A 
ATOM     19  C   UNL d   1      46.123 -14.155  43.957  0.00  0.00     0.003 A 
ATOM     20  C   UNL d   1      45.536 -12.822  44.750  0.00  0.00     0.000 A 
ATOM     21  C   UNL d   1      46.152 -12.735  44.210  0.00  0.00     0.000 A 
ATOM     22  C   UNL d   1      46.442 -13.405  43.816  0.00  0.00     0.000 A 
ATOM     23  C   UNL d   1      46.411 -14.812  43.567  0.00  0.00     0.019 A 
ATOM     24  O   UNL d   1      44.522 -16.447  44.954  0.00  0.00    -0.267 OA
ENDBRANCH   7  13
BRANCH   1  25
ATOM     25  C   UNL d   1      46.647 -19.696  41.616  0.00  0.00     0.085 C 
BRANCH  25  26
ATOM     26  C   UNL d   1      46.223 -20.011  40.984  0.00  0.00     0.019 C 
ATOM     27  C   UNL d   1      46.638 -20.322  40.338  0.00  0.00     0.002 C 
ENDBRANCH  25  26
ENDBRANCH   1  25
TORSDOF 3
ENDMDL
