MODEL 1
REMARK VINA RESULT:      -4.5      0.000      0.000
REMARK  4 active torsions:
REMARK  status: ('A' for Active; 'I' for Inactive)
REMARK    1  A    between atoms: C_7  and  N_1 
REMARK    2  A    between atoms: C_8  and  C_7 
REMARK       I    between atoms: N_11  and  C_8 
REMARK    3  A    between atoms: C_13  and  N_11 
REMARK    4  A    between atoms: C_15  and  C_13 
ROOT
ATOM      1  C   UNL d   1     -42.102-122.239 -50.631  0.00  0.00     0.148 C 
ENDROOT
BRANCH   1   2
ATOM      2  N   UNL d   1     -42.350-122.657 -49.965  0.00  0.00    -0.235 N 
ATOM      3  C   UNL d   1     -43.090-123.030 -49.965  0.00  0.00     0.273 A 
ATOM      4  C   UNL d   1     -43.336-123.444 -49.304  0.00  0.00     0.086 A 
ATOM      5  O   UNL d   1     -43.576-122.982 -50.632  0.00  0.00    -0.266 OA
ATOM      6  C   UNL d   1     -44.079-123.817 -49.306  0.00  0.00     0.012 C 
ATOM      7  S   UNL d   1     -42.861-123.496 -48.639  0.00  0.00    -0.077 SA
ATOM      8  C   UNL d   1     -42.128-123.128 -48.635  0.00  0.00     0.086 A 
ATOM      9  C   UNL d   1     -41.865-122.707 -49.294  0.00  0.00     0.273 A 
ATOM     10  C   UNL d   1     -41.645-123.177 -47.969  0.00  0.00     0.012 C 
ATOM     11  O   UNL d   1     -41.130-122.337 -49.293  0.00  0.00    -0.266 OA
ENDBRANCH   1   2
BRANCH   1  12
ATOM     12  C   UNL d   1     -41.664-122.621 -51.215  0.00  0.00     0.297 C 
ATOM     13  N   UNL d   1     -41.757-122.423 -52.006  0.00  0.00    -0.205 NA
ATOM     14  O   UNL d   1     -41.127-123.210 -51.000  0.00  0.00    -0.264 OA
BRANCH  13  15
ATOM     15  C   UNL d   1     -41.325-122.799 -52.592  0.00  0.00     0.102 C 
BRANCH  15  16
ATOM     16  C   UNL d   1     -41.482-122.664 -53.392  0.00  0.00     0.019 A 
ATOM     17  C   UNL d   1     -41.244-123.220 -53.953  0.00  0.00     0.004 A 
ATOM     18  C   UNL d   1     -41.400-123.089 -54.756  0.00  0.00     0.030 A 
ATOM     19  C   UNL d   1     -41.791-122.405 -54.986  0.00  0.00     0.140 A 
ATOM     20  C   UNL d   1     -42.030-121.849 -54.425  0.00  0.00     0.030 A 
ATOM     21  F   UNL d   1     -41.952-122.265 -55.786  0.00  0.00    -0.204 F 
ATOM     22  C   UNL d   1     -41.875-121.978 -53.619  0.00  0.00     0.004 A 
ENDBRANCH  15  16
ENDBRANCH  13  15
ENDBRANCH   1  12
TORSDOF 4
ENDMDL
MODEL 2
REMARK VINA RESULT:      -4.1      2.593      4.914
REMARK  4 active torsions:
REMARK  status: ('A' for Active; 'I' for Inactive)
REMARK    1  A    between atoms: C_7  and  N_1 
REMARK    2  A    between atoms: C_8  and  C_7 
REMARK       I    between atoms: N_11  and  C_8 
REMARK    3  A    between atoms: C_13  and  N_11 
REMARK    4  A    between atoms: C_15  and  C_13 
ROOT
ATOM      1  C   UNL d   1     -42.404-122.213 -52.884  0.00  0.00     0.148 C 
ENDROOT
BRANCH   1   2
ATOM      2  N   UNL d   1     -42.135-122.320 -53.657  0.00  0.00    -0.235 N 
ATOM      3  C   UNL d   1     -42.242-121.718 -54.216  0.00  0.00     0.273 A 
ATOM      4  C   UNL d   1     -41.976-121.823 -54.981  0.00  0.00     0.086 A 
ATOM      5  O   UNL d   1     -42.616-121.013 -53.997  0.00  0.00    -0.266 OA
ATOM      6  C   UNL d   1     -42.083-121.217 -55.541  0.00  0.00     0.012 C 
ATOM      7  S   UNL d   1     -41.604-122.517 -55.207  0.00  0.00    -0.077 SA
ATOM      8  C   UNL d   1     -41.497-123.115 -54.656  0.00  0.00     0.086 A 
ATOM      9  C   UNL d   1     -41.760-123.025 -53.879  0.00  0.00     0.273 A 
ATOM     10  C   UNL d   1     -41.123-123.817 -54.876  0.00  0.00     0.012 C 
ATOM     11  O   UNL d   1     -41.653-123.624 -53.325  0.00  0.00    -0.266 OA
ENDBRANCH   1   2
BRANCH   1  12
ATOM     12  C   UNL d   1     -41.862-122.120 -52.271  0.00  0.00     0.297 C 
ATOM     13  N   UNL d   1     -42.028-122.402 -51.518  0.00  0.00    -0.205 NA
ATOM     14  O   UNL d   1     -41.144-121.740 -52.417  0.00  0.00    -0.264 OA
BRANCH  13  15
ATOM     15  C   UNL d   1     -41.494-122.313 -50.903  0.00  0.00     0.102 C 
BRANCH  15  16
ATOM     16  C   UNL d   1     -41.648-122.626 -50.155  0.00  0.00     0.019 A 
ATOM     17  C   UNL d   1     -41.123-123.169 -49.824  0.00  0.00     0.004 A 
ATOM     18  C   UNL d   1     -41.274-123.485 -49.073  0.00  0.00     0.030 A 
ATOM     19  C   UNL d   1     -41.948-123.254 -48.664  0.00  0.00     0.140 A 
ATOM     20  C   UNL d   1     -42.473-122.711 -48.995  0.00  0.00     0.030 A 
ATOM     21  F   UNL d   1     -42.107-123.565 -47.914  0.00  0.00    -0.204 F 
ATOM     22  C   UNL d   1     -42.324-122.392 -49.748  0.00  0.00     0.004 A 
ENDBRANCH  15  16
ENDBRANCH  13  15
ENDBRANCH   1  12
TORSDOF 4
ENDMDL
MODEL 3
REMARK VINA RESULT:      -2.6      2.534      4.894
REMARK  4 active torsions:
REMARK  status: ('A' for Active; 'I' for Inactive)
REMARK    1  A    between atoms: C_7  and  N_1 
REMARK    2  A    between atoms: C_8  and  C_7 
REMARK       I    between atoms: N_11  and  C_8 
REMARK    3  A    between atoms: C_13  and  N_11 
REMARK    4  A    between atoms: C_15  and  C_13 
ROOT
ATOM      1  C   UNL d   1     -41.184-122.569 -51.972  0.00  0.00     0.148 C 
ENDROOT
BRANCH   1   2
ATOM      2  N   UNL d   1     -41.435-122.451 -52.749  0.00  0.00    -0.235 N 
ATOM      3  C   UNL d   1     -41.404-123.078 -53.291  0.00  0.00     0.273 A 
ATOM      4  C   UNL d   1     -41.652-122.962 -54.060  0.00  0.00     0.086 A 
ATOM      5  O   UNL d   1     -41.123-123.817 -53.050  0.00  0.00    -0.266 OA
ATOM      6  C   UNL d   1     -41.620-123.592 -54.603  0.00  0.00     0.012 C 
ATOM      7  S   UNL d   1     -41.932-122.233 -54.308  0.00  0.00    -0.077 SA
ATOM      8  C   UNL d   1     -41.964-121.610 -53.775  0.00  0.00     0.086 A 
ATOM      9  C   UNL d   1     -41.717-121.711 -52.994  0.00  0.00     0.273 A 
ATOM     10  C   UNL d   1     -42.245-120.873 -54.016  0.00  0.00     0.012 C 
ATOM     11  O   UNL d   1     -41.749-121.088 -52.457  0.00  0.00    -0.266 OA
ENDBRANCH   1   2
BRANCH   1  12
ATOM     12  C   UNL d   1     -41.624-123.048 -51.468  0.00  0.00     0.297 C 
ATOM     13  N   UNL d   1     -41.579-122.954 -50.654  0.00  0.00    -0.205 NA
ATOM     14  O   UNL d   1     -42.116-123.629 -51.786  0.00  0.00    -0.264 OA
BRANCH  13  15
ATOM     15  C   UNL d   1     -42.014-123.427 -50.145  0.00  0.00     0.102 C 
BRANCH  15  16
ATOM     16  C   UNL d   1     -41.983-123.317 -49.328  0.00  0.00     0.019 A 
ATOM     17  C   UNL d   1     -41.269-123.424 -48.928  0.00  0.00     0.004 A 
ATOM     18  C   UNL d   1     -41.233-123.314 -48.108  0.00  0.00     0.030 A 
ATOM     19  C   UNL d   1     -41.912-123.100 -47.699  0.00  0.00     0.140 A 
ATOM     20  C   UNL d   1     -42.626-122.993 -48.097  0.00  0.00     0.030 A 
ATOM     21  F   UNL d   1     -41.886-122.988 -46.879  0.00  0.00    -0.204 F 
ATOM     22  C   UNL d   1     -42.665-123.102 -48.920  0.00  0.00     0.004 A 
ENDBRANCH  15  16
ENDBRANCH  13  15
ENDBRANCH   1  12
TORSDOF 4
ENDMDL
