MODEL 1
REMARK VINA RESULT:      -3.7      0.000      0.000
REMARK  4 active torsions:
REMARK  status: ('A' for Active; 'I' for Inactive)
REMARK    1  A    between atoms: C_12  and  N_3 
REMARK    2  A    between atoms: C_13  and  N_10 
REMARK    3  A    between atoms: C_21  and  C_12 
REMARK    4  A    between atoms: C_16  and  C_13 
ROOT
ATOM      1  C   UNL d   1      33.237  20.202 -23.421  0.00  0.00     0.191 A 
ATOM      2  C   UNL d   1      33.235  19.685 -22.780  0.00  0.00     0.173 A 
ATOM      3  N   UNL d   1      33.236  18.571 -23.669  0.00  0.00    -0.224 N 
ATOM      4  N   UNL d   1      33.236  20.974 -23.127  0.00  0.00    -0.042 NA
ATOM      5  C   UNL d   1      33.235  20.927 -22.297  0.00  0.00     0.722 A 
ATOM      6  N   UNL d   1      33.234  20.132 -22.086  0.00  0.00    -0.131 N 
ATOM      7  N   UNL d   1      33.238  19.898 -24.193  0.00  0.00    -0.240 N 
ATOM      8  C   UNL d   1      33.237  19.087 -24.316  0.00  0.00     0.343 A 
ATOM      9  C   UNL d   1      33.235  18.866 -22.899  0.00  0.00     0.288 A 
ATOM     10  N   UNL d   1      33.234  21.374 -21.609  0.00  0.00    -0.135 N 
ATOM     11  C   UNL d   1      33.232  20.090 -21.268  0.00  0.00     0.118 A 
ATOM     12  O   UNL d   1      33.239  18.783 -25.088  0.00  0.00    -0.245 OA
ATOM     13  O   UNL d   1      33.233  18.349 -22.251  0.00  0.00    -0.265 OA
ATOM     14  C   UNL d   1      33.232  20.854 -20.965  0.00  0.00     0.118 A 
ATOM     15  C   UNL d   1      33.239  20.415 -24.841  0.00  0.00     0.105 C 
ENDROOT
BRANCH   3  16
ATOM     16  C   UNL d   1      33.236  17.754 -23.791  0.00  0.00     0.087 C 
BRANCH  16  17
ATOM     17  C   UNL d   1      32.512  17.334 -23.842  0.00  0.00     0.018 A 
ATOM     18  C   UNL d   1      32.422  16.625 -23.457  0.00  0.00     0.002 A 
ATOM     19  C   UNL d   1      31.714  16.216 -23.508  0.00  0.00     0.000 A 
ATOM     20  C   UNL d   1      31.617  15.497 -23.121  0.00  0.00     0.000 C 
ATOM     21  C   UNL d   1      31.090  16.528 -23.953  0.00  0.00     0.000 A 
ATOM     22  C   UNL d   1      31.171  17.247 -24.346  0.00  0.00     0.000 A 
ATOM     23  C   UNL d   1      31.882  17.650 -24.291  0.00  0.00     0.002 A 
ENDBRANCH  16  17
ENDBRANCH   3  16
BRANCH  10  24
ATOM     24  C   UNL d   1      33.234  22.198 -21.562  0.00  0.00     0.123 C 
BRANCH  24  25
ATOM     25  C   UNL d   1      32.891  22.572 -20.904  0.00  0.00     0.118 A 
ATOM     26  O   UNL d   1      33.202  22.609 -20.147  0.00  0.00    -0.304 OA
ATOM     27  C   UNL d   1      32.688  23.027 -19.676  0.00  0.00     0.123 A 
ATOM     28  C   UNL d   1      32.041  23.257 -20.145  0.00  0.00     0.029 A 
ATOM     29  C   UNL d   1      32.171  22.972 -20.909  0.00  0.00     0.028 A 
ENDBRANCH  24  25
ENDBRANCH  10  24
TORSDOF 4
ENDMDL
MODEL 2
REMARK VINA RESULT:      -1.5      1.165      5.091
REMARK  4 active torsions:
REMARK  status: ('A' for Active; 'I' for Inactive)
REMARK    1  A    between atoms: C_12  and  N_3 
REMARK    2  A    between atoms: C_13  and  N_10 
REMARK    3  A    between atoms: C_21  and  C_12 
REMARK    4  A    between atoms: C_16  and  C_13 
ROOT
ATOM      1  C   UNL d   1      33.016  20.985 -23.609  0.00  0.00     0.191 A 
ATOM      2  C   UNL d   1      33.085  20.814 -22.806  0.00  0.00     0.173 A 
ATOM      3  N   UNL d   1      33.166  22.207 -22.510  0.00  0.00    -0.224 N 
ATOM      4  N   UNL d   1      32.950  20.270 -24.017  0.00  0.00    -0.042 NA
ATOM      5  C   UNL d   1      32.979  19.656 -23.457  0.00  0.00     0.722 A 
ATOM      6  N   UNL d   1      33.062  19.995 -22.712  0.00  0.00    -0.131 N 
ATOM      7  N   UNL d   1      33.022  21.775 -23.863  0.00  0.00    -0.240 N 
ATOM      8  C   UNL d   1      33.097  22.382 -23.316  0.00  0.00     0.343 A 
ATOM      9  C   UNL d   1      33.160  21.424 -22.251  0.00  0.00     0.288 A 
ATOM     10  N   UNL d   1      32.957  18.842 -23.366  0.00  0.00    -0.135 N 
ATOM     11  C   UNL d   1      33.090  19.388 -22.163  0.00  0.00     0.118 A 
ATOM     12  O   UNL d   1      33.103  23.172 -23.570  0.00  0.00    -0.245 OA
ATOM     13  O   UNL d   1      33.229  21.248 -21.444  0.00  0.00    -0.265 OA
ATOM     14  C   UNL d   1      33.026  18.671 -22.559  0.00  0.00     0.118 A 
ATOM     15  C   UNL d   1      32.953  21.950 -24.669  0.00  0.00     0.105 C 
ENDROOT
BRANCH   3  16
ATOM     16  C   UNL d   1      33.241  22.817 -21.958  0.00  0.00     0.087 C 
BRANCH  16  17
ATOM     17  C   UNL d   1      32.567  23.106 -21.553  0.00  0.00     0.018 A 
ATOM     18  C   UNL d   1      32.536  23.083 -20.742  0.00  0.00     0.002 A 
ATOM     19  C   UNL d   1      31.877  23.365 -20.347  0.00  0.00     0.000 A 
ATOM     20  C   UNL d   1      31.839  23.345 -19.525  0.00  0.00     0.000 C 
ATOM     21  C   UNL d   1      31.241  23.674 -20.777  0.00  0.00     0.000 A 
ATOM     22  C   UNL d   1      31.262  23.702 -21.600  0.00  0.00     0.000 A 
ATOM     23  C   UNL d   1      31.925  23.418 -21.988  0.00  0.00     0.002 A 
ENDBRANCH  16  17
ENDBRANCH   3  16
BRANCH  10  24
ATOM     24  C   UNL d   1      32.878  18.286 -23.971  0.00  0.00     0.123 C 
BRANCH  24  25
ATOM     25  C   UNL d   1      32.303  17.689 -23.908  0.00  0.00     0.118 A 
ATOM     26  O   UNL d   1      31.524  17.734 -24.159  0.00  0.00    -0.304 OA
ATOM     27  C   UNL d   1      31.157  17.029 -23.991  0.00  0.00     0.123 A 
ATOM     28  C   UNL d   1      31.714  16.529 -23.628  0.00  0.00     0.029 A 
ATOM     29  C   UNL d   1      32.426  16.944 -23.578  0.00  0.00     0.028 A 
ENDBRANCH  24  25
ENDBRANCH  10  24
TORSDOF 4
ENDMDL
MODEL 3
REMARK VINA RESULT:      -1.2      2.623      5.727
REMARK  4 active torsions:
REMARK  status: ('A' for Active; 'I' for Inactive)
REMARK    1  A    between atoms: C_12  and  N_3 
REMARK    2  A    between atoms: C_13  and  N_10 
REMARK    3  A    between atoms: C_21  and  C_12 
REMARK    4  A    between atoms: C_16  and  C_13 
ROOT
ATOM      1  C   UNL d   1      31.172  16.162 -23.667  0.00  0.00     0.191 A 
ATOM      2  C   UNL d   1      31.059  16.775 -24.205  0.00  0.00     0.173 A 
ATOM      3  N   UNL d   1      32.393  17.228 -23.979  0.00  0.00    -0.224 N 
ATOM      4  N   UNL d   1      30.472  15.726 -23.627  0.00  0.00    -0.042 NA
ATOM      5  C   UNL d   1      29.926  16.076 -24.146  0.00  0.00     0.722 A 
ATOM      6  N   UNL d   1      30.291  16.723 -24.501  0.00  0.00    -0.131 N 
ATOM      7  N   UNL d   1      31.903  16.083 -23.282  0.00  0.00    -0.240 N 
ATOM      8  C   UNL d   1      32.510  16.613 -23.438  0.00  0.00     0.343 A 
ATOM      9  C   UNL d   1      31.669  17.313 -24.365  0.00  0.00     0.288 A 
ATOM     10  N   UNL d   1      29.162  16.022 -24.439  0.00  0.00    -0.135 N 
ATOM     11  C   UNL d   1      29.751  17.066 -25.012  0.00  0.00     0.118 A 
ATOM     12  O   UNL d   1      33.241  16.534 -23.053  0.00  0.00    -0.245 OA
ATOM     13  O   UNL d   1      31.551  17.929 -24.908  0.00  0.00    -0.265 OA
ATOM     14  C   UNL d   1      29.050  16.638 -24.980  0.00  0.00     0.118 A 
ATOM     15  C   UNL d   1      32.021  15.468 -22.740  0.00  0.00     0.105 C 
ENDROOT
BRANCH   3  16
ATOM     16  C   UNL d   1      33.002  17.763 -24.137  0.00  0.00     0.087 C 
BRANCH  16  17
ATOM     17  C   UNL d   1      33.074  18.467 -23.689  0.00  0.00     0.018 A 
ATOM     18  C   UNL d   1      33.099  19.189 -24.060  0.00  0.00     0.002 A 
ATOM     19  C   UNL d   1      33.169  19.876 -23.621  0.00  0.00     0.000 A 
ATOM     20  C   UNL d   1      33.195  20.610 -23.991  0.00  0.00     0.000 C 
ATOM     21  C   UNL d   1      33.213  19.833 -22.795  0.00  0.00     0.000 A 
ATOM     22  C   UNL d   1      33.189  19.106 -22.409  0.00  0.00     0.000 A 
ATOM     23  C   UNL d   1      33.119  18.423 -22.856  0.00  0.00     0.002 A 
ENDBRANCH  16  17
ENDBRANCH   3  16
BRANCH  10  24
ATOM     24  C   UNL d   1      28.601  15.454 -24.233  0.00  0.00     0.123 C 
BRANCH  24  25
ATOM     25  C   UNL d   1      27.933  15.677 -23.792  0.00  0.00     0.118 A 
ATOM     26  O   UNL d   1      27.929  16.131 -23.110  0.00  0.00    -0.304 OA
ATOM     27  C   UNL d   1      27.160  16.216 -22.860  0.00  0.00     0.123 A 
ATOM     28  C   UNL d   1      26.670  15.808 -23.394  0.00  0.00     0.029 A 
ATOM     29  C   UNL d   1      27.155  15.474 -23.973  0.00  0.00     0.028 A 
ENDBRANCH  24  25
ENDBRANCH  10  24
TORSDOF 4
ENDMDL
