MODEL 1
REMARK VINA RESULT:      12.2      0.000      0.000
REMARK  6 active torsions:
REMARK  status: ('A' for Active; 'I' for Inactive)
REMARK    1  A    between atoms: S_2  and  C_1 
REMARK    2  A    between atoms: C_9  and  S_2 
REMARK    3  A    between atoms: N_10  and  C_6 
REMARK    4  A    between atoms: C_13  and  N_10 
REMARK    5  A    between atoms: N_12  and  C_14 
REMARK    6  A    between atoms: C_14  and  C_13 
ROOT
ATOM      1  C   UNL d   1      45.689 -15.357  44.337  0.00  0.00     0.187 A 
ATOM      2  N   UNL d   1      46.289 -15.870  44.111  0.00  0.00    -0.208 NA
ATOM      3  C   UNL d   1      45.075 -15.805  44.656  0.00  0.00     0.118 A 
ATOM      4  S   UNL d   1      45.301 -16.596  44.625  0.00  0.00    -0.035 SA
ATOM      5  C   UNL d   1      46.047 -16.637  44.290  0.00  0.00     0.196 A 
ATOM      6 CL   UNL d   1      44.362 -15.515  44.954  0.00  0.00    -0.073 Cl
ENDROOT
BRANCH   1   7
ATOM      7  S   UNL d   1      45.696 -14.539  44.261  0.00  0.00     0.228 S 
ATOM      8  O   UNL d   1      46.462 -14.464  44.545  0.00  0.00    -0.216 OA
ATOM      9  O   UNL d   1      44.931 -14.607  43.978  0.00  0.00    -0.216 OA
BRANCH   7  10
ATOM     10  C   UNL d   1      45.622 -13.718  44.154  0.00  0.00     0.089 A 
ATOM     11  C   UNL d   1      45.837 -13.208  44.760  0.00  0.00     0.011 A 
ATOM     12  C   UNL d   1      45.764 -12.385  44.657  0.00  0.00     0.001 A 
ATOM     13  C   UNL d   1      45.475 -12.082  43.940  0.00  0.00     0.000 A 
ATOM     14  C   UNL d   1      45.258 -12.604  43.326  0.00  0.00     0.001 A 
ATOM     15  C   UNL d   1      45.330 -13.421  43.431  0.00  0.00     0.011 A 
ENDBRANCH   7  10
ENDBRANCH   1   7
BRANCH   5  16
ATOM     16  N   UNL d   1      46.477 -17.323  44.157  0.00  0.00    -0.218 NA
BRANCH  16  17
ATOM     17  C   UNL d   1      46.212 -17.856  43.594  0.00  0.00     0.120 C 
BRANCH  17  18
ATOM     18  C   UNL d   1      46.357 -18.659  43.693  0.00  0.00     0.101 C 
BRANCH  18  19
ATOM     19  N   UNL d   1      46.185 -19.158  43.056  0.00  0.00    -0.299 N 
ATOM     20  C   UNL d   1      46.359 -18.909  42.296  0.00  0.00     0.100 C 
ATOM     21  C   UNL d   1      45.845 -19.891  43.187  0.00  0.00     0.100 C 
ENDBRANCH  18  19
ENDBRANCH  17  18
ENDBRANCH  16  17
ENDBRANCH   5  16
TORSDOF 6
ENDMDL
