MODEL 1
REMARK VINA RESULT:      23.0      0.000      0.000
REMARK  2 active torsions:
REMARK  status: ('A' for Active; 'I' for Inactive)
REMARK    1  A    between atoms: C_5  and  C_1 
REMARK    2  A    between atoms: N_2  and  C_6 
ROOT
ATOM      1  C   UNL d   1      44.429 -15.391  36.860  0.00  0.00     0.077 A 
ATOM      2  C   UNL d   1      45.010 -14.309  37.470  0.00  0.00     0.160 A 
ATOM      3  C   UNL d   1      44.262 -14.749  37.305  0.00  0.00     0.024 A 
ATOM      4  C   UNL d   1      45.163 -15.456  36.699  0.00  0.00    -0.014 A 
ATOM      5  C   UNL d   1      45.114 -15.802  36.482  0.00  0.00    -0.014 A 
ATOM      6  C   UNL d   1      45.740 -15.451  36.609  0.00  0.00    -0.000 A 
ATOM      7  C   UNL d   1      45.935 -15.006  36.867  0.00  0.00    -0.000 A 
ATOM      8  C   UNL d   1      45.557 -14.622  37.178  0.00  0.00     0.038 A 
ATOM      9  C   UNL d   1      45.773 -14.380  37.300  0.00  0.00     0.038 A 
ATOM     10  C   UNL d   1      46.645 -15.410  36.489  0.00  0.00    -0.000 A 
ATOM     11  O   UNL d   1      44.833 -13.727  37.877  0.00  0.00    -0.290 OA
ENDROOT
BRANCH   1  12
ATOM     12  C   UNL d   1      43.621 -15.500  36.920  0.00  0.00    -0.011 A 
ATOM     13  C   UNL d   1      43.193 -15.167  37.536  0.00  0.00    -0.002 A 
ATOM     14  C   UNL d   1      42.368 -15.283  37.590  0.00  0.00     0.023 A 
ATOM     15  C   UNL d   1      41.988 -15.737  37.016  0.00  0.00     0.127 A 
ATOM     16  C   UNL d   1      42.422 -16.070  36.399  0.00  0.00     0.023 A 
ATOM     17  C   UNL d   1      43.247 -15.946  36.357  0.00  0.00    -0.002 A 
BRANCH  15  18
ATOM     18  N   UNL d   1      41.172 -15.861  37.055  0.00  0.00    -0.114 N 
ATOM     19  O   UNL d   1      40.856 -16.065  37.785  0.00  0.00    -0.532 OA
ATOM     20  O   UNL d   1      40.678 -15.779  36.361  0.00  0.00    -0.532 OA
ENDBRANCH  15  18
ENDBRANCH   1  12
TORSDOF 2
ENDMDL
MODEL 2
REMARK VINA RESULT:      25.6      1.545      3.701
REMARK  2 active torsions:
REMARK  status: ('A' for Active; 'I' for Inactive)
REMARK    1  A    between atoms: C_5  and  C_1 
REMARK    2  A    between atoms: N_2  and  C_6 
ROOT
ATOM      1  C   UNL d   1      43.076 -15.621  36.764  0.00  0.00     0.077 A 
ATOM      2  C   UNL d   1      42.139 -14.910  37.470  0.00  0.00     0.160 A 
ATOM      3  C   UNL d   1      42.995 -15.013  37.277  0.00  0.00     0.024 A 
ATOM      4  C   UNL d   1      42.419 -15.943  36.581  0.00  0.00    -0.014 A 
ATOM      5  C   UNL d   1      42.592 -16.220  36.331  0.00  0.00    -0.014 A 
ATOM      6  C   UNL d   1      41.882 -16.147  36.479  0.00  0.00    -0.000 A 
ATOM      7  C   UNL d   1      41.537 -15.839  36.777  0.00  0.00    -0.000 A 
ATOM      8  C   UNL d   1      41.747 -15.375  37.134  0.00  0.00     0.038 A 
ATOM      9  C   UNL d   1      41.457 -15.247  37.276  0.00  0.00     0.038 A 
ATOM     10  C   UNL d   1      41.026 -16.441  36.344  0.00  0.00    -0.000 A 
ATOM     11  O   UNL d   1      42.090 -14.350  37.938  0.00  0.00    -0.290 OA
ENDROOT
BRANCH   1  12
ATOM     12  C   UNL d   1      43.866 -15.421  36.831  0.00  0.00    -0.011 A 
ATOM     13  C   UNL d   1      44.429 -15.748  36.331  0.00  0.00    -0.002 A 
ATOM     14  C   UNL d   1      45.234 -15.539  36.405  0.00  0.00     0.023 A 
ATOM     15  C   UNL d   1      45.457 -14.998  36.988  0.00  0.00     0.127 A 
ATOM     16  C   UNL d   1      44.887 -14.672  37.487  0.00  0.00     0.023 A 
ATOM     17  C   UNL d   1      44.085 -14.891  37.401  0.00  0.00    -0.002 A 
BRANCH  15  18
ATOM     18  N   UNL d   1      46.249 -14.781  37.074  0.00  0.00    -0.114 N 
ATOM     19  O   UNL d   1      46.637 -15.033  37.751  0.00  0.00    -0.532 OA
ATOM     20  O   UNL d   1      46.646 -14.311  36.477  0.00  0.00    -0.532 OA
ENDBRANCH  15  18
ENDBRANCH   1  12
TORSDOF 2
ENDMDL
