MODEL 1
REMARK VINA RESULT:      -6.4      0.000      0.000
REMARK  2 active torsions:
REMARK  status: ('A' for Active; 'I' for Inactive)
REMARK    1  A    between atoms: C_2  and  N_1 
REMARK    2  A    between atoms: C_5  and  C_7 
ROOT
ATOM      1  C   UNL d   1     -41.501-122.703 -52.990  0.00  0.00     0.070 A 
ATOM      2  C   UNL d   1     -41.880-122.212 -53.539  0.00  0.00     0.024 A 
ATOM      3  C   UNL d   1     -41.882-122.410 -54.333  0.00  0.00     0.066 A 
ATOM      4  C   UNL d   1     -41.123-123.391 -53.235  0.00  0.00     0.018 A 
ATOM      5  C   UNL d   1     -41.502-123.104 -54.583  0.00  0.00     0.006 A 
ATOM      6  C   UNL d   1     -41.123-123.594 -54.034  0.00  0.00     0.002 A 
ENDROOT
BRANCH   1   7
ATOM      7  N   UNL d   1     -41.497-122.507 -52.189  0.00  0.00    -0.242 N 
ATOM      8  C   UNL d   1     -41.660-123.005 -51.548  0.00  0.00     0.267 A 
ATOM      9  C   UNL d   1     -41.590-122.573 -50.855  0.00  0.00     0.066 A 
ATOM     10  O   UNL d   1     -41.867-123.815 -51.555  0.00  0.00    -0.267 OA
ATOM     11  C   UNL d   1     -41.380-121.797 -51.053  0.00  0.00     0.066 A 
ATOM     12  C   UNL d   1     -41.324-121.758 -51.875  0.00  0.00     0.267 A 
ATOM     13  O   UNL d   1     -41.123-121.061 -52.279  0.00  0.00    -0.267 OA
ENDBRANCH   1   7
BRANCH   3  14
ATOM     14  C   UNL d   1     -42.255-121.932 -54.887  0.00  0.00     0.211 C 
ATOM     15  O   UNL d   1     -43.067-121.825 -54.870  0.00  0.00    -0.644 OA
ATOM     16  O   UNL d   1     -41.797-121.556 -55.468  0.00  0.00    -0.644 OA
ENDBRANCH   3  14
TORSDOF 2
ENDMDL
MODEL 2
REMARK VINA RESULT:      -5.2      1.641      3.784
REMARK  2 active torsions:
REMARK  status: ('A' for Active; 'I' for Inactive)
REMARK    1  A    between atoms: C_2  and  N_1 
REMARK    2  A    between atoms: C_5  and  C_7 
ROOT
ATOM      1  C   UNL d   1     -41.663-122.955 -50.872  0.00  0.00     0.070 A 
ATOM      2  C   UNL d   1     -42.354-122.754 -50.462  0.00  0.00     0.024 A 
ATOM      3  C   UNL d   1     -42.505-123.079 -49.727  0.00  0.00     0.066 A 
ATOM      4  C   UNL d   1     -41.123-123.483 -50.547  0.00  0.00     0.018 A 
ATOM      5  C   UNL d   1     -41.961-123.612 -49.396  0.00  0.00     0.006 A 
ATOM      6  C   UNL d   1     -41.270-123.814 -49.806  0.00  0.00     0.002 A 
ENDROOT
BRANCH   1   7
ATOM      7  N   UNL d   1     -41.509-122.629 -51.613  0.00  0.00    -0.242 N 
ATOM      8  C   UNL d   1     -41.269-121.854 -51.782  0.00  0.00     0.267 A 
ATOM      9  C   UNL d   1     -41.181-121.777 -52.593  0.00  0.00     0.066 A 
ATOM     10  O   UNL d   1     -41.128-121.223 -51.252  0.00  0.00    -0.267 OA
ATOM     11  C   UNL d   1     -41.365-122.505 -52.944  0.00  0.00     0.066 A 
ATOM     12  C   UNL d   1     -41.566-123.028 -52.339  0.00  0.00     0.267 A 
ATOM     13  O   UNL d   1     -41.784-123.816 -52.480  0.00  0.00    -0.267 OA
ENDBRANCH   1   7
BRANCH   3  14
ATOM     14  C   UNL d   1     -43.185-122.888 -49.310  0.00  0.00     0.211 C 
ATOM     15  O   UNL d   1     -43.917-123.167 -49.551  0.00  0.00    -0.644 OA
ATOM     16  O   UNL d   1     -43.124-122.406 -48.637  0.00  0.00    -0.644 OA
ENDBRANCH   3  14
TORSDOF 2
ENDMDL
MODEL 3
REMARK VINA RESULT:      -4.5      1.141      3.148
REMARK  2 active torsions:
REMARK  status: ('A' for Active; 'I' for Inactive)
REMARK    1  A    between atoms: C_2  and  N_1 
REMARK    2  A    between atoms: C_5  and  C_7 
ROOT
ATOM      1  C   UNL d   1     -41.650-122.782 -53.266  0.00  0.00     0.070 A 
ATOM      2  C   UNL d   1     -41.842-122.265 -52.648  0.00  0.00     0.024 A 
ATOM      3  C   UNL d   1     -41.676-122.472 -51.875  0.00  0.00     0.066 A 
ATOM      4  C   UNL d   1     -41.292-123.506 -53.111  0.00  0.00     0.018 A 
ATOM      5  C   UNL d   1     -41.315-123.201 -51.714  0.00  0.00     0.006 A 
ATOM      6  C   UNL d   1     -41.123-123.718 -52.332  0.00  0.00     0.002 A 
ENDROOT
BRANCH   1   7
ATOM      7  N   UNL d   1     -41.817-122.577 -54.047  0.00  0.00    -0.242 N 
ATOM      8  C   UNL d   1     -41.617-121.874 -54.437  0.00  0.00     0.267 A 
ATOM      9  C   UNL d   1     -41.894-121.912 -55.208  0.00  0.00     0.066 A 
ATOM     10  O   UNL d   1     -41.206-121.210 -54.139  0.00  0.00    -0.267 OA
ATOM     11  C   UNL d   1     -42.271-122.643 -55.312  0.00  0.00     0.066 A 
ATOM     12  C   UNL d   1     -42.223-123.050 -54.596  0.00  0.00     0.267 A 
ATOM     13  O   UNL d   1     -42.542-123.809 -54.489  0.00  0.00    -0.267 OA
ENDBRANCH   1   7
BRANCH   3  14
ATOM     14  C   UNL d   1     -41.861-121.969 -51.253  0.00  0.00     0.211 C 
ATOM     15  O   UNL d   1     -42.614-121.963 -50.928  0.00  0.00    -0.644 OA
ATOM     16  O   UNL d   1     -41.275-121.463 -50.955  0.00  0.00    -0.644 OA
ENDBRANCH   3  14
TORSDOF 2
ENDMDL
