MODEL 1
REMARK VINA RESULT:      29.5      0.000      0.000
REMARK  4 active torsions:
REMARK  status: ('A' for Active; 'I' for Inactive)
REMARK    1  A    between atoms: N_5  and  C_9 
REMARK    2  A    between atoms: O_11  and  C_8 
REMARK    3  A    between atoms: C_20  and  O_11 
REMARK    4  A    between atoms: C_21  and  C_20 
ROOT
ATOM      1  C   UNL d   1      46.291 -18.641  41.872  0.00  0.00     0.009 A 
ATOM      2  C   UNL d   1      46.372 -19.051  42.578  0.00  0.00     0.046 A 
ATOM      3  C   UNL d   1      46.370 -19.025  41.155  0.00  0.00     0.064 A 
ATOM      4  C   UNL d   1      46.532 -19.831  41.139  0.00  0.00     0.300 A 
ATOM      5  C   UNL d   1      46.534 -19.858  42.576  0.00  0.00     0.105 A 
ATOM      6  O   UNL d   1      46.614 -20.251  41.841  0.00  0.00    -0.273 OA
ATOM      7  C   UNL d   1      46.291 -18.655  43.305  0.00  0.00     0.102 A 
ATOM      8  C   UNL d   1      46.616 -20.277  43.274  0.00  0.00     0.025 A 
ATOM      9  C   UNL d   1      46.374 -19.078  44.020  0.00  0.00     0.025 A 
ATOM     10  O   UNL d   1      46.614 -20.236  40.412  0.00  0.00    -0.259 OA
ATOM     11  C   UNL d   1      46.536 -19.885  43.996  0.00  0.00     0.004 A 
ATOM     12  C   UNL d   1      46.128 -17.830  41.887  0.00  0.00     0.000 A 
ATOM     13  C   UNL d   1      46.289 -18.614  40.443  0.00  0.00     0.005 A 
ATOM     14  C   UNL d   1      46.619 -20.304  44.711  0.00  0.00     0.000 C 
ATOM     15  C   UNL d   1      46.044 -17.403  41.185  0.00  0.00     0.000 A 
ATOM     16  C   UNL d   1      46.126 -17.804  40.459  0.00  0.00     0.000 A 
ENDROOT
BRANCH   7  17
ATOM     17  O   UNL d   1      46.130 -17.857  43.316  0.00  0.00    -0.305 OA
BRANCH  17  18
ATOM     18  C   UNL d   1      46.208 -17.425  44.024  0.00  0.00     0.122 C 
BRANCH  18  19
ATOM     19  C   UNL d   1      46.071 -16.614  44.018  0.00  0.00     0.025 A 
ATOM     20  C   UNL d   1      46.642 -16.104  43.708  0.00  0.00     0.004 A 
ATOM     21  C   UNL d   1      46.516 -15.295  43.698  0.00  0.00     0.024 A 
ATOM     22  C   UNL d   1      45.815 -14.987  43.999  0.00  0.00     0.127 A 
ATOM     23  C   UNL d   1      45.237 -15.484  44.312  0.00  0.00     0.024 A 
ATOM     24  C   UNL d   1      45.369 -16.310  44.321  0.00  0.00     0.004 A 
BRANCH  22  25
ATOM     25  N   UNL d   1      45.679 -14.173  43.993  0.00  0.00    -0.114 N 
ATOM     26  O   UNL d   1      45.797 -13.726  44.668  0.00  0.00    -0.532 OA
ATOM     27  O   UNL d   1      45.422 -13.813  43.296  0.00  0.00    -0.532 OA
ENDBRANCH  22  25
ENDBRANCH  18  19
ENDBRANCH  17  18
ENDBRANCH   7  17
TORSDOF 4
ENDMDL
