MODEL 1
REMARK VINA RESULT:      20.2      0.000      0.000
REMARK  5 active torsions:
REMARK  status: ('A' for Active; 'I' for Inactive)
REMARK    1  A    between atoms: C_2  and  S_1 
REMARK    2  A    between atoms: N_5  and  S_1 
REMARK    3  A    between atoms: O_14  and  C_4 
REMARK    4  A    between atoms: C_11  and  N_5 
REMARK    5  A    between atoms: C_15  and  C_11 
ROOT
ATOM      1  C   UNL d   1      14.439  13.043  -1.691  0.00  0.00     0.128 A 
ATOM      2  C   UNL d   1      14.572  13.832  -1.882  0.00  0.00     0.026 A 
ATOM      3  C   UNL d   1      14.633  12.764  -0.940  0.00  0.00     0.106 A 
ATOM      4  C   UNL d   1      14.899  14.343  -1.324  0.00  0.00     0.059 A 
ATOM      5  C   UNL d   1      14.959  13.276  -0.381  0.00  0.00     0.026 A 
ATOM      6  C   UNL d   1      15.093  14.066  -0.573  0.00  0.00     0.013 A 
ATOM      7 CL   UNL d   1      15.033  15.133  -1.515  0.00  0.00    -0.082 Cl
ATOM      8  C   UNL d   1      15.420  14.577  -0.014  0.00  0.00     0.001 C 
ENDROOT
BRANCH   1   9
ATOM      9  S   UNL d   1      14.112  12.531  -2.249  0.00  0.00     0.287 S 
ATOM     10  O   UNL d   1      14.850  12.176  -2.356  0.00  0.00    -0.198 OA
ATOM     11  O   UNL d   1      13.375  12.886  -2.143  0.00  0.00    -0.198 OA
BRANCH   9  12
ATOM     12  N   UNL d   1      13.785  12.020  -2.808  0.00  0.00    -0.155 NA
BRANCH  12  13
ATOM     13  C   UNL d   1      13.106  12.238  -3.220  0.00  0.00     0.137 C 
BRANCH  13  14
ATOM     14  C   UNL d   1      13.130  12.329  -4.039  0.00  0.00     0.120 A 
ATOM     15  O   UNL d   1      13.408  12.990  -4.447  0.00  0.00    -0.304 OA
ATOM     16  C   UNL d   1      13.331  12.845  -5.250  0.00  0.00     0.123 A 
ATOM     17  C   UNL d   1      13.005  12.094  -5.353  0.00  0.00     0.029 A 
ATOM     18  C   UNL d   1      12.883  11.779  -4.598  0.00  0.00     0.028 A 
ENDBRANCH  13  14
ENDBRANCH  12  13
ENDBRANCH   9  12
ENDBRANCH   1   9
BRANCH   3  19
ATOM     19  O   UNL d   1      14.500  11.971  -0.745  0.00  0.00    -0.327 OA
ATOM     20  C   UNL d   1      14.081  11.779  -0.064  0.00  0.00     0.181 C 
ENDBRANCH   3  19
TORSDOF 5
ENDMDL
