MODEL 1
REMARK VINA RESULT:      -3.0      0.000      0.000
REMARK  6 active torsions:
REMARK  status: ('A' for Active; 'I' for Inactive)
REMARK    1  A    between atoms: N_2  and  S_1 
REMARK    2  A    between atoms: C_6  and  S_1 
REMARK    3  A    between atoms: S_9  and  C_3 
REMARK    4  A    between atoms: N_4  and  C_10 
REMARK    5  A    between atoms: C_19  and  S_9 
REMARK    6  A    between atoms: C_21  and  C_19 
ROOT
ATOM      1  N   UNL d   1      58.127   0.214  30.318  0.00  0.00    -0.208 N 
ATOM      2  C   UNL d   1      58.333  -0.273  29.676  0.00  0.00     0.189 A 
ATOM      3  N   UNL d   1      57.811  -0.115  29.053  0.00  0.00    -0.219 NA
ATOM      4  C   UNL d   1      57.474   0.676  30.087  0.00  0.00     0.114 A 
ATOM      5  C   UNL d   1      57.283   0.470  29.310  0.00  0.00     0.121 A 
ENDROOT
BRANCH   1   6
ATOM      6  S   UNL d   1      58.507   0.234  31.054  0.00  0.00     0.273 S 
ATOM      7  O   UNL d   1      59.200   0.400  30.651  0.00  0.00    -0.200 OA
ATOM      8  O   UNL d   1      59.087   0.304  31.641  0.00  0.00    -0.200 OA
BRANCH   6   9
ATOM      9  C   UNL d   1      57.818   0.068  31.478  0.00  0.00     0.104 A 
ATOM     10  C   UNL d   1      57.514  -0.696  31.470  0.00  0.00     0.015 A 
ATOM     11  C   UNL d   1      56.824  -0.866  31.894  0.00  0.00     0.024 A 
ATOM     12  C   UNL d   1      56.453  -0.263  32.318  0.00  0.00     0.127 A 
ATOM     13  C   UNL d   1      56.764   0.499  32.321  0.00  0.00     0.024 A 
ATOM     14  C   UNL d   1      57.450   0.671  31.900  0.00  0.00     0.015 A 
BRANCH  12  15
ATOM     15  N   UNL d   1      55.756  -0.434  32.746  0.00  0.00    -0.114 N 
ATOM     16  O   UNL d   1      55.631  -1.202  33.032  0.00  0.00    -0.532 OA
ATOM     17  O   UNL d   1      55.199   0.156  32.882  0.00  0.00    -0.532 OA
ENDBRANCH  12  15
ENDBRANCH   6   9
ENDBRANCH   1   6
BRANCH   2  18
ATOM     18  S   UNL d   1      58.957  -0.825  29.665  0.00  0.00    -0.049 SA
BRANCH  18  19
ATOM     19  C   UNL d   1      59.118  -1.248  28.974  0.00  0.00     0.038 C 
BRANCH  19  20
ATOM     20  C   UNL d   1      59.613  -1.905  29.003  0.00  0.00     0.007 A 
ATOM     21  C   UNL d   1      59.306  -2.655  29.149  0.00  0.00     0.003 A 
ATOM     22  C   UNL d   1      59.820  -3.311  29.175  0.00  0.00     0.030 A 
ATOM     23  C   UNL d   1      60.630  -3.208  29.055  0.00  0.00     0.140 A 
ATOM     24  C   UNL d   1      60.939  -2.462  28.908  0.00  0.00     0.030 A 
ATOM     25  F   UNL d   1      61.133  -3.861  29.082  0.00  0.00    -0.204 F 
ATOM     26  C   UNL d   1      60.439  -1.813  28.882  0.00  0.00     0.003 A 
ENDBRANCH  19  20
ENDBRANCH  18  19
ENDBRANCH   2  18
TORSDOF 6
ENDMDL
MODEL 2
REMARK VINA RESULT:      -1.8      2.447      4.468
REMARK  6 active torsions:
REMARK  status: ('A' for Active; 'I' for Inactive)
REMARK    1  A    between atoms: N_2  and  S_1 
REMARK    2  A    between atoms: C_6  and  S_1 
REMARK    3  A    between atoms: S_9  and  C_3 
REMARK    4  A    between atoms: N_4  and  C_10 
REMARK    5  A    between atoms: C_19  and  S_9 
REMARK    6  A    between atoms: C_21  and  C_19 
ROOT
ATOM      1  N   UNL d   1      58.832   0.100  29.431  0.00  0.00    -0.208 N 
ATOM      2  C   UNL d   1      58.149   0.358  29.831  0.00  0.00     0.189 A 
ATOM      3  N   UNL d   1      57.565   0.520  29.267  0.00  0.00    -0.219 NA
ATOM      4  C   UNL d   1      58.665   0.104  28.616  0.00  0.00     0.114 A 
ATOM      5  C   UNL d   1      57.887   0.362  28.519  0.00  0.00     0.121 A 
ENDROOT
BRANCH   1   6
ATOM      6  S   UNL d   1      59.547  -0.121  29.786  0.00  0.00     0.273 S 
ATOM      7  O   UNL d   1      59.597   0.643  30.076  0.00  0.00    -0.200 OA
ATOM      8  O   UNL d   1      60.254  -0.100  30.218  0.00  0.00    -0.200 OA
BRANCH   6   9
ATOM      9  C   UNL d   1      59.514  -0.897  29.503  0.00  0.00     0.104 A 
ATOM     10  C   UNL d   1      59.242  -1.495  29.996  0.00  0.00     0.015 A 
ATOM     11  C   UNL d   1      59.207  -2.273  29.716  0.00  0.00     0.024 A 
ATOM     12  C   UNL d   1      59.448  -2.432  28.943  0.00  0.00     0.127 A 
ATOM     13  C   UNL d   1      59.719  -1.828  28.455  0.00  0.00     0.024 A 
ATOM     14  C   UNL d   1      59.755  -1.054  28.732  0.00  0.00     0.015 A 
BRANCH  12  15
ATOM     15  N   UNL d   1      59.413  -3.218  28.659  0.00  0.00    -0.114 N 
ATOM     16  O   UNL d   1      60.112  -3.656  28.584  0.00  0.00    -0.532 OA
ATOM     17  O   UNL d   1      58.689  -3.552  28.455  0.00  0.00    -0.532 OA
ENDBRANCH  12  15
ENDBRANCH   6   9
ENDBRANCH   1   6
BRANCH   2  18
ATOM     18  S   UNL d   1      58.069   0.439  30.656  0.00  0.00    -0.049 SA
BRANCH  18  19
ATOM     19  C   UNL d   1      57.340   0.289  31.014  0.00  0.00     0.038 C 
BRANCH  19  20
ATOM     20  C   UNL d   1      57.256   0.389  31.827  0.00  0.00     0.007 A 
ATOM     21  C   UNL d   1      57.907   0.568  32.297  0.00  0.00     0.003 A 
ATOM     22  C   UNL d   1      57.806   0.666  33.119  0.00  0.00     0.030 A 
ATOM     23  C   UNL d   1      57.058   0.584  33.457  0.00  0.00     0.140 A 
ATOM     24  C   UNL d   1      56.406   0.405  32.991  0.00  0.00     0.030 A 
ATOM     25  F   UNL d   1      56.965   0.682  34.271  0.00  0.00    -0.204 F 
ATOM     26  C   UNL d   1      56.499   0.308  32.183  0.00  0.00     0.003 A 
ENDBRANCH  19  20
ENDBRANCH  18  19
ENDBRANCH   2  18
TORSDOF 6
ENDMDL
