MODEL 1
REMARK VINA RESULT:      89.7      0.000      0.000
REMARK  5 active torsions:
REMARK  status: ('A' for Active; 'I' for Inactive)
REMARK    1  A    between atoms: S_5  and  C_2 
REMARK    2  A    between atoms: C_12  and  S_5 
REMARK    3  A    between atoms: N_11  and  C_8 
REMARK    4  A    between atoms: C_19  and  N_11 
REMARK    5  A    between atoms: C_32  and  C_26 
ROOT
ATOM      1  C   UNL d   1      45.296 -12.939  41.189  0.00  0.00     0.197 A 
ATOM      2  C   UNL d   1      45.078 -12.813  40.406  0.00  0.00     0.227 A 
ATOM      3  N   UNL d   1      44.788 -12.500  41.672  0.00  0.00    -0.192 N 
ATOM      4  N   UNL d   1      45.895 -13.400  41.530  0.00  0.00    -0.206 NA
ATOM      5  N   UNL d   1      44.428 -12.290  40.399  0.00  0.00    -0.115 NA
ATOM      6  N   UNL d   1      44.253 -12.100  41.188  0.00  0.00    -0.058 NA
ATOM      7  C   UNL d   1      45.989 -13.424  42.356  0.00  0.00     0.166 A 
ATOM      8  C   UNL d   1      45.477 -12.982  42.831  0.00  0.00     0.054 A 
ATOM      9  C   UNL d   1      44.878 -12.520  42.500  0.00  0.00     0.089 A 
ATOM     10  C   UNL d   1      44.368 -12.080  42.976  0.00  0.00     0.020 A 
ATOM     11  C   UNL d   1      45.563 -12.999  43.656  0.00  0.00     0.016 A 
ATOM     12  C   UNL d   1      45.054 -12.560  44.134  0.00  0.00     0.058 A 
ATOM     13  C   UNL d   1      44.458 -12.101  43.795  0.00  0.00     0.013 A 
ATOM     14 CL   UNL d   1      45.146 -12.582  44.953  0.00  0.00    -0.082 Cl
ENDROOT
BRANCH   2  15
ATOM     15  S   UNL d   1      45.431 -13.139  39.737  0.00  0.00     0.231 S 
ATOM     16  O   UNL d   1      46.159 -13.204  40.115  0.00  0.00    -0.215 OA
ATOM     17  O   UNL d   1      44.702 -13.073  39.361  0.00  0.00    -0.215 OA
BRANCH  15  18
ATOM     18  C   UNL d   1      45.727 -13.460  39.039  0.00  0.00     0.090 A 
ATOM     19  C   UNL d   1      46.132 -14.168  39.046  0.00  0.00     0.011 A 
ATOM     20  C   UNL d   1      46.426 -14.488  38.351  0.00  0.00     0.001 A 
ATOM     21  C   UNL d   1      46.310 -14.086  37.634  0.00  0.00     0.000 A 
ATOM     22  C   UNL d   1      45.899 -13.367  37.628  0.00  0.00     0.001 A 
ATOM     23  C   UNL d   1      45.608 -13.054  38.324  0.00  0.00     0.011 A 
BRANCH  21  24
ATOM     24  C   UNL d   1      46.603 -14.402  36.939  0.00  0.00     0.000 C 
ATOM     25  C   UNL d   1      46.202 -15.019  36.558  0.00  0.00     0.000 C 
ENDBRANCH  21  24
ENDBRANCH  15  18
ENDBRANCH   2  15
BRANCH   7  26
ATOM     26  N   UNL d   1      46.586 -13.882  42.695  0.00  0.00    -0.227 NA
BRANCH  26  27
ATOM     27  C   UNL d   1      46.389 -14.554  43.135  0.00  0.00     0.083 A 
ATOM     28  C   UNL d   1      46.012 -14.474  43.862  0.00  0.00     0.021 A 
ATOM     29  C   UNL d   1      45.815 -15.137  44.302  0.00  0.00     0.031 A 
ATOM     30  C   UNL d   1      45.999 -15.894  44.008  0.00  0.00     0.140 A 
ATOM     31  C   UNL d   1      46.381 -15.970  43.270  0.00  0.00     0.031 A 
ATOM     32  F   UNL d   1      45.802 -16.557  44.447  0.00  0.00    -0.204 F 
ATOM     33  C   UNL d   1      46.570 -15.295  42.844  0.00  0.00     0.021 A 
ENDBRANCH  26  27
ENDBRANCH   7  26
TORSDOF 5
ENDMDL
