MODEL 1
REMARK VINA RESULT:      18.3      0.000      0.000
REMARK  2 active torsions:
REMARK  status: ('A' for Active; 'I' for Inactive)
REMARK    1  A    between atoms: C_7  and  C_2 
REMARK    2  A    between atoms: C_5  and  C_7 
ROOT
ATOM      1  C   UNL d   1      58.316  49.676  50.614  0.00  0.00     0.021 A 
ATOM      2  N   UNL d   1      57.335  49.629  51.503  0.00  0.00    -0.244 NA
ATOM      3  C   UNL d   1      58.152  49.659  51.417  0.00  0.00     0.099 A 
ATOM      4  C   UNL d   1      57.608  49.656  50.206  0.00  0.00     0.019 A 
ATOM      5  C   UNL d   1      56.999  49.627  50.755  0.00  0.00     0.081 A 
ATOM      6  C   UNL d   1      57.435  49.660  49.394  0.00  0.00     0.002 A 
ATOM      7  C   UNL d   1      56.212  49.602  50.501  0.00  0.00     0.019 A 
ATOM      8  C   UNL d   1      56.652  49.636  49.135  0.00  0.00     0.000 A 
ATOM      9  C   UNL d   1      56.039  49.607  49.689  0.00  0.00     0.002 A 
ENDROOT
BRANCH   1  10
ATOM     10  C   UNL d   1      59.076  49.707  50.282  0.00  0.00     0.011 C 
BRANCH  10  11
ATOM     11  C   UNL d   1      59.740  49.667  50.770  0.00  0.00     0.062 A 
ATOM     12  C   UNL d   1      60.491  49.608  50.434  0.00  0.00     0.145 A 
ATOM     13  N   UNL d   1      61.037  49.578  51.053  0.00  0.00    -0.191 NA
ATOM     14  S   UNL d   1      60.667  49.584  49.618  0.00  0.00    -0.057 SA
ATOM     15  C   UNL d   1      60.636  49.617  51.757  0.00  0.00     0.311 A 
ATOM     16  S   UNL d   1      59.830  49.672  51.587  0.00  0.00    -0.023 SA
ATOM     17  O   UNL d   1      60.986  49.602  52.513  0.00  0.00    -0.258 OA
ENDBRANCH  10  11
ENDBRANCH   1  10
TORSDOF 2
ENDMDL
