MODEL 1
REMARK VINA RESULT:      40.7      0.000      0.000
REMARK  1 active torsions:
REMARK  status: ('A' for Active; 'I' for Inactive)
REMARK    1  A    between atoms: C_11  and  N_5 
ROOT
ATOM      1  C   UNL d   1      46.156 -17.452  43.686  0.00  0.00     0.130 A 
ATOM      2  C   UNL d   1      46.322 -17.507  42.879  0.00  0.00     0.157 A 
ATOM      3  N   UNL d   1      46.330 -16.835  42.414  0.00  0.00    -0.210 NA
ATOM      4  C   UNL d   1      45.997 -16.719  44.028  0.00  0.00     0.272 A 
ATOM      5  N   UNL d   1      46.005 -16.042  43.562  0.00  0.00    -0.259 N 
ATOM      6  C   UNL d   1      46.150 -18.134  44.151  0.00  0.00     0.204 A 
ATOM      7  N   UNL d   1      46.479 -18.240  42.544  0.00  0.00    -0.289 N 
ATOM      8  C   UNL d   1      46.170 -16.094  42.755  0.00  0.00     0.152 A 
ATOM      9  C   UNL d   1      46.306 -18.857  43.816  0.00  0.00     0.055 A 
ATOM     10  C   UNL d   1      46.471 -18.917  43.014  0.00  0.00     0.069 A 
ATOM     11  O   UNL d   1      45.833 -16.668  44.831  0.00  0.00    -0.266 OA
ATOM     12  O   UNL d   1      45.984 -18.074  44.954  0.00  0.00    -0.286 OA
ATOM     13  C   UNL d   1      46.645 -18.299  41.742  0.00  0.00     0.101 C 
ATOM     14  C   UNL d   1      46.178 -15.416  42.286  0.00  0.00     0.041 C 
ATOM     15  C   UNL d   1      46.298 -19.538  44.285  0.00  0.00     0.005 A 
ATOM     16  C   UNL d   1      46.631 -19.658  42.673  0.00  0.00     0.018 A 
ATOM     17  C   UNL d   1      46.457 -20.271  43.943  0.00  0.00     0.000 A 
ATOM     18  C   UNL d   1      46.622 -20.330  43.141  0.00  0.00     0.002 A 
ENDROOT
BRANCH   5  19
ATOM     19  C   UNL d   1      45.845 -15.309  43.908  0.00  0.00     0.068 A 
ATOM     20  C   UNL d   1      46.437 -14.730  43.962  0.00  0.00     0.020 A 
ATOM     21  C   UNL d   1      46.277 -13.997  44.309  0.00  0.00     0.031 A 
ATOM     22  C   UNL d   1      45.526 -13.832  44.605  0.00  0.00     0.140 A 
ATOM     23  C   UNL d   1      44.926 -14.409  44.554  0.00  0.00     0.031 A 
ATOM     24  F   UNL d   1      45.364 -13.097  44.953  0.00  0.00    -0.204 F 
ATOM     25  C   UNL d   1      45.091 -15.147  44.205  0.00  0.00     0.020 A 
ENDBRANCH   5  19
TORSDOF 1
ENDMDL
