MODEL 1
REMARK VINA RESULT:      21.6      0.000      0.000
REMARK  5 active torsions:
REMARK  status: ('A' for Active; 'I' for Inactive)
REMARK    1  A    between atoms: C_2  and  S_1 
REMARK    2  A    between atoms: N_4  and  S_1 
REMARK    3  A    between atoms: C_10  and  N_4 
REMARK    4  A    between atoms: C_14  and  C_5 
REMARK    5  A    between atoms: C_13  and  C_10 
ROOT
ATOM      1  S   UNL d   1      14.213  12.676  -1.979  0.00  0.00     0.285 S 
ATOM      2  O   UNL d   1      14.047  12.018  -1.527  0.00  0.00    -0.198 OA
ATOM      3  O   UNL d   1      14.382  13.345  -2.438  0.00  0.00    -0.198 OA
ENDROOT
BRANCH   1   4
ATOM      4  C   UNL d   1      14.561  13.038  -1.324  0.00  0.00     0.105 A 
ATOM      5  C   UNL d   1      14.694  13.852  -1.324  0.00  0.00     0.013 A 
ATOM      6  C   UNL d   1      15.041  14.213  -0.669  0.00  0.00     0.001 A 
ATOM      7  C   UNL d   1      15.257  13.761  -0.014  0.00  0.00     0.000 A 
ATOM      8  C   UNL d   1      15.123  12.955  -0.018  0.00  0.00     0.001 A 
ATOM      9  C   UNL d   1      14.776  12.593  -0.673  0.00  0.00     0.012 A 
ATOM     10  C   UNL d   1      14.643  11.779  -0.673  0.00  0.00     0.001 C 
BRANCH   6  11
ATOM     11  C   UNL d   1      15.174  15.031  -0.671  0.00  0.00     0.000 C 
ATOM     12  C   UNL d   1      14.831  15.502  -1.256  0.00  0.00     0.000 C 
ATOM     13  C   UNL d   1      15.648  15.376  -0.090  0.00  0.00     0.000 C 
ENDBRANCH   6  11
ENDBRANCH   1   4
BRANCH   1  14
ATOM     14  N   UNL d   1      13.865  12.314  -2.634  0.00  0.00    -0.155 NA
BRANCH  14  15
ATOM     15  C   UNL d   1      13.205  12.655  -2.990  0.00  0.00     0.131 C 
BRANCH  15  16
ATOM     16  C   UNL d   1      13.095  12.588  -3.805  0.00  0.00     0.101 A 
ATOM     17  N   UNL d   1      13.145  11.849  -4.169  0.00  0.00    -0.242 NA
ATOM     18  C   UNL d   1      13.036  11.782  -4.983  0.00  0.00     0.099 A 
ATOM     19  C   UNL d   1      12.875  12.453  -5.434  0.00  0.00     0.021 A 
ATOM     20  C   UNL d   1      12.823  13.196  -5.072  0.00  0.00     0.003 A 
ATOM     21  C   UNL d   1      12.933  13.264  -4.257  0.00  0.00     0.021 A 
ENDBRANCH  15  16
ENDBRANCH  14  15
ENDBRANCH   1  14
TORSDOF 5
ENDMDL
MODEL 2
REMARK VINA RESULT:      24.4      1.502      3.982
REMARK  5 active torsions:
REMARK  status: ('A' for Active; 'I' for Inactive)
REMARK    1  A    between atoms: C_2  and  S_1 
REMARK    2  A    between atoms: N_4  and  S_1 
REMARK    3  A    between atoms: C_10  and  N_4 
REMARK    4  A    between atoms: C_14  and  C_5 
REMARK    5  A    between atoms: C_13  and  C_10 
ROOT
ATOM      1  S   UNL d   1      13.323  12.480  -3.373  0.00  0.00     0.285 S 
ATOM      2  O   UNL d   1      13.855  13.017  -3.070  0.00  0.00    -0.198 OA
ATOM      3  O   UNL d   1      12.781  11.933  -3.681  0.00  0.00    -0.198 OA
ENDROOT
BRANCH   1   4
ATOM      4  C   UNL d   1      13.241  12.943  -4.050  0.00  0.00     0.105 A 
ATOM      5  C   UNL d   1      13.350  13.760  -4.008  0.00  0.00     0.013 A 
ATOM      6  C   UNL d   1      13.268  14.222  -4.685  0.00  0.00     0.001 A 
ATOM      7  C   UNL d   1      13.078  13.870  -5.406  0.00  0.00     0.000 A 
ATOM      8  C   UNL d   1      12.971  13.060  -5.443  0.00  0.00     0.001 A 
ATOM      9  C   UNL d   1      13.052  12.598  -4.767  0.00  0.00     0.012 A 
ATOM     10  C   UNL d   1      12.944  11.781  -4.809  0.00  0.00     0.001 C 
BRANCH   6  11
ATOM     11  C   UNL d   1      13.378  15.043  -4.640  0.00  0.00     0.000 C 
ATOM     12  C   UNL d   1      12.795  15.517  -4.299  0.00  0.00     0.000 C 
ATOM     13  C   UNL d   1      14.069  15.385  -4.935  0.00  0.00     0.000 C 
ENDBRANCH   6  11
ENDBRANCH   1   4
BRANCH   1  14
ATOM     14  N   UNL d   1      13.404  12.016  -2.695  0.00  0.00    -0.155 NA
BRANCH  14  15
ATOM     15  C   UNL d   1      14.155  11.847  -2.400  0.00  0.00     0.131 C 
BRANCH  15  16
ATOM     16  C   UNL d   1      14.327  11.988  -1.605  0.00  0.00     0.101 A 
ATOM     17  N   UNL d   1      15.045  12.334  -1.394  0.00  0.00    -0.242 NA
ATOM     18  C   UNL d   1      15.217  12.475  -0.599  0.00  0.00     0.099 A 
ATOM     19  C   UNL d   1      14.672  12.269  -0.017  0.00  0.00     0.021 A 
ATOM     20  C   UNL d   1      13.950  11.920  -0.226  0.00  0.00     0.003 A 
ATOM     21  C   UNL d   1      13.777  11.780  -1.020  0.00  0.00     0.021 A 
ENDBRANCH  15  16
ENDBRANCH  14  15
ENDBRANCH   1  14
TORSDOF 5
ENDMDL
