MODEL 1
REMARK VINA RESULT:      37.2      0.000      0.000
REMARK  5 active torsions:
REMARK  status: ('A' for Active; 'I' for Inactive)
REMARK    1  A    between atoms: N_3  and  S_1 
REMARK    2  A    between atoms: C_4  and  S_1 
REMARK    3  A    between atoms: S_2  and  N_5 
REMARK    4  A    between atoms: C_8  and  N_3 
REMARK    5  A    between atoms: N_5  and  C_15 
ROOT
ATOM      1  N   UNL d   1      13.180  12.395  -3.819  0.00  0.00    -0.229 N 
ATOM      2  C   UNL d   1      12.800  11.779  -4.212  0.00  0.00     0.111 C 
ENDROOT
BRANCH   1   3
ATOM      3  S   UNL d   1      13.493  12.271  -3.063  0.00  0.00     0.271 S 
ATOM      4  O   UNL d   1      12.810  11.874  -3.298  0.00  0.00    -0.200 OA
ATOM      5  O   UNL d   1      13.871  12.799  -3.586  0.00  0.00    -0.200 OA
BRANCH   3   6
ATOM      6  C   UNL d   1      13.807  12.147  -2.306  0.00  0.00     0.104 A 
ATOM      7  C   UNL d   1      14.615  12.241  -2.171  0.00  0.00     0.013 A 
ATOM      8  C   UNL d   1      14.923  12.119  -1.428  0.00  0.00     0.001 A 
ATOM      9  C   UNL d   1      14.430  11.902  -0.806  0.00  0.00     0.000 A 
ATOM     10  C   UNL d   1      13.622  11.806  -0.935  0.00  0.00     0.001 A 
ATOM     11  C   UNL d   1      14.751  11.780  -0.052  0.00  0.00     0.000 C 
ATOM     12  C   UNL d   1      13.312  11.928  -1.682  0.00  0.00     0.013 A 
ENDBRANCH   3   6
ENDBRANCH   1   3
BRANCH   1  13
ATOM     13  C   UNL d   1      13.249  13.137  -4.179  0.00  0.00     0.075 A 
ATOM     14  C   UNL d   1      13.775  13.240  -4.810  0.00  0.00     0.020 A 
ATOM     15  C   UNL d   1      13.842  13.982  -5.165  0.00  0.00     0.021 A 
ATOM     16  C   UNL d   1      13.383  14.620  -4.892  0.00  0.00     0.094 A 
ATOM     17  C   UNL d   1      12.861  14.508  -4.262  0.00  0.00     0.021 A 
ATOM     18  C   UNL d   1      12.795  13.769  -3.908  0.00  0.00     0.020 A 
BRANCH  16  19
ATOM     19  N   UNL d   1      13.452  15.363  -5.251  0.00  0.00    -0.162 NA
BRANCH  19  20
ATOM     20  S   UNL d   1      14.078  15.873  -5.044  0.00  0.00     0.266 S 
ATOM     21  O   UNL d   1      14.277  15.979  -4.253  0.00  0.00    -0.203 OA
ATOM     22  O   UNL d   1      13.872  15.761  -5.845  0.00  0.00    -0.203 OA
ATOM     23  C   UNL d   1      14.498  16.271  -5.637  0.00  0.00     0.165 C 
ENDBRANCH  19  20
ENDBRANCH  16  19
ENDBRANCH   1  13
TORSDOF 5
ENDMDL
MODEL 2
REMARK VINA RESULT:      39.7      1.478      4.303
REMARK  5 active torsions:
REMARK  status: ('A' for Active; 'I' for Inactive)
REMARK    1  A    between atoms: N_3  and  S_1 
REMARK    2  A    between atoms: C_4  and  S_1 
REMARK    3  A    between atoms: S_2  and  N_5 
REMARK    4  A    between atoms: C_8  and  N_3 
REMARK    5  A    between atoms: N_5  and  C_15 
ROOT
ATOM      1  N   UNL d   1      13.173  12.918  -4.273  0.00  0.00    -0.229 N 
ATOM      2  C   UNL d   1      12.799  12.423  -4.813  0.00  0.00     0.111 C 
ENDROOT
BRANCH   1   3
ATOM      3  S   UNL d   1      13.335  13.704  -4.477  0.00  0.00     0.271 S 
ATOM      4  O   UNL d   1      12.778  13.534  -3.893  0.00  0.00    -0.200 OA
ATOM      5  O   UNL d   1      13.737  13.084  -4.864  0.00  0.00    -0.200 OA
BRANCH   3   6
ATOM      6  C   UNL d   1      13.498  14.490  -4.681  0.00  0.00     0.104 A 
ATOM      7  C   UNL d   1      12.889  14.990  -4.926  0.00  0.00     0.013 A 
ATOM      8  C   UNL d   1      13.049  15.762  -5.126  0.00  0.00     0.001 A 
ATOM      9  C   UNL d   1      13.818  16.049  -5.085  0.00  0.00     0.000 A 
ATOM     10  C   UNL d   1      14.430  15.555  -4.841  0.00  0.00     0.001 A 
ATOM     11  C   UNL d   1      13.973  16.837  -5.291  0.00  0.00     0.000 C 
ATOM     12  C   UNL d   1      14.270  14.779  -4.639  0.00  0.00     0.013 A 
ENDBRANCH   3   6
ENDBRANCH   1   3
BRANCH   1  13
ATOM     13  C   UNL d   1      13.386  12.632  -3.526  0.00  0.00     0.075 A 
ATOM     14  C   UNL d   1      12.915  12.062  -3.154  0.00  0.00     0.020 A 
ATOM     15  C   UNL d   1      13.131  11.779  -2.410  0.00  0.00     0.021 A 
ATOM     16  C   UNL d   1      13.817  12.065  -2.037  0.00  0.00     0.094 A 
ATOM     17  C   UNL d   1      14.282  12.634  -2.415  0.00  0.00     0.021 A 
ATOM     18  C   UNL d   1      14.066  12.915  -3.157  0.00  0.00     0.020 A 
BRANCH  16  19
ATOM     19  N   UNL d   1      14.032  11.779  -1.290  0.00  0.00    -0.162 NA
BRANCH  19  20
ATOM     20  S   UNL d   1      14.553  12.216  -0.807  0.00  0.00     0.266 S 
ATOM     21  O   UNL d   1      15.265  12.491  -1.115  0.00  0.00    -0.203 OA
ATOM     22  O   UNL d   1      13.830  11.935  -0.501  0.00  0.00    -0.203 OA
ATOM     23  C   UNL d   1      14.352  12.371  -0.018  0.00  0.00     0.165 C 
ENDBRANCH  19  20
ENDBRANCH  16  19
ENDBRANCH   1  13
TORSDOF 5
ENDMDL
