MODEL 1
REMARK VINA RESULT:      -5.4      0.000      0.000
REMARK  6 active torsions:
REMARK  status: ('A' for Active; 'I' for Inactive)
REMARK       I    between atoms: C_2  and  N_1 
REMARK    1  A    between atoms: C_3  and  N_1 
REMARK    2  A    between atoms: C_6  and  C_2 
REMARK    3  A    between atoms: N_7  and  C_3 
REMARK    4  A    between atoms: C_8  and  N_7 
REMARK    5  A    between atoms: C_12  and  C_8 
REMARK    6  A    between atoms: C_9  and  C_12 
ROOT
ATOM      1  C   UNL d   1      58.299  -0.403  29.970  0.00  0.00     0.179 C 
ATOM      2  S   UNL d   1      58.216   0.162  29.385  0.00  0.00    -0.040 SA
ENDROOT
BRANCH   1   3
ATOM      3  N   UNL d   1      58.452  -1.184  29.772  0.00  0.00    -0.299 N 
ATOM      4  C   UNL d   1      59.082  -1.350  29.292  0.00  0.00     0.259 C 
ATOM      5  O   UNL d   1      59.559  -0.752  29.006  0.00  0.00    -0.267 OA
ATOM      6  H   UNL d   1      57.978  -1.778  30.056  0.00  0.00     0.171 HD
BRANCH   4   7
ATOM      7  C   UNL d   1      59.241  -2.139  29.089  0.00  0.00     0.056 A 
ATOM      8  C   UNL d   1      58.660  -2.596  28.755  0.00  0.00     0.005 A 
ATOM      9  C   UNL d   1      58.812  -3.377  28.552  0.00  0.00     0.000 A 
ATOM     10  C   UNL d   1      59.558  -3.690  28.692  0.00  0.00     0.000 A 
ATOM     11  C   UNL d   1      60.138  -3.233  29.026  0.00  0.00     0.000 A 
ATOM     12  C   UNL d   1      59.986  -2.452  29.228  0.00  0.00     0.005 A 
ENDBRANCH   4   7
ENDBRANCH   1   3
BRANCH   1  13
ATOM     13  N   UNL d   1      58.229  -0.194  30.759  0.00  0.00    -0.330 N 
ATOM     14  H   UNL d   1      58.885   0.015  31.187  0.00  0.00     0.168 HD
BRANCH  13  15
ATOM     15  C   UNL d   1      57.492  -0.200  31.107  0.00  0.00     0.074 C 
BRANCH  15  16
ATOM     16  C   UNL d   1      57.415   0.034  31.895  0.00  0.00     0.018 C 
BRANCH  16  17
ATOM     17  C   UNL d   1      56.723  -0.154  32.322  0.00  0.00     0.002 A 
ATOM     18  C   UNL d   1      56.523  -0.946  32.469  0.00  0.00     0.000 A 
ATOM     19  C   UNL d   1      55.838  -1.125  32.892  0.00  0.00     0.000 A 
ATOM     20  C   UNL d   1      55.349  -0.517  33.171  0.00  0.00     0.000 A 
ATOM     21  C   UNL d   1      55.545   0.271  33.026  0.00  0.00     0.000 A 
ATOM     22  C   UNL d   1      56.234   0.455  32.601  0.00  0.00     0.000 A 
ENDBRANCH  16  17
ENDBRANCH  15  16
ENDBRANCH  13  15
ENDBRANCH   1  13
TORSDOF 6
ENDMDL
MODEL 2
REMARK VINA RESULT:      -5.2      0.845      1.206
REMARK  6 active torsions:
REMARK  status: ('A' for Active; 'I' for Inactive)
REMARK       I    between atoms: C_2  and  N_1 
REMARK    1  A    between atoms: C_3  and  N_1 
REMARK    2  A    between atoms: C_6  and  C_2 
REMARK    3  A    between atoms: N_7  and  C_3 
REMARK    4  A    between atoms: C_8  and  N_7 
REMARK    5  A    between atoms: C_12  and  C_8 
REMARK    6  A    between atoms: C_9  and  C_12 
ROOT
ATOM      1  C   UNL d   1      57.934  -0.210  30.541  0.00  0.00     0.179 C 
ATOM      2  S   UNL d   1      57.958   0.589  30.375  0.00  0.00    -0.040 SA
ENDROOT
BRANCH   1   3
ATOM      3  N   UNL d   1      58.529  -0.707  30.272  0.00  0.00    -0.299 N 
ATOM      4  C   UNL d   1      58.608  -0.827  29.475  0.00  0.00     0.259 C 
ATOM      5  O   UNL d   1      58.105  -0.462  28.945  0.00  0.00    -0.267 OA
ATOM      6  H   UNL d   1      59.028  -1.070  30.798  0.00  0.00     0.171 HD
BRANCH   4   7
ATOM      7  C   UNL d   1      59.208  -1.329  29.197  0.00  0.00     0.056 A 
ATOM      8  C   UNL d   1      59.047  -2.111  29.053  0.00  0.00     0.005 A 
ATOM      9  C   UNL d   1      59.637  -2.611  28.778  0.00  0.00     0.000 A 
ATOM     10  C   UNL d   1      60.390  -2.312  28.652  0.00  0.00     0.000 A 
ATOM     11  C   UNL d   1      60.551  -1.531  28.797  0.00  0.00     0.000 A 
ATOM     12  C   UNL d   1      59.961  -1.031  29.071  0.00  0.00     0.005 A 
ENDBRANCH   4   7
ENDBRANCH   1   3
BRANCH   1  13
ATOM     13  N   UNL d   1      57.316  -0.524  30.977  0.00  0.00    -0.330 N 
ATOM     14  H   UNL d   1      56.898  -1.161  30.697  0.00  0.00     0.168 HD
BRANCH  13  15
ATOM     15  C   UNL d   1      57.126  -0.188  31.695  0.00  0.00     0.074 C 
BRANCH  15  16
ATOM     16  C   UNL d   1      56.709  -0.632  32.252  0.00  0.00     0.018 C 
BRANCH  16  17
ATOM     17  C   UNL d   1      56.306  -0.250  32.876  0.00  0.00     0.002 A 
ATOM     18  C   UNL d   1      56.710   0.274  33.376  0.00  0.00     0.000 A 
ATOM     19  C   UNL d   1      56.307   0.648  33.991  0.00  0.00     0.000 A 
ATOM     20  C   UNL d   1      55.500   0.501  34.110  0.00  0.00     0.000 A 
ATOM     21  C   UNL d   1      55.097  -0.020  33.615  0.00  0.00     0.000 A 
ATOM     22  C   UNL d   1      55.499  -0.397  32.995  0.00  0.00     0.000 A 
ENDBRANCH  16  17
ENDBRANCH  15  16
ENDBRANCH  13  15
ENDBRANCH   1  13
TORSDOF 6
ENDMDL
MODEL 3
REMARK VINA RESULT:      -5.0      0.920      4.781
REMARK  6 active torsions:
REMARK  status: ('A' for Active; 'I' for Inactive)
REMARK       I    between atoms: C_2  and  N_1 
REMARK    1  A    between atoms: C_3  and  N_1 
REMARK    2  A    between atoms: C_6  and  C_2 
REMARK    3  A    between atoms: N_7  and  C_3 
REMARK    4  A    between atoms: C_8  and  N_7 
REMARK    5  A    between atoms: C_12  and  C_8 
REMARK    6  A    between atoms: C_9  and  C_12 
ROOT
ATOM      1  C   UNL d   1      57.937  -0.172  30.477  0.00  0.00     0.179 C 
ATOM      2  S   UNL d   1      57.925   0.559  30.113  0.00  0.00    -0.040 SA
ENDROOT
BRANCH   1   3
ATOM      3  N   UNL d   1      57.336  -0.389  30.991  0.00  0.00    -0.299 N 
ATOM      4  C   UNL d   1      57.235   0.032  31.675  0.00  0.00     0.259 C 
ATOM      5  O   UNL d   1      57.722   0.664  31.853  0.00  0.00    -0.267 OA
ATOM      6  H   UNL d   1      56.853  -1.016  30.815  0.00  0.00     0.171 HD
BRANCH   4   7
ATOM      7  C   UNL d   1      56.628  -0.183  32.199  0.00  0.00     0.056 A 
ATOM      8  C   UNL d   1      56.506  -0.964  32.378  0.00  0.00     0.005 A 
ATOM      9  C   UNL d   1      55.908  -1.183  32.895  0.00  0.00     0.000 A 
ATOM     10  C   UNL d   1      55.434  -0.602  33.229  0.00  0.00     0.000 A 
ATOM     11  C   UNL d   1      55.556   0.180  33.050  0.00  0.00     0.000 A 
ATOM     12  C   UNL d   1      56.155   0.397  32.533  0.00  0.00     0.005 A 
ENDBRANCH   4   7
ENDBRANCH   1   3
BRANCH   1  13
ATOM     13  N   UNL d   1      58.550  -0.697  30.332  0.00  0.00    -0.330 N 
ATOM     14  H   UNL d   1      59.171  -0.754  30.850  0.00  0.00     0.168 HD
BRANCH  13  15
ATOM     15  C   UNL d   1      58.526  -1.159  29.662  0.00  0.00     0.074 C 
BRANCH  15  16
ATOM     16  C   UNL d   1      59.233  -1.424  29.327  0.00  0.00     0.018 C 
BRANCH  16  17
ATOM     17  C   UNL d   1      59.312  -2.220  29.088  0.00  0.00     0.002 A 
ATOM     18  C   UNL d   1      60.013  -2.636  29.241  0.00  0.00     0.000 A 
ATOM     19  C   UNL d   1      60.085  -3.422  29.002  0.00  0.00     0.000 A 
ATOM     20  C   UNL d   1      59.459  -3.797  28.609  0.00  0.00     0.000 A 
ATOM     21  C   UNL d   1      58.761  -3.385  28.456  0.00  0.00     0.000 A 
ATOM     22  C   UNL d   1      58.685  -2.594  28.695  0.00  0.00     0.000 A 
ENDBRANCH  16  17
ENDBRANCH  15  16
ENDBRANCH  13  15
ENDBRANCH   1  13
TORSDOF 6
ENDMDL
MODEL 4
REMARK VINA RESULT:      -3.8      2.367      5.431
REMARK  6 active torsions:
REMARK  status: ('A' for Active; 'I' for Inactive)
REMARK       I    between atoms: C_2  and  N_1 
REMARK    1  A    between atoms: C_3  and  N_1 
REMARK    2  A    between atoms: C_6  and  C_2 
REMARK    3  A    between atoms: N_7  and  C_3 
REMARK    4  A    between atoms: C_8  and  N_7 
REMARK    5  A    between atoms: C_12  and  C_8 
REMARK    6  A    between atoms: C_9  and  C_12 
ROOT
ATOM      1  C   UNL d   1      56.824  -0.227  31.818  0.00  0.00     0.179 C 
ATOM      2  S   UNL d   1      56.928  -1.036  31.764  0.00  0.00    -0.040 SA
ENDROOT
BRANCH   1   3
ATOM      3  N   UNL d   1      56.505   0.105  32.496  0.00  0.00    -0.299 N 
ATOM      4  C   UNL d   1      55.930  -0.301  32.898  0.00  0.00     0.259 C 
ATOM      5  O   UNL d   1      55.671  -1.029  32.633  0.00  0.00    -0.267 OA
ATOM      6  H   UNL d   1      56.762   0.828  32.759  0.00  0.00     0.171 HD
BRANCH   4   7
ATOM      7  C   UNL d   1      55.603   0.030  33.584  0.00  0.00     0.056 A 
ATOM      8  C   UNL d   1      56.077   0.185  34.224  0.00  0.00     0.005 A 
ATOM      9  C   UNL d   1      55.759   0.513  34.906  0.00  0.00     0.000 A 
ATOM     10  C   UNL d   1      54.957   0.682  34.934  0.00  0.00     0.000 A 
ATOM     11  C   UNL d   1      54.483   0.527  34.294  0.00  0.00     0.000 A 
ATOM     12  C   UNL d   1      54.801   0.199  33.613  0.00  0.00     0.005 A 
ENDBRANCH   4   7
ENDBRANCH   1   3
BRANCH   1  13
ATOM     13  N   UNL d   1      57.039   0.260  31.195  0.00  0.00    -0.330 N 
ATOM     14  H   UNL d   1      56.569   0.887  30.985  0.00  0.00     0.168 HD
BRANCH  13  15
ATOM     15  C   UNL d   1      57.730   0.106  30.791  0.00  0.00     0.074 C 
BRANCH  15  16
ATOM     16  C   UNL d   1      58.040   0.682  30.288  0.00  0.00     0.018 C 
BRANCH  16  17
ATOM     17  C   UNL d   1      58.687   0.501  29.792  0.00  0.00     0.002 A 
ATOM     18  C   UNL d   1      59.460   0.502  30.094  0.00  0.00     0.000 A 
ATOM     19  C   UNL d   1      60.095   0.322  29.600  0.00  0.00     0.000 A 
ATOM     20  C   UNL d   1      59.963   0.140  28.802  0.00  0.00     0.000 A 
ATOM     21  C   UNL d   1      59.196   0.138  28.499  0.00  0.00     0.000 A 
ATOM     22  C   UNL d   1      58.555   0.319  28.994  0.00  0.00     0.000 A 
ENDBRANCH  16  17
ENDBRANCH  15  16
ENDBRANCH  13  15
ENDBRANCH   1  13
TORSDOF 6
ENDMDL
