MODEL 1
REMARK VINA RESULT:      24.4      0.000      0.000
REMARK  5 active torsions:
REMARK  status: ('A' for Active; 'I' for Inactive)
REMARK    1  A    between atoms: C_2  and  S_1 
REMARK    2  A    between atoms: N_3  and  S_1 
REMARK    3  A    between atoms: C_6  and  C_7 
REMARK    4  A    between atoms: C_7  and  C_8 
REMARK    5  A    between atoms: C_8  and  C_12 
ROOT
ATOM      1  C   UNL d   1      14.588  13.009  -1.374  0.00  0.00     0.104 A 
ATOM      2  C   UNL d   1      14.619  12.552  -0.707  0.00  0.00     0.012 A 
ATOM      3  C   UNL d   1      14.904  13.756  -1.386  0.00  0.00     0.013 A 
ATOM      4  C   UNL d   1      15.269  14.060  -0.693  0.00  0.00     0.001 A 
ATOM      5  C   UNL d   1      14.984  12.856  -0.015  0.00  0.00     0.001 A 
ATOM      6  C   UNL d   1      15.298  13.601  -0.026  0.00  0.00     0.000 A 
ATOM      7  C   UNL d   1      14.289  11.780  -0.704  0.00  0.00     0.001 C 
ENDROOT
BRANCH   1   8
ATOM      8  S   UNL d   1      14.224  12.704  -2.067  0.00  0.00     0.271 S 
ATOM      9  O   UNL d   1      13.694  13.327  -2.062  0.00  0.00    -0.200 OA
ATOM     10  O   UNL d   1      14.768  12.064  -2.072  0.00  0.00    -0.200 OA
BRANCH   8  11
ATOM     11  N   UNL d   1      13.864  12.414  -2.741  0.00  0.00    -0.229 N 
ATOM     12  C   UNL d   1      14.251  12.473  -3.463  0.00  0.00     0.092 A 
ATOM     13  C   UNL d   1      13.885  12.179  -4.146  0.00  0.00     0.020 A 
ATOM     14  C   UNL d   1      13.131  11.826  -4.102  0.00  0.00     0.003 A 
ATOM     15  C   UNL d   1      12.769  11.781  -3.372  0.00  0.00     0.020 A 
ATOM     16  C   UNL d   1      13.130  12.073  -2.690  0.00  0.00     0.092 A 
ENDBRANCH   8  11
ENDBRANCH   1   8
BRANCH   4  17
ATOM     17  C   UNL d   1      15.599  14.846  -0.712  0.00  0.00     0.006 C 
BRANCH  17  18
ATOM     18  C   UNL d   1      15.176  15.504  -0.419  0.00  0.00     0.070 C 
BRANCH  18  19
ATOM     19  C   UNL d   1      15.196  16.218  -0.820  0.00  0.00     0.211 C 
ATOM     20  O   UNL d   1      15.780  16.784  -0.639  0.00  0.00    -0.644 OA
ATOM     21  O   UNL d   1      14.644  16.381  -1.400  0.00  0.00    -0.644 OA
ENDBRANCH  18  19
ENDBRANCH  17  18
ENDBRANCH   4  17
TORSDOF 5
ENDMDL
