MODEL 1
REMARK VINA RESULT:      18.4      0.000      0.000
REMARK  1 active torsions:
REMARK  status: ('A' for Active; 'I' for Inactive)
REMARK       I    between atoms: C_4  and  N_1 
REMARK    1  A    between atoms: C_7  and  C_4 
ROOT
ATOM      1  N   UNL d   1      14.031  12.452  -2.341  0.00  0.00    -0.175 N 
ATOM      2  N   UNL d   1      14.663  12.883  -2.664  0.00  0.00    -0.057 NA
ATOM      3  N   UNL d   1      15.213  13.008  -2.074  0.00  0.00    -0.129 NA
ATOM      4  C   UNL d   1      13.350  12.205  -2.749  0.00  0.00     0.282 C 
ATOM      5  C   UNL d   1      14.196  12.311  -1.546  0.00  0.00     0.107 A 
ATOM      6  C   UNL d   1      14.928  12.654  -1.378  0.00  0.00     0.122 A 
ATOM      7  O   UNL d   1      12.771  11.780  -2.352  0.00  0.00    -0.265 OA
ATOM      8  C   UNL d   1      13.782  11.919  -0.953  0.00  0.00     0.021 A 
ATOM      9  C   UNL d   1      15.246  12.603  -0.608  0.00  0.00     0.022 A 
ATOM     10  C   UNL d   1      14.097  11.868  -0.192  0.00  0.00     0.002 A 
ATOM     11  C   UNL d   1      14.828  12.209  -0.016  0.00  0.00     0.002 A 
ENDROOT
BRANCH   4  12
ATOM     12  C   UNL d   1      13.265  12.389  -3.547  0.00  0.00     0.058 A 
ATOM     13  C   UNL d   1      13.272  11.789  -4.114  0.00  0.00     0.005 A 
ATOM     14  C   UNL d   1      13.187  11.973  -4.912  0.00  0.00     0.000 A 
ATOM     15  C   UNL d   1      13.094  12.754  -5.153  0.00  0.00     0.000 A 
ATOM     16  C   UNL d   1      13.086  13.356  -4.589  0.00  0.00     0.000 A 
ATOM     17  C   UNL d   1      13.008  12.932  -5.966  0.00  0.00     0.000 C 
ATOM     18  C   UNL d   1      13.171  13.175  -3.789  0.00  0.00     0.005 A 
ENDBRANCH   4  12
TORSDOF 1
ENDMDL
