MODEL 1
REMARK VINA RESULT:      40.1      0.000      0.000
REMARK  4 active torsions:
REMARK  status: ('A' for Active; 'I' for Inactive)
REMARK    1  A    between atoms: C_10  and  N_3 
REMARK    2  A    between atoms: C_12  and  N_7 
REMARK    3  A    between atoms: C_19  and  C_12 
REMARK    4  A    between atoms: C_20  and  C_19 
ROOT
ATOM      1  C   UNL d   1      59.723  49.679  50.933  0.00  0.00     0.172 A 
ATOM      2  C   UNL d   1      59.736  49.673  50.108  0.00  0.00     0.113 A 
ATOM      3  N   UNL d   1      60.511  49.667  51.193  0.00  0.00    -0.212 N 
ATOM      4  N   UNL d   1      59.008  49.694  51.335  0.00  0.00    -0.206 NA
ATOM      5  C   UNL d   1      59.033  49.682  49.685  0.00  0.00     0.270 A 
ATOM      6  N   UNL d   1      60.992  49.654  50.531  0.00  0.00    -0.162 NA
ATOM      7  N   UNL d   1      58.309  49.697  50.086  0.00  0.00    -0.255 N 
ATOM      8  C   UNL d   1      60.531  49.657  49.873  0.00  0.00     0.129 A 
ATOM      9  C   UNL d   1      58.297  49.703  50.911  0.00  0.00     0.187 A 
ATOM     10  O   UNL d   1      59.045  49.676  48.860  0.00  0.00    -0.266 OA
ENDROOT
BRANCH   3  11
ATOM     11  C   UNL d   1      60.797  49.667  51.955  0.00  0.00     0.085 A 
ATOM     12  C   UNL d   1      61.612  49.694  52.091  0.00  0.00     0.021 A 
ATOM     13  C   UNL d   1      61.897  49.694  52.863  0.00  0.00     0.031 A 
ATOM     14  C   UNL d   1      61.393  49.668  53.499  0.00  0.00     0.140 A 
ATOM     15  C   UNL d   1      60.562  49.642  53.362  0.00  0.00     0.031 A 
ATOM     16  F   UNL d   1      61.703  49.669  54.279  0.00  0.00    -0.204 F 
ATOM     17  C   UNL d   1      60.269  49.641  52.599  0.00  0.00     0.021 A 
ENDBRANCH   3  11
BRANCH   7  18
ATOM     18  C   UNL d   1      57.589  49.707  49.663  0.00  0.00     0.085 C 
BRANCH  18  19
ATOM     19  C   UNL d   1      56.870  49.590  50.063  0.00  0.00     0.019 C 
BRANCH  19  20
ATOM     20  C   UNL d   1      56.314  49.054  49.752  0.00  0.00     0.002 C 
ATOM     21  C   UNL d   1      56.036  48.444  50.231  0.00  0.00     0.000 C 
ATOM     22  C   UNL d   1      56.050  49.134  48.984  0.00  0.00     0.000 C 
ENDBRANCH  19  20
ENDBRANCH  18  19
ENDBRANCH   7  18
TORSDOF 4
ENDMDL
