MODEL 1
REMARK VINA RESULT:      -3.0      0.000      0.000
REMARK  5 active torsions:
REMARK  status: ('A' for Active; 'I' for Inactive)
REMARK    1  A    between atoms: C_2  and  C_3 
REMARK    2  A    between atoms: S_14  and  C_6 
REMARK    3  A    between atoms: C_7  and  N_12 
REMARK       I    between atoms: N_12  and  C_13 
REMARK    4  A    between atoms: C_13  and  C_20 
REMARK    5  A    between atoms: C_20  and  S_14 
ROOT
ATOM      1  N   UNL d   1      33.097  21.690 -21.755  0.00  0.00    -0.208 NA
ATOM      2  C   UNL d   1      33.164  20.867 -21.765  0.00  0.00     0.286 C 
ATOM      3  O   UNL d   1      33.152  20.453 -21.046  0.00  0.00    -0.265 OA
ENDROOT
BRANCH   2   4
ATOM      4  C   UNL d   1      33.241  20.472 -22.472  0.00  0.00     0.099 C 
BRANCH   4   5
ATOM      5  S   UNL d   1      33.140  19.658 -22.507  0.00  0.00    -0.061 SA
BRANCH   5   6
ATOM      6  C   UNL d   1      33.139  19.267 -23.235  0.00  0.00     0.133 A 
ATOM      7  C   UNL d   1      33.073  18.443 -23.259  0.00  0.00     0.143 A 
ATOM      8  C   UNL d   1      33.073  18.052 -23.986  0.00  0.00     0.185 A 
ATOM      9  N   UNL d   1      33.001  17.876 -22.661  0.00  0.00    -0.219 NA
ATOM     10  N   UNL d   1      33.000  17.249 -23.831  0.00  0.00    -0.203 NA
ATOM     11  N   UNL d   1      33.138  18.480 -24.685  0.00  0.00    -0.203 NA
ATOM     12  C   UNL d   1      32.956  17.142 -23.018  0.00  0.00     0.201 A 
ATOM     13  C   UNL d   1      33.204  19.296 -24.664  0.00  0.00     0.201 A 
ATOM     14  N   UNL d   1      33.205  19.698 -23.942  0.00  0.00    -0.216 NA
ENDBRANCH   5   6
ENDBRANCH   4   5
ENDBRANCH   2   4
BRANCH   1  15
ATOM     15  C   UNL d   1      33.018  22.099 -21.038  0.00  0.00     0.088 A 
ATOM     16  C   UNL d   1      32.722  22.865 -21.033  0.00  0.00     0.089 A 
ATOM     17  C   UNL d   1      32.646  23.266 -20.319  0.00  0.00     0.005 A 
ATOM     18  C   UNL d   1      32.865  22.904 -19.612  0.00  0.00     0.000 A 
ATOM     19  C   UNL d   1      33.162  22.133 -19.618  0.00  0.00     0.002 A 
ATOM     20  C   UNL d   1      33.239  21.729 -20.337  0.00  0.00     0.019 A 
BRANCH  16  21
ATOM     21  C   UNL d   1      32.502  23.233 -21.740  0.00  0.00     0.420 C 
ATOM     22  F   UNL d   1      32.295  23.566 -22.384  0.00  0.00    -0.166 F 
ATOM     23  F   UNL d   1      32.977  23.687 -22.290  0.00  0.00    -0.166 F 
ATOM     24  F   UNL d   1      31.730  23.256 -22.113  0.00  0.00    -0.166 F 
ENDBRANCH  16  21
ENDBRANCH   1  15
TORSDOF 5
ENDMDL
MODEL 2
REMARK VINA RESULT:      -2.9      3.629      5.563
REMARK  5 active torsions:
REMARK  status: ('A' for Active; 'I' for Inactive)
REMARK    1  A    between atoms: C_2  and  C_3 
REMARK    2  A    between atoms: S_14  and  C_6 
REMARK    3  A    between atoms: C_7  and  N_12 
REMARK       I    between atoms: N_12  and  C_13 
REMARK    4  A    between atoms: C_13  and  C_20 
REMARK    5  A    between atoms: C_20  and  S_14 
ROOT
ATOM      1  N   UNL d   1      30.082  17.247 -24.234  0.00  0.00    -0.208 NA
ATOM      2  C   UNL d   1      30.872  17.009 -24.278  0.00  0.00     0.286 C 
ATOM      3  O   UNL d   1      31.074  16.241 -24.037  0.00  0.00    -0.265 OA
ENDROOT
BRANCH   2   4
ATOM      4  C   UNL d   1      31.439  17.522 -24.553  0.00  0.00     0.099 C 
BRANCH   4   5
ATOM      5  S   UNL d   1      32.065  17.747 -24.072  0.00  0.00    -0.061 SA
BRANCH   5   6
ATOM      6  C   UNL d   1      32.457  18.462 -24.202  0.00  0.00     0.133 A 
ATOM      7  C   UNL d   1      32.691  18.926 -23.558  0.00  0.00     0.143 A 
ATOM      8  C   UNL d   1      33.083  19.641 -23.688  0.00  0.00     0.185 A 
ATOM      9  N   UNL d   1      32.611  18.820 -22.742  0.00  0.00    -0.219 NA
ATOM     10  N   UNL d   1      33.241  19.970 -22.952  0.00  0.00    -0.203 NA
ATOM     11  N   UNL d   1      33.241  19.892 -24.454  0.00  0.00    -0.203 NA
ATOM     12  C   UNL d   1      32.951  19.465 -22.372  0.00  0.00     0.201 A 
ATOM     13  C   UNL d   1      33.010  19.434 -25.094  0.00  0.00     0.201 A 
ATOM     14  N   UNL d   1      32.617  18.717 -24.976  0.00  0.00    -0.216 NA
ENDBRANCH   5   6
ENDBRANCH   4   5
ENDBRANCH   2   4
BRANCH   1  15
ATOM     15  C   UNL d   1      29.498  16.729 -23.954  0.00  0.00     0.088 A 
ATOM     16  C   UNL d   1      28.714  16.972 -23.925  0.00  0.00     0.089 A 
ATOM     17  C   UNL d   1      28.139  16.454 -23.647  0.00  0.00     0.005 A 
ATOM     18  C   UNL d   1      28.346  15.695 -23.398  0.00  0.00     0.000 A 
ATOM     19  C   UNL d   1      29.135  15.453 -23.428  0.00  0.00     0.002 A 
ATOM     20  C   UNL d   1      29.714  15.974 -23.708  0.00  0.00     0.019 A 
BRANCH  16  21
ATOM     21  C   UNL d   1      28.502  17.732 -24.173  0.00  0.00     0.420 C 
ATOM     22  F   UNL d   1      28.309  18.426 -24.395  0.00  0.00    -0.166 F 
ATOM     23  F   UNL d   1      28.367  18.028 -24.967  0.00  0.00    -0.166 F 
ATOM     24  F   UNL d   1      28.360  18.430 -23.697  0.00  0.00    -0.166 F 
ENDBRANCH  16  21
ENDBRANCH   1  15
TORSDOF 5
ENDMDL
MODEL 3
REMARK VINA RESULT:      -0.3      4.148      5.483
REMARK  5 active torsions:
REMARK  status: ('A' for Active; 'I' for Inactive)
REMARK    1  A    between atoms: C_2  and  C_3 
REMARK    2  A    between atoms: S_14  and  C_6 
REMARK    3  A    between atoms: C_7  and  N_12 
REMARK       I    between atoms: N_12  and  C_13 
REMARK    4  A    between atoms: C_13  and  C_20 
REMARK    5  A    between atoms: C_20  and  S_14 
ROOT
ATOM      1  N   UNL d   1      31.573  17.655 -24.312  0.00  0.00    -0.208 NA
ATOM      2  C   UNL d   1      30.934  17.946 -24.748  0.00  0.00     0.286 C 
ATOM      3  O   UNL d   1      30.860  18.765 -24.856  0.00  0.00    -0.265 OA
ENDROOT
BRANCH   2   4
ATOM      4  C   UNL d   1      30.389  17.432 -25.066  0.00  0.00     0.099 C 
BRANCH   4   5
ATOM      5  S   UNL d   1      29.593  17.500 -24.874  0.00  0.00    -0.061 SA
BRANCH   5   6
ATOM      6  C   UNL d   1      29.149  16.830 -24.686  0.00  0.00     0.133 A 
ATOM      7  C   UNL d   1      28.578  16.868 -24.089  0.00  0.00     0.143 A 
ATOM      8  C   UNL d   1      28.135  16.197 -23.902  0.00  0.00     0.185 A 
ATOM      9  N   UNL d   1      28.334  17.484 -23.596  0.00  0.00    -0.219 NA
ATOM     10  N   UNL d   1      27.621  16.406 -23.296  0.00  0.00    -0.203 NA
ATOM     11  N   UNL d   1      28.259  15.493 -24.307  0.00  0.00    -0.203 NA
ATOM     12  C   UNL d   1      27.745  17.196 -23.109  0.00  0.00     0.201 A 
ATOM     13  C   UNL d   1      28.824  15.453 -24.900  0.00  0.00     0.201 A 
ATOM     14  N   UNL d   1      29.274  16.117 -25.095  0.00  0.00    -0.216 NA
ENDBRANCH   5   6
ENDBRANCH   4   5
ENDBRANCH   2   4
BRANCH   1  15
ATOM     15  C   UNL d   1      32.133  18.172 -23.986  0.00  0.00     0.088 A 
ATOM     16  C   UNL d   1      32.639  17.909 -23.394  0.00  0.00     0.089 A 
ATOM     17  C   UNL d   1      33.192  18.426 -23.074  0.00  0.00     0.005 A 
ATOM     18  C   UNL d   1      33.241  19.204 -23.344  0.00  0.00     0.000 A 
ATOM     19  C   UNL d   1      32.732  19.467 -23.938  0.00  0.00     0.002 A 
ATOM     20  C   UNL d   1      32.174  18.946 -24.261  0.00  0.00     0.019 A 
BRANCH  16  21
ATOM     21  C   UNL d   1      32.593  17.130 -23.121  0.00  0.00     0.420 C 
ATOM     22  F   UNL d   1      32.555  16.418 -22.876  0.00  0.00    -0.166 F 
ATOM     23  F   UNL d   1      32.124  16.802 -22.482  0.00  0.00    -0.166 F 
ATOM     24  F   UNL d   1      33.007  16.437 -23.409  0.00  0.00    -0.166 F 
ENDBRANCH  16  21
ENDBRANCH   1  15
TORSDOF 5
ENDMDL
