MODEL 1
REMARK VINA RESULT:      27.7      0.000      0.000
REMARK  7 active torsions:
REMARK  status: ('A' for Active; 'I' for Inactive)
REMARK    1  A    between atoms: C_14  and  N_1 
REMARK    2  A    between atoms: C_2  and  C_5 
REMARK    3  A    between atoms: C_6  and  C_2 
REMARK    4  A    between atoms: C_7  and  C_3 
REMARK    5  A    between atoms: C_5  and  C_7 
REMARK    6  A    between atoms: O_15  and  C_6 
REMARK    7  A    between atoms: C_18  and  O_15 
ROOT
ATOM      1  C   UNL d   1      13.158  12.742  -4.656  0.00  0.00     0.132 C 
ATOM      2  C   UNL d   1      13.355  12.312  -5.323  0.00  0.00     0.106 C 
ATOM      3  N   UNL d   1      13.546  11.885  -5.970  0.00  0.00    -0.191 NA
ENDROOT
BRANCH   1   4
ATOM      4  C   UNL d   1      12.990  12.370  -3.939  0.00  0.00     0.017 C 
BRANCH   4   5
ATOM      5  C   UNL d   1      13.515  11.868  -3.626  0.00  0.00     0.018 C 
BRANCH   5   6
ATOM      6  C   UNL d   1      13.626  11.850  -2.814  0.00  0.00     0.064 A 
ATOM      7  N   UNL d   1      14.404  11.833  -2.492  0.00  0.00    -0.305 N 
ATOM      8  C   UNL d   1      14.504  11.816  -1.665  0.00  0.00     0.064 A 
ATOM      9  C   UNL d   1      13.853  11.816  -1.163  0.00  0.00     0.016 A 
ATOM     10  C   UNL d   1      15.272  11.798  -1.358  0.00  0.00     0.018 A 
ATOM     11  C   UNL d   1      13.079  11.833  -1.481  0.00  0.00     0.003 A 
ATOM     12  C   UNL d   1      13.964  11.798  -0.349  0.00  0.00     0.001 A 
ATOM     13  C   UNL d   1      12.968  11.850  -2.294  0.00  0.00     0.018 A 
ATOM     14  C   UNL d   1      14.729  11.781  -0.027  0.00  0.00     0.000 A 
ATOM     15  C   UNL d   1      15.384  11.781  -0.545  0.00  0.00     0.002 A 
BRANCH   7  16
ATOM     16  C   UNL d   1      15.064  11.833  -2.990  0.00  0.00     0.080 C 
ATOM     17  C   UNL d   1      15.823  11.934  -2.661  0.00  0.00     0.021 C 
ENDBRANCH   7  16
ENDBRANCH   5   6
ENDBRANCH   4   5
ENDBRANCH   1   4
BRANCH   1  18
ATOM     18  C   UNL d   1      13.134  13.540  -4.722  0.00  0.00     0.310 C 
ATOM     19  O   UNL d   1      13.053  13.872  -5.442  0.00  0.00    -0.258 OA
BRANCH  18  20
ATOM     20  O   UNL d   1      13.183  13.971  -4.143  0.00  0.00    -0.271 OA
BRANCH  20  21
ATOM     21  C   UNL d   1      13.304  14.836  -4.227  0.00  0.00     0.126 C 
ATOM     22  C   UNL d   1      14.044  15.194  -4.089  0.00  0.00     0.029 C 
ENDBRANCH  20  21
ENDBRANCH  18  20
ENDBRANCH   1  18
TORSDOF 7
ENDMDL
