MODEL 1
REMARK VINA RESULT:      36.7      0.000      0.000
REMARK  1 active torsions:
REMARK  status: ('A' for Active; 'I' for Inactive)
REMARK    1  A    between atoms: C_7  and  C_2 
ROOT
ATOM      1  C   UNL d   1      58.090  49.693  51.088  0.00  0.00     0.074 A 
ATOM      2  C   UNL d   1      58.570  49.687  50.418  0.00  0.00     0.088 A 
ATOM      3  C   UNL d   1      57.270  49.700  51.006  0.00  0.00     0.088 A 
ATOM      4  C   UNL d   1      57.411  49.695  49.584  0.00  0.00     0.221 A 
ATOM      5  N   UNL d   1      56.929  49.701  50.255  0.00  0.00    -0.217 NA
ATOM      6  N   UNL d   1      58.231  49.688  49.666  0.00  0.00    -0.217 NA
ATOM      7  C   UNL d   1      58.430  49.692  51.831  0.00  0.00     0.199 A 
ATOM      8  S   UNL d   1      57.070  49.696  48.832  0.00  0.00    -0.037 SA
ATOM      9  O   UNL d   1      59.251  49.685  51.912  0.00  0.00    -0.286 OA
ATOM     10  C   UNL d   1      56.789  49.706  51.668  0.00  0.00     0.019 A 
ATOM     11  C   UNL d   1      57.948  49.698  52.510  0.00  0.00     0.042 A 
ATOM     12  C   UNL d   1      57.128  49.705  52.428  0.00  0.00     0.005 A 
ENDROOT
BRANCH   2  13
ATOM     13  C   UNL d   1      59.391  49.680  50.499  0.00  0.00     0.021 A 
ATOM     14  C   UNL d   1      59.871  49.648  49.829  0.00  0.00     0.043 A 
ATOM     15  C   UNL d   1      60.687  49.641  49.910  0.00  0.00     0.196 A 
ATOM     16  O   UNL d   1      61.169  49.609  49.240  0.00  0.00    -0.287 OA
ATOM     17  C   UNL d   1      61.028  49.666  50.662  0.00  0.00     0.042 A 
ATOM     18  C   UNL d   1      60.547  49.698  51.331  0.00  0.00     0.003 A 
ATOM     19  C   UNL d   1      59.731  49.705  51.250  0.00  0.00     0.002 A 
ENDBRANCH   2  13
TORSDOF 1
ENDMDL
