MODEL 1
REMARK VINA RESULT:      13.7      0.000      0.000
REMARK  9 active torsions:
REMARK  status: ('A' for Active; 'I' for Inactive)
REMARK    1  A    between atoms: C_5  and  C_1 
REMARK    2  A    between atoms: N_11  and  C_2 
REMARK    3  A    between atoms: C_6  and  C_5 
REMARK    4  A    between atoms: C_7  and  C_5 
REMARK       I    between atoms: N_13  and  C_6 
REMARK    5  A    between atoms: C_16  and  N_11 
REMARK    6  A    between atoms: C_17  and  N_11 
REMARK    7  A    between atoms: C_14  and  N_13 
REMARK    8  A    between atoms: C_20  and  C_14 
REMARK    9  A    between atoms: C_15  and  C_20 
ROOT
ATOM      1  C   UNL d   1     -42.820-121.930 -50.828  0.00  0.00     0.117 A 
ATOM      2  C   UNL d   1     -42.737-122.537 -50.274  0.00  0.00     0.145 A 
ATOM      3  N   UNL d   1     -43.565-121.624 -50.995  0.00  0.00    -0.241 NA
ATOM      4  N   UNL d   1     -43.400-122.836 -49.888  0.00  0.00    -0.230 NA
ATOM      5  C   UNL d   1     -44.145-122.529 -50.056  0.00  0.00     0.100 A 
ATOM      6  C   UNL d   1     -44.228-121.923 -50.609  0.00  0.00     0.099 A 
ATOM      7  C   UNL d   1     -44.808-122.828 -49.670  0.00  0.00     0.021 A 
ATOM      8  C   UNL d   1     -44.973-121.616 -50.776  0.00  0.00     0.021 A 
ATOM      9  C   UNL d   1     -45.557-122.521 -49.837  0.00  0.00     0.002 A 
ATOM     10  C   UNL d   1     -45.640-121.915 -50.390  0.00  0.00     0.002 A 
ENDROOT
BRANCH   1  11
ATOM     11  C   UNL d   1     -42.068-121.745 -51.121  0.00  0.00     0.099 C 
BRANCH  11  12
ATOM     12  C   UNL d   1     -41.726-121.831 -51.869  0.00  0.00     0.282 C 
ATOM     13  O   UNL d   1     -41.123-121.304 -52.122  0.00  0.00    -0.265 OA
ATOM     14  N   UNL d   1     -41.979-122.440 -52.372  0.00  0.00    -0.206 NA
BRANCH  14  15
ATOM     15  C   UNL d   1     -41.635-122.529 -53.130  0.00  0.00     0.102 C 
BRANCH  15  16
ATOM     16  C   UNL d   1     -41.918-122.931 -53.785  0.00  0.00     0.021 C 
BRANCH  16  17
ATOM     17  C   UNL d   1     -41.901-122.583 -54.530  0.00  0.00     0.002 A 
ATOM     18  C   UNL d   1     -42.565-122.172 -54.796  0.00  0.00     0.000 A 
ATOM     19  C   UNL d   1     -42.557-121.822 -55.537  0.00  0.00     0.000 A 
ATOM     20  C   UNL d   1     -41.884-121.881 -56.016  0.00  0.00     0.000 A 
ATOM     21  C   UNL d   1     -41.223-122.295 -55.742  0.00  0.00     0.000 A 
ATOM     22  C   UNL d   1     -41.237-122.642 -55.000  0.00  0.00     0.000 A 
ENDBRANCH  16  17
ENDBRANCH  15  16
ENDBRANCH  14  15
ENDBRANCH  11  12
BRANCH  11  23
ATOM     23  C   UNL d   1     -41.532-121.407 -50.586  0.00  0.00     0.129 C 
ATOM     24  N   UNL d   1     -41.135-120.686 -50.539  0.00  0.00    -0.146 N 
ENDBRANCH  11  23
ENDBRANCH   1  11
BRANCH   2  25
ATOM     25  N   UNL d   1     -41.934-122.728 -50.224  0.00  0.00    -0.192 NA
BRANCH  25  26
ATOM     26  C   UNL d   1     -41.651-123.361 -49.778  0.00  0.00     0.057 C 
ATOM     27  C   UNL d   1     -41.123-122.705 -49.073  0.00  0.00     0.014 C 
ENDBRANCH  25  26
BRANCH  25  28
ATOM     28  C   UNL d   1     -41.359-123.019 -50.071  0.00  0.00     0.057 C 
ATOM     29  C   UNL d   1     -41.123-123.816 -49.469  0.00  0.00     0.014 C 
ENDBRANCH  25  28
ENDBRANCH   2  25
TORSDOF 9
ENDMDL
MODEL 2
REMARK VINA RESULT:      14.6      1.676      4.829
REMARK  9 active torsions:
REMARK  status: ('A' for Active; 'I' for Inactive)
REMARK    1  A    between atoms: C_5  and  C_1 
REMARK    2  A    between atoms: N_11  and  C_2 
REMARK    3  A    between atoms: C_6  and  C_5 
REMARK    4  A    between atoms: C_7  and  C_5 
REMARK       I    between atoms: N_13  and  C_6 
REMARK    5  A    between atoms: C_16  and  N_11 
REMARK    6  A    between atoms: C_17  and  N_11 
REMARK    7  A    between atoms: C_14  and  N_13 
REMARK    8  A    between atoms: C_20  and  C_14 
REMARK    9  A    between atoms: C_15  and  C_20 
ROOT
ATOM      1  C   UNL d   1     -41.458-121.591 -52.632  0.00  0.00     0.117 A 
ATOM      2  C   UNL d   1     -41.625-121.266 -53.372  0.00  0.00     0.145 A 
ATOM      3  N   UNL d   1     -41.291-121.099 -51.994  0.00  0.00    -0.241 NA
ATOM      4  N   UNL d   1     -41.625-120.448 -53.473  0.00  0.00    -0.230 NA
ATOM      5  C   UNL d   1     -41.458-119.957 -52.834  0.00  0.00     0.100 A 
ATOM      6  C   UNL d   1     -41.291-120.282 -52.094  0.00  0.00     0.099 A 
ATOM      7  C   UNL d   1     -41.457-119.139 -52.935  0.00  0.00     0.021 A 
ATOM      8  C   UNL d   1     -41.124-119.790 -51.456  0.00  0.00     0.021 A 
ATOM      9  C   UNL d   1     -41.290-118.644 -52.295  0.00  0.00     0.002 A 
ATOM     10  C   UNL d   1     -41.123-118.969 -51.555  0.00  0.00     0.002 A 
ENDROOT
BRANCH   1  11
ATOM     11  C   UNL d   1     -41.498-122.416 -52.698  0.00  0.00     0.099 C 
BRANCH  11  12
ATOM     12  C   UNL d   1     -41.661-123.010 -52.148  0.00  0.00     0.282 C 
ATOM     13  O   UNL d   1     -41.556-123.817 -52.352  0.00  0.00    -0.265 OA
ATOM     14  N   UNL d   1     -41.931-122.809 -51.390  0.00  0.00    -0.206 NA
BRANCH  14  15
ATOM     15  C   UNL d   1     -42.098-123.409 -50.830  0.00  0.00     0.102 C 
BRANCH  15  16
ATOM     16  C   UNL d   1     -42.770-123.525 -50.377  0.00  0.00     0.021 C 
BRANCH  16  17
ATOM     17  C   UNL d   1     -42.762-123.375 -49.568  0.00  0.00     0.002 A 
ATOM     18  C   UNL d   1     -43.255-123.815 -49.074  0.00  0.00     0.000 A 
ATOM     19  C   UNL d   1     -43.253-123.672 -48.267  0.00  0.00     0.000 A 
ATOM     20  C   UNL d   1     -42.759-123.088 -47.950  0.00  0.00     0.000 A 
ATOM     21  C   UNL d   1     -42.269-122.652 -48.453  0.00  0.00     0.000 A 
ATOM     22  C   UNL d   1     -42.275-122.799 -49.259  0.00  0.00     0.000 A 
ENDBRANCH  16  17
ENDBRANCH  15  16
ENDBRANCH  14  15
ENDBRANCH  11  12
BRANCH  11  23
ATOM     23  C   UNL d   1     -41.350-122.736 -53.448  0.00  0.00     0.129 C 
ATOM     24  N   UNL d   1     -41.379-123.495 -53.771  0.00  0.00    -0.146 N 
ENDBRANCH  11  23
ENDBRANCH   1  11
BRANCH   2  25
ATOM     25  N   UNL d   1     -41.769-121.888 -53.897  0.00  0.00    -0.192 NA
BRANCH  25  26
ATOM     26  C   UNL d   1     -42.264-121.816 -54.552  0.00  0.00     0.057 C 
ATOM     27  C   UNL d   1     -41.492-122.168 -55.250  0.00  0.00     0.014 C 
ENDBRANCH  25  26
BRANCH  25  28
ATOM     28  C   UNL d   1     -41.993-122.255 -54.402  0.00  0.00     0.057 C 
ATOM     29  C   UNL d   1     -42.191-122.036 -55.384  0.00  0.00     0.014 C 
ENDBRANCH  25  28
ENDBRANCH   2  25
TORSDOF 9
ENDMDL
