MODEL 1
REMARK VINA RESULT:      70.3      0.000      0.000
REMARK  6 active torsions:
REMARK  status: ('A' for Active; 'I' for Inactive)
REMARK    1  A    between atoms: O_10  and  C_1 
REMARK    2  A    between atoms: O_9  and  C_6 
REMARK    3  A    between atoms: O_12  and  C_8 
REMARK    4  A    between atoms: C_13  and  O_9 
REMARK    5  A    between atoms: C_19  and  O_10 
REMARK    6  A    between atoms: C_14  and  O_12 
ROOT
ATOM      1  C   UNL d   1     -49.295  27.062  33.581  0.00  0.00     0.161 A 
ATOM      2  C   UNL d   1     -50.690  26.174  33.520  0.00  0.00     0.128 A 
ATOM      3  C   UNL d   1     -49.938  25.796  33.476  0.00  0.00     0.066 A 
ATOM      4  C   UNL d   1     -49.251  26.248  33.507  0.00  0.00     0.222 A 
ATOM      5  O   UNL d   1     -50.740  26.996  33.594  0.00  0.00    -0.303 OA
ATOM      6  C   UNL d   1     -51.384  25.728  33.489  0.00  0.00     0.149 A 
ATOM      7  C   UNL d   1     -50.047  27.441  33.625  0.00  0.00     0.126 A 
ATOM      8  C   UNL d   1     -51.331  24.912  33.415  0.00  0.00     0.128 A 
ATOM      9  C   UNL d   1     -49.895  24.979  33.402  0.00  0.00     0.007 A 
ATOM     10  O   UNL d   1     -48.517  25.878  33.464  0.00  0.00    -0.284 OA
ATOM     11  C   UNL d   1     -50.579  24.534  33.371  0.00  0.00     0.027 A 
ATOM     12  C   UNL d   1     -50.090  28.277  33.700  0.00  0.00     0.029 C 
ENDROOT
BRANCH   1  13
ATOM     13  O   UNL d   1     -48.601  27.528  33.613  0.00  0.00    -0.302 OA
BRANCH  13  14
ATOM     14  C   UNL d   1     -48.491  28.044  34.245  0.00  0.00     0.100 A 
ATOM     15  C   UNL d   1     -48.101  28.759  34.128  0.00  0.00     0.025 A 
ATOM     16  C   UNL d   1     -47.991  29.277  34.763  0.00  0.00     0.002 A 
ATOM     17  C   UNL d   1     -48.272  29.078  35.513  0.00  0.00     0.000 A 
ATOM     18  C   UNL d   1     -48.663  28.361  35.627  0.00  0.00     0.002 A 
ATOM     19  C   UNL d   1     -48.773  27.842  34.992  0.00  0.00     0.025 A 
ENDBRANCH  13  14
ENDBRANCH   1  13
BRANCH   6  20
ATOM     20  O   UNL d   1     -52.116  26.096  33.532  0.00  0.00    -0.269 OA
BRANCH  20  21
ATOM     21  C   UNL d   1     -52.506  26.156  34.255  0.00  0.00     0.300 C 
ATOM     22  O   UNL d   1     -53.299  25.939  34.314  0.00  0.00    -0.259 OA
ATOM     23  C   UNL d   1     -52.102  26.435  34.921  0.00  0.00     0.074 C 
ENDBRANCH  20  21
ENDBRANCH   6  20
BRANCH   8  24
ATOM     24  O   UNL d   1     -52.034  24.447  33.383  0.00  0.00    -0.271 OA
BRANCH  24  25
ATOM     25  C   UNL d   1     -52.009  23.643  33.575  0.00  0.00     0.300 C 
ATOM     26  O   UNL d   1     -52.645  23.307  33.969  0.00  0.00    -0.259 OA
ATOM     27  C   UNL d   1     -51.353  23.189  33.373  0.00  0.00     0.074 C 
ENDBRANCH  24  25
ENDBRANCH   8  24
TORSDOF 6
ENDMDL
