MODEL 1
REMARK VINA RESULT:      85.4      0.000      0.000
REMARK  3 active torsions:
REMARK  status: ('A' for Active; 'I' for Inactive)
REMARK    1  A    between atoms: C_2  and  C_1 
REMARK    2  A    between atoms: C_4  and  C_1 
REMARK       I    between atoms: N_3  and  C_2 
REMARK    3  A    between atoms: C_6  and  N_5 
ROOT
ATOM      1  C   UNL d   1      60.883  49.013  50.697  0.00  0.00     0.253 C 
ATOM      2  N   UNL d   1      60.066  49.041  50.602  0.00  0.00    -0.272 N 
ATOM      3  N   UNL d   1      58.461  49.170  50.357  0.00  0.00    -0.299 N 
ATOM      4  O   UNL d   1      61.362  49.560  50.313  0.00  0.00    -0.271 OA
ATOM      5  C   UNL d   1      59.759  49.628  50.117  0.00  0.00     0.102 A 
ATOM      6  C   UNL d   1      59.566  48.523  50.961  0.00  0.00     0.102 A 
ATOM      7  C   UNL d   1      58.965  49.699  49.990  0.00  0.00     0.100 A 
ATOM      8  C   UNL d   1      58.756  48.580  50.843  0.00  0.00     0.100 A 
ENDROOT
BRANCH   1   9
ATOM      9  C   UNL d   1      61.229  48.437  51.177  0.00  0.00     0.137 A 
ATOM     10  C   UNL d   1      61.570  47.867  51.649  0.00  0.00     0.018 A 
ATOM     11  C   UNL d   1      61.794  48.053  52.429  0.00  0.00     0.119 A 
ATOM     12  O   UNL d   1      61.673  48.802  52.723  0.00  0.00    -0.304 OA
ATOM     13  C   UNL d   1      61.328  49.379  52.247  0.00  0.00     0.119 A 
ATOM     14  C   UNL d   1      61.105  49.198  51.471  0.00  0.00     0.018 A 
BRANCH   9  15
ATOM     15  C   UNL d   1      61.352  47.675  50.877  0.00  0.00     0.023 A 
ATOM     16  S   UNL d   1      61.807  47.470  50.214  0.00  0.00    -0.090 SA
ATOM     17  C   UNL d   1      61.780  46.654  50.112  0.00  0.00     0.035 A 
ATOM     18  C   UNL d   1      61.311  46.333  50.703  0.00  0.00     0.007 A 
ATOM     19  C   UNL d   1      61.043  46.965  51.180  0.00  0.00     0.004 A 
ENDBRANCH   9  15
ENDBRANCH   1   9
BRANCH   3  20
ATOM     20  C   UNL d   1      57.662  49.225  50.243  0.00  0.00     0.092 A 
ATOM     21  C   UNL d   1      57.351  49.181  49.484  0.00  0.00     0.156 A 
ATOM     22  F   UNL d   1      57.839  49.082  48.845  0.00  0.00    -0.203 F 
ATOM     23  C   UNL d   1      56.548  49.237  49.369  0.00  0.00     0.031 A 
ATOM     24  C   UNL d   1      56.044  49.337  50.014  0.00  0.00     0.002 A 
ATOM     25  C   UNL d   1      56.359  49.381  50.776  0.00  0.00     0.002 A 
ATOM     26  C   UNL d   1      57.174  49.324  50.890  0.00  0.00     0.020 A 
ENDBRANCH   3  20
TORSDOF 3
ENDMDL
MODEL 2
REMARK VINA RESULT:      87.0      1.327      2.059
REMARK  3 active torsions:
REMARK  status: ('A' for Active; 'I' for Inactive)
REMARK    1  A    between atoms: C_2  and  C_1 
REMARK    2  A    between atoms: C_4  and  C_1 
REMARK       I    between atoms: N_3  and  C_2 
REMARK    3  A    between atoms: C_6  and  N_5 
ROOT
ATOM      1  C   UNL d   1      60.289  48.304  51.299  0.00  0.00     0.253 C 
ATOM      2  N   UNL d   1      59.583  48.569  50.968  0.00  0.00    -0.272 N 
ATOM      3  N   UNL d   1      58.161  49.006  50.306  0.00  0.00    -0.299 N 
ATOM      4  O   UNL d   1      60.419  47.499  51.401  0.00  0.00    -0.271 OA
ATOM      5  C   UNL d   1      59.030  48.005  50.750  0.00  0.00     0.102 A 
ATOM      6  C   UNL d   1      59.421  49.349  50.853  0.00  0.00     0.102 A 
ATOM      7  C   UNL d   1      58.322  48.213  50.421  0.00  0.00     0.100 A 
ATOM      8  C   UNL d   1      58.706  49.578  50.520  0.00  0.00     0.100 A 
ENDROOT
BRANCH   1   9
ATOM      9  C   UNL d   1      60.870  48.841  51.532  0.00  0.00     0.137 A 
ATOM     10  C   UNL d   1      61.444  49.372  51.762  0.00  0.00     0.018 A 
ATOM     11  C   UNL d   1      61.958  49.702  51.197  0.00  0.00     0.119 A 
ATOM     12  O   UNL d   1      61.890  49.496  50.413  0.00  0.00    -0.304 OA
ATOM     13  C   UNL d   1      61.311  48.960  50.177  0.00  0.00     0.119 A 
ATOM     14  C   UNL d   1      60.799  48.630  50.736  0.00  0.00     0.018 A 
BRANCH   9  15
ATOM     15  C   UNL d   1      60.939  49.050  52.330  0.00  0.00     0.023 A 
ATOM     16  S   UNL d   1      61.340  49.707  52.638  0.00  0.00    -0.090 SA
ATOM     17  C   UNL d   1      61.269  49.705  53.458  0.00  0.00     0.035 A 
ATOM     18  C   UNL d   1      60.826  49.051  53.679  0.00  0.00     0.007 A 
ATOM     19  C   UNL d   1      60.619  48.643  52.980  0.00  0.00     0.004 A 
ENDBRANCH   9  15
ENDBRANCH   1   9
BRANCH   3  20
ATOM     20  C   UNL d   1      57.457  49.234  49.978  0.00  0.00     0.092 A 
ATOM     21  C   UNL d   1      56.835  49.471  50.460  0.00  0.00     0.156 A 
ATOM     22  F   UNL d   1      56.921  49.478  51.266  0.00  0.00    -0.203 F 
ATOM     23  C   UNL d   1      56.129  49.699  50.129  0.00  0.00     0.031 A 
ATOM     24  C   UNL d   1      56.034  49.694  49.310  0.00  0.00     0.002 A 
ATOM     25  C   UNL d   1      56.661  49.456  48.828  0.00  0.00     0.002 A 
ATOM     26  C   UNL d   1      57.377  49.224  49.166  0.00  0.00     0.020 A 
ENDBRANCH   3  20
TORSDOF 3
ENDMDL
