MODEL 1
REMARK VINA RESULT:       2.3      0.000      0.000
REMARK  7 active torsions:
REMARK  status: ('A' for Active; 'I' for Inactive)
REMARK    1  A    between atoms: C_9  and  N_1 
REMARK    2  A    between atoms: C_12  and  N_3 
REMARK    3  A    between atoms: N_7  and  C_11 
REMARK    4  A    between atoms: C_13  and  C_9 
REMARK    5  A    between atoms: C_21  and  C_12 
REMARK       I    between atoms: N_20  and  C_13 
REMARK    6  A    between atoms: C_23  and  N_20 
REMARK    7  A    between atoms: C_24  and  C_23 
ROOT
ATOM      1  N   UNL d   1     -41.126-122.548 -51.982  0.00  0.00    -0.220 N 
ATOM      2  C   UNL d   1     -41.124-122.983 -51.281  0.00  0.00     0.342 A 
ATOM      3  N   UNL d   1     -41.124-122.592 -50.553  0.00  0.00    -0.258 N 
ATOM      4  C   UNL d   1     -41.127-121.334 -51.230  0.00  0.00     0.102 A 
ATOM      5  C   UNL d   1     -41.127-121.723 -51.955  0.00  0.00     0.276 A 
ATOM      6  C   UNL d   1     -41.126-121.768 -50.528  0.00  0.00     0.079 A 
ATOM      7  S   UNL d   1     -41.129-120.534 -51.033  0.00  0.00    -0.080 SA
ATOM      8  C   UNL d   1     -41.126-121.234 -49.903  0.00  0.00     0.025 A 
ATOM      9  O   UNL d   1     -41.123-123.817 -51.303  0.00  0.00    -0.245 OA
ATOM     10  C   UNL d   1     -41.128-120.471 -50.209  0.00  0.00     0.037 A 
ATOM     11  O   UNL d   1     -41.129-121.288 -52.657  0.00  0.00    -0.266 OA
ENDROOT
BRANCH   1  12
ATOM     12  C   UNL d   1     -41.125-122.944 -52.712  0.00  0.00     0.150 C 
BRANCH  12  13
ATOM     13  C   UNL d   1     -41.828-123.256 -53.013  0.00  0.00     0.297 C 
ATOM     14  N   UNL d   1     -41.974-123.240 -53.831  0.00  0.00    -0.205 NA
ATOM     15  O   UNL d   1     -42.393-123.587 -52.505  0.00  0.00    -0.264 OA
BRANCH  14  16
ATOM     16  C   UNL d   1     -41.535-122.981 -54.240  0.00  0.00     0.102 C 
BRANCH  16  17
ATOM     17  C   UNL d   1     -41.808-122.600 -54.932  0.00  0.00     0.019 A 
ATOM     18  C   UNL d   1     -41.276-122.136 -55.368  0.00  0.00     0.002 A 
ATOM     19  C   UNL d   1     -41.537-121.752 -56.060  0.00  0.00     0.000 A 
ATOM     20  C   UNL d   1     -42.313-121.837 -56.299  0.00  0.00     0.000 A 
ATOM     21  C   UNL d   1     -42.846-122.301 -55.862  0.00  0.00     0.000 A 
ATOM     22  C   UNL d   1     -42.568-121.447 -56.996  0.00  0.00     0.000 C 
ATOM     23  C   UNL d   1     -42.592-122.683 -55.177  0.00  0.00     0.002 A 
ENDBRANCH  16  17
ENDBRANCH  14  16
ENDBRANCH  12  13
ENDBRANCH   1  12
BRANCH   3  24
ATOM     24  C   UNL d   1     -41.123-123.026 -49.851  0.00  0.00     0.085 C 
BRANCH  24  25
ATOM     25  C   UNL d   1     -41.819-123.120 -49.423  0.00  0.00     0.019 A 
ATOM     26  C   UNL d   1     -41.826-122.982 -48.610  0.00  0.00     0.025 A 
ATOM     27  C   UNL d   1     -42.523-123.075 -48.181  0.00  0.00     0.127 A 
ATOM     28  C   UNL d   1     -43.216-123.308 -48.566  0.00  0.00     0.024 A 
ATOM     29  C   UNL d   1     -43.210-123.445 -49.379  0.00  0.00     0.002 A 
ATOM     30  C   UNL d   1     -42.514-123.352 -49.807  0.00  0.00     0.002 A 
BRANCH  27  31
ATOM     31  N   UNL d   1     -42.521-122.935 -47.368  0.00  0.00    -0.114 N 
ATOM     32  O   UNL d   1     -43.160-123.172 -46.899  0.00  0.00    -0.532 OA
ATOM     33  O   UNL d   1     -41.874-122.556 -47.017  0.00  0.00    -0.532 OA
ENDBRANCH  27  31
ENDBRANCH  24  25
ENDBRANCH   3  24
TORSDOF 7
ENDMDL
