MODEL 1
REMARK VINA RESULT:      -3.0      0.000      0.000
REMARK  3 active torsions:
REMARK  status: ('A' for Active; 'I' for Inactive)
REMARK    1  A    between atoms: C_6  and  C_1 
REMARK    2  A    between atoms: C_7  and  C_5 
REMARK    3  A    between atoms: O_15  and  C_12 
ROOT
ATOM      1  C   UNL d   1      32.974  18.787 -22.855  0.00  0.00     0.169 A 
ATOM      2  C   UNL d   1      32.688  19.433 -23.145  0.00  0.00     0.048 A 
ATOM      3  N   UNL d   1      33.224  19.406 -21.726  0.00  0.00    -0.148 NA
ATOM      4  N   UNL d   1      33.239  18.779 -22.149  0.00  0.00    -0.142 NA
ATOM      5  C   UNL d   1      32.938  20.052 -22.016  0.00  0.00     0.105 A 
ENDROOT
BRANCH   5   6
ATOM      6  C   UNL d   1      32.832  20.815 -21.737  0.00  0.00     0.020 A 
ATOM      7  C   UNL d   1      33.229  21.446 -22.096  0.00  0.00     0.004 A 
ATOM      8  C   UNL d   1      33.123  22.215 -21.816  0.00  0.00     0.024 A 
ATOM      9  C   UNL d   1      32.619  22.357 -21.175  0.00  0.00     0.094 A 
ATOM     10  C   UNL d   1      32.222  21.725 -20.816  0.00  0.00     0.024 A 
ATOM     11  C   UNL d   1      32.330  20.954 -21.099  0.00  0.00     0.004 A 
BRANCH   9  12
ATOM     12  O   UNL d   1      32.513  23.120 -20.895  0.00  0.00    -0.328 OA
ATOM     13  C   UNL d   1      31.935  23.604 -21.226  0.00  0.00     0.181 C 
ENDBRANCH   9  12
ENDBRANCH   5   6
BRANCH   1  14
ATOM     14  C   UNL d   1      32.988  18.159 -23.280  0.00  0.00     0.231 C 
ATOM     15  O   UNL d   1      33.102  18.215 -24.031  0.00  0.00    -0.643 OA
ATOM     16  O   UNL d   1      32.891  17.482 -22.964  0.00  0.00    -0.643 OA
ENDBRANCH   1  14
TORSDOF 3
ENDMDL
MODEL 2
REMARK VINA RESULT:      -2.7      3.264      5.009
REMARK  3 active torsions:
REMARK  status: ('A' for Active; 'I' for Inactive)
REMARK    1  A    between atoms: C_6  and  C_1 
REMARK    2  A    between atoms: C_7  and  C_5 
REMARK    3  A    between atoms: O_15  and  C_12 
ROOT
ATOM      1  C   UNL d   1      32.674  23.266 -17.869  0.00  0.00     0.169 A 
ATOM      2  C   UNL d   1      32.323  23.701 -18.389  0.00  0.00     0.048 A 
ATOM      3  N   UNL d   1      33.240  22.575 -18.830  0.00  0.00    -0.148 NA
ATOM      4  N   UNL d   1      33.129  22.708 -18.092  0.00  0.00    -0.142 NA
ATOM      5  C   UNL d   1      32.889  23.009 -19.349  0.00  0.00     0.105 A 
ENDROOT
BRANCH   5   6
ATOM      6  C   UNL d   1      32.872  23.033 -20.168  0.00  0.00     0.020 A 
ATOM      7  C   UNL d   1      33.201  23.677 -20.571  0.00  0.00     0.004 A 
ATOM      8  C   UNL d   1      33.185  23.702 -21.396  0.00  0.00     0.024 A 
ATOM      9  C   UNL d   1      32.839  23.083 -21.823  0.00  0.00     0.094 A 
ATOM     10  C   UNL d   1      32.511  22.438 -21.420  0.00  0.00     0.024 A 
ATOM     11  C   UNL d   1      32.529  22.416 -20.592  0.00  0.00     0.004 A 
BRANCH   9  12
ATOM     12  O   UNL d   1      32.823  23.106 -22.642  0.00  0.00    -0.328 OA
ATOM     13  C   UNL d   1      32.375  23.677 -23.029  0.00  0.00     0.181 C 
ENDBRANCH   9  12
ENDBRANCH   5   6
BRANCH   1  14
ATOM     14  C   UNL d   1      32.563  23.400 -17.131  0.00  0.00     0.231 C 
ATOM     15  O   UNL d   1      33.150  23.608 -16.693  0.00  0.00    -0.643 OA
ATOM     16  O   UNL d   1      31.876  23.329 -16.828  0.00  0.00    -0.643 OA
ENDBRANCH   1  14
TORSDOF 3
ENDMDL
MODEL 3
REMARK VINA RESULT:      -2.6      3.611      4.997
REMARK  3 active torsions:
REMARK  status: ('A' for Active; 'I' for Inactive)
REMARK    1  A    between atoms: C_6  and  C_1 
REMARK    2  A    between atoms: C_7  and  C_5 
REMARK    3  A    between atoms: O_15  and  C_12 
ROOT
ATOM      1  C   UNL d   1      29.229  16.192 -23.905  0.00  0.00     0.169 A 
ATOM      2  C   UNL d   1      29.336  16.861 -24.254  0.00  0.00     0.048 A 
ATOM      3  N   UNL d   1      30.517  16.107 -23.670  0.00  0.00    -0.148 NA
ATOM      4  N   UNL d   1      29.818  15.820 -23.616  0.00  0.00    -0.142 NA
ATOM      5  C   UNL d   1      30.625  16.777 -24.019  0.00  0.00     0.105 A 
ENDROOT
BRANCH   5   6
ATOM      6  C   UNL d   1      31.276  17.248 -24.181  0.00  0.00     0.020 A 
ATOM      7  C   UNL d   1      31.344  17.622 -24.915  0.00  0.00     0.004 A 
ATOM      8  C   UNL d   1      31.999  18.097 -25.079  0.00  0.00     0.024 A 
ATOM      9  C   UNL d   1      32.590  18.199 -24.508  0.00  0.00     0.094 A 
ATOM     10  C   UNL d   1      32.521  17.824 -23.773  0.00  0.00     0.024 A 
ATOM     11  C   UNL d   1      31.862  17.348 -23.612  0.00  0.00     0.004 A 
BRANCH   9  12
ATOM     12  O   UNL d   1      33.241  18.670 -24.669  0.00  0.00    -0.328 OA
ATOM     13  C   UNL d   1      33.206  19.481 -24.538  0.00  0.00     0.181 C 
ENDBRANCH   9  12
ENDBRANCH   5   6
BRANCH   1  14
ATOM     14  C   UNL d   1      28.529  15.905 -23.851  0.00  0.00     0.231 C 
ATOM     15  O   UNL d   1      28.263  15.453 -24.404  0.00  0.00    -0.643 OA
ATOM     16  O   UNL d   1      28.095  16.064 -23.255  0.00  0.00    -0.643 OA
ENDBRANCH   1  14
TORSDOF 3
ENDMDL
MODEL 4
REMARK VINA RESULT:      -2.2      1.416      2.163
REMARK  3 active torsions:
REMARK  status: ('A' for Active; 'I' for Inactive)
REMARK    1  A    between atoms: C_6  and  C_1 
REMARK    2  A    between atoms: C_7  and  C_5 
REMARK    3  A    between atoms: O_15  and  C_12 
ROOT
ATOM      1  C   UNL d   1      32.409  16.913 -23.566  0.00  0.00     0.169 A 
ATOM      2  C   UNL d   1      32.039  17.551 -23.760  0.00  0.00     0.048 A 
ATOM      3  N   UNL d   1      33.241  17.617 -22.836  0.00  0.00    -0.148 NA
ATOM      4  N   UNL d   1      33.005  16.950 -23.106  0.00  0.00    -0.142 NA
ATOM      5  C   UNL d   1      32.871  18.256 -23.030  0.00  0.00     0.105 A 
ENDROOT
BRANCH   5   6
ATOM      6  C   UNL d   1      32.958  19.052 -22.855  0.00  0.00     0.020 A 
ATOM      7  C   UNL d   1      33.153  19.589 -23.455  0.00  0.00     0.004 A 
ATOM      8  C   UNL d   1      33.241  20.391 -23.280  0.00  0.00     0.024 A 
ATOM      9  C   UNL d   1      33.135  20.660 -22.504  0.00  0.00     0.094 A 
ATOM     10  C   UNL d   1      32.941  20.123 -21.905  0.00  0.00     0.024 A 
ATOM     11  C   UNL d   1      32.853  19.318 -22.084  0.00  0.00     0.004 A 
BRANCH   9  12
ATOM     12  O   UNL d   1      33.222  21.456 -22.329  0.00  0.00    -0.328 OA
ATOM     13  C   UNL d   1      33.151  21.718 -21.553  0.00  0.00     0.181 C 
ENDBRANCH   9  12
ENDBRANCH   5   6
BRANCH   1  14
ATOM     14  C   UNL d   1      32.173  16.245 -23.837  0.00  0.00     0.231 C 
ATOM     15  O   UNL d   1      32.255  16.089 -24.578  0.00  0.00    -0.643 OA
ATOM     16  O   UNL d   1      31.858  15.736 -23.379  0.00  0.00    -0.643 OA
ENDBRANCH   1  14
TORSDOF 3
ENDMDL
MODEL 5
REMARK VINA RESULT:      -2.1      2.168      4.463
REMARK  3 active torsions:
REMARK  status: ('A' for Active; 'I' for Inactive)
REMARK    1  A    between atoms: C_6  and  C_1 
REMARK    2  A    between atoms: C_7  and  C_5 
REMARK    3  A    between atoms: O_15  and  C_12 
ROOT
ATOM      1  C   UNL d   1      32.843  22.749 -19.067  0.00  0.00     0.169 A 
ATOM      2  C   UNL d   1      33.241  22.122 -19.242  0.00  0.00     0.048 A 
ATOM      3  N   UNL d   1      32.400  22.813 -20.300  0.00  0.00    -0.148 NA
ATOM      4  N   UNL d   1      32.426  23.089 -19.595  0.00  0.00    -0.142 NA
ATOM      5  C   UNL d   1      32.798  22.187 -20.476  0.00  0.00     0.105 A 
ENDROOT
BRANCH   5   6
ATOM      6  C   UNL d   1      32.905  21.739 -21.154  0.00  0.00     0.020 A 
ATOM      7  C   UNL d   1      32.859  20.914 -21.118  0.00  0.00     0.004 A 
ATOM      8  C   UNL d   1      32.967  20.462 -21.800  0.00  0.00     0.024 A 
ATOM      9  C   UNL d   1      33.120  20.834 -22.523  0.00  0.00     0.094 A 
ATOM     10  C   UNL d   1      33.166  21.660 -22.560  0.00  0.00     0.024 A 
ATOM     11  C   UNL d   1      33.058  22.111 -21.873  0.00  0.00     0.004 A 
BRANCH   9  12
ATOM     12  O   UNL d   1      33.227  20.387 -23.202  0.00  0.00    -0.328 OA
ATOM     13  C   UNL d   1      33.216  19.566 -23.161  0.00  0.00     0.181 C 
ENDBRANCH   9  12
ENDBRANCH   5   6
BRANCH   1  14
ATOM     14  C   UNL d   1      32.869  23.025 -18.361  0.00  0.00     0.231 C 
ATOM     15  O   UNL d   1      33.192  22.613 -17.807  0.00  0.00    -0.643 OA
ATOM     16  O   UNL d   1      32.579  23.702 -18.203  0.00  0.00    -0.643 OA
ENDBRANCH   1  14
TORSDOF 3
ENDMDL
MODEL 6
REMARK VINA RESULT:      -1.9      2.472      3.099
REMARK  3 active torsions:
REMARK  status: ('A' for Active; 'I' for Inactive)
REMARK    1  A    between atoms: C_6  and  C_1 
REMARK    2  A    between atoms: C_7  and  C_5 
REMARK    3  A    between atoms: O_15  and  C_12 
ROOT
ATOM      1  C   UNL d   1      32.705  21.207 -21.578  0.00  0.00     0.169 A 
ATOM      2  C   UNL d   1      32.841  20.976 -20.864  0.00  0.00     0.048 A 
ATOM      3  N   UNL d   1      32.584  22.443 -21.155  0.00  0.00    -0.148 NA
ATOM      4  N   UNL d   1      32.577  21.937 -21.719  0.00  0.00    -0.142 NA
ATOM      5  C   UNL d   1      32.720  22.212 -20.441  0.00  0.00     0.105 A 
ENDROOT
BRANCH   5   6
ATOM      6  C   UNL d   1      32.770  22.583 -19.712  0.00  0.00     0.020 A 
ATOM      7  C   UNL d   1      33.190  22.227 -19.094  0.00  0.00     0.004 A 
ATOM      8  C   UNL d   1      33.241  22.600 -18.359  0.00  0.00     0.024 A 
ATOM      9  C   UNL d   1      32.872  23.331 -18.239  0.00  0.00     0.094 A 
ATOM     10  C   UNL d   1      32.453  23.687 -18.858  0.00  0.00     0.024 A 
ATOM     11  C   UNL d   1      32.403  23.310 -19.594  0.00  0.00     0.004 A 
BRANCH   9  12
ATOM     12  O   UNL d   1      32.922  23.702 -17.510  0.00  0.00    -0.328 OA
ATOM     13  C   UNL d   1      32.994  23.255 -16.823  0.00  0.00     0.181 C 
ENDBRANCH   9  12
ENDBRANCH   5   6
BRANCH   1  14
ATOM     14  C   UNL d   1      32.699  20.700 -22.142  0.00  0.00     0.231 C 
ATOM     15  O   UNL d   1      33.030  20.870 -22.806  0.00  0.00    -0.643 OA
ATOM     16  O   UNL d   1      32.368  20.029 -22.049  0.00  0.00    -0.643 OA
ENDBRANCH   1  14
TORSDOF 3
ENDMDL
MODEL 7
REMARK VINA RESULT:      -0.8      3.467      5.480
REMARK  3 active torsions:
REMARK  status: ('A' for Active; 'I' for Inactive)
REMARK    1  A    between atoms: C_6  and  C_1 
REMARK    2  A    between atoms: C_7  and  C_5 
REMARK    3  A    between atoms: O_15  and  C_12 
ROOT
ATOM      1  C   UNL d   1      32.329  18.423 -24.380  0.00  0.00     0.169 A 
ATOM      2  C   UNL d   1      31.912  18.254 -23.763  0.00  0.00     0.048 A 
ATOM      3  N   UNL d   1      31.602  17.599 -25.097  0.00  0.00    -0.148 NA
ATOM      4  N   UNL d   1      32.172  18.095 -25.040  0.00  0.00    -0.142 NA
ATOM      5  C   UNL d   1      31.185  17.430 -24.481  0.00  0.00     0.105 A 
ENDROOT
BRANCH   5   6
ATOM      6  C   UNL d   1      30.548  16.938 -24.330  0.00  0.00     0.020 A 
ATOM      7  C   UNL d   1      29.813  17.094 -24.678  0.00  0.00     0.004 A 
ATOM      8  C   UNL d   1      29.170  16.599 -24.527  0.00  0.00     0.024 A 
ATOM      9  C   UNL d   1      29.258  15.945 -24.028  0.00  0.00     0.094 A 
ATOM     10  C   UNL d   1      29.993  15.789 -23.680  0.00  0.00     0.024 A 
ATOM     11  C   UNL d   1      30.637  16.288 -23.833  0.00  0.00     0.004 A 
BRANCH   9  12
ATOM     12  O   UNL d   1      28.621  15.453 -23.877  0.00  0.00    -0.328 OA
ATOM     13  C   UNL d   1      27.970  15.735 -23.460  0.00  0.00     0.181 C 
ENDBRANCH   9  12
ENDBRANCH   5   6
BRANCH   1  14
ATOM     14  C   UNL d   1      32.899  18.920 -24.322  0.00  0.00     0.231 C 
ATOM     15  O   UNL d   1      33.182  19.244 -24.951  0.00  0.00    -0.643 OA
ATOM     16  O   UNL d   1      33.187  19.096 -23.648  0.00  0.00    -0.643 OA
ENDBRANCH   1  14
TORSDOF 3
ENDMDL
MODEL 8
REMARK VINA RESULT:      -0.4      3.456      4.757
REMARK  3 active torsions:
REMARK  status: ('A' for Active; 'I' for Inactive)
REMARK    1  A    between atoms: C_6  and  C_1 
REMARK    2  A    between atoms: C_7  and  C_5 
REMARK    3  A    between atoms: O_15  and  C_12 
ROOT
ATOM      1  C   UNL d   1      32.549  22.832 -20.540  0.00  0.00     0.169 A 
ATOM      2  C   UNL d   1      32.290  22.360 -19.998  0.00  0.00     0.048 A 
ATOM      3  N   UNL d   1      33.175  23.536 -19.627  0.00  0.00    -0.148 NA
ATOM      4  N   UNL d   1      32.988  23.415 -20.351  0.00  0.00    -0.142 NA
ATOM      5  C   UNL d   1      32.916  23.065 -19.086  0.00  0.00     0.105 A 
ENDROOT
BRANCH   5   6
ATOM      6  C   UNL d   1      32.997  23.019 -18.271  0.00  0.00     0.020 A 
ATOM      7  C   UNL d   1      33.152  23.702 -17.831  0.00  0.00     0.004 A 
ATOM      8  C   UNL d   1      33.233  23.657 -17.011  0.00  0.00     0.024 A 
ATOM      9  C   UNL d   1      33.160  22.927 -16.627  0.00  0.00     0.094 A 
ATOM     10  C   UNL d   1      33.006  22.244 -17.067  0.00  0.00     0.024 A 
ATOM     11  C   UNL d   1      32.925  22.293 -17.891  0.00  0.00     0.004 A 
BRANCH   9  12
ATOM     12  O   UNL d   1      33.241  22.881 -15.812  0.00  0.00    -0.328 OA
ATOM     13  C   UNL d   1      32.633  22.568 -15.355  0.00  0.00     0.181 C 
ENDBRANCH   9  12
ENDBRANCH   5   6
BRANCH   1  14
ATOM     14  C   UNL d   1      32.361  22.710 -21.264  0.00  0.00     0.231 C 
ATOM     15  O   UNL d   1      32.816  22.286 -21.705  0.00  0.00    -0.643 OA
ATOM     16  O   UNL d   1      31.729  23.004 -21.551  0.00  0.00    -0.643 OA
ENDBRANCH   1  14
TORSDOF 3
ENDMDL
