MODEL 1
REMARK VINA RESULT:      -3.2      0.000      0.000
REMARK  3 active torsions:
REMARK  status: ('A' for Active; 'I' for Inactive)
REMARK    1  A    between atoms: S_8  and  C_1 
REMARK       I    between atoms: N_4  and  C_5 
REMARK    2  A    between atoms: C_5  and  C_9 
REMARK    3  A    between atoms: C_9  and  S_8 
ROOT
ATOM      1  S   UNL d   1      33.241  20.049 -21.891  0.00  0.00    -0.056 SA
ENDROOT
BRANCH   1   2
ATOM      2  C   UNL d   1      33.130  19.623 -22.577  0.00  0.00     0.141 A 
ATOM      3  N   UNL d   1      33.220  19.900 -23.344  0.00  0.00    -0.232 NA
ATOM      4  C   UNL d   1      33.053  19.289 -23.865  0.00  0.00     0.088 A 
ATOM      5  C   UNL d   1      33.055  19.253 -24.686  0.00  0.00     0.020 A 
ATOM      6  C   UNL d   1      32.854  18.613 -23.412  0.00  0.00     0.049 A 
ATOM      7  C   UNL d   1      32.854  18.528 -25.061  0.00  0.00     0.002 A 
ATOM      8  C   UNL d   1      32.662  17.880 -24.627  0.00  0.00     0.001 A 
ATOM      9  C   UNL d   1      32.659  17.912 -23.789  0.00  0.00     0.008 A 
ATOM     10  S   UNL d   1      32.904  18.829 -22.628  0.00  0.00    -0.060 SA
ENDBRANCH   1   2
BRANCH   1  11
ATOM     11  C   UNL d   1      32.894  20.789 -21.801  0.00  0.00     0.098 C 
BRANCH  11  12
ATOM     12  C   UNL d   1      32.921  21.198 -21.068  0.00  0.00     0.271 C 
ATOM     13  N   UNL d   1      32.668  21.999 -21.011  0.00  0.00    -0.272 N 
ATOM     14  C   UNL d   1      32.700  22.385 -20.291  0.00  0.00     0.083 A 
ATOM     15  C   UNL d   1      32.396  22.378 -21.678  0.00  0.00     0.083 A 
ATOM     16  C   UNL d   1      32.459  23.154 -20.229  0.00  0.00     0.019 A 
ATOM     17  C   UNL d   1      32.176  23.551 -20.919  0.00  0.00     0.003 A 
ATOM     18  C   UNL d   1      32.145  23.175 -21.619  0.00  0.00     0.019 A 
ATOM     19  O   UNL d   1      33.202  20.787 -20.407  0.00  0.00    -0.266 OA
ENDBRANCH  11  12
ENDBRANCH   1  11
TORSDOF 3
ENDMDL
MODEL 2
REMARK VINA RESULT:      -3.1      1.745      4.843
REMARK  3 active torsions:
REMARK  status: ('A' for Active; 'I' for Inactive)
REMARK    1  A    between atoms: S_8  and  C_1 
REMARK       I    between atoms: N_4  and  C_5 
REMARK    2  A    between atoms: C_5  and  C_9 
REMARK    3  A    between atoms: C_9  and  S_8 
ROOT
ATOM      1  S   UNL d   1      33.241  18.654 -22.809  0.00  0.00    -0.056 SA
ENDROOT
BRANCH   1   2
ATOM      2  C   UNL d   1      33.173  19.389 -22.463  0.00  0.00     0.141 A 
ATOM      3  N   UNL d   1      33.025  19.545 -21.670  0.00  0.00    -0.232 NA
ATOM      4  C   UNL d   1      33.001  20.357 -21.563  0.00  0.00     0.088 A 
ATOM      5  C   UNL d   1      32.874  20.818 -20.894  0.00  0.00     0.020 A 
ATOM      6  C   UNL d   1      33.137  20.719 -22.307  0.00  0.00     0.049 A 
ATOM      7  C   UNL d   1      32.884  21.655 -20.970  0.00  0.00     0.002 A 
ATOM      8  C   UNL d   1      33.014  22.002 -21.683  0.00  0.00     0.001 A 
ATOM      9  C   UNL d   1      33.144  21.535 -22.368  0.00  0.00     0.008 A 
ATOM     10  S   UNL d   1      33.240  20.118 -22.848  0.00  0.00    -0.060 SA
ENDBRANCH   1   2
BRANCH   1  11
ATOM     11  C   UNL d   1      32.585  18.292 -23.148  0.00  0.00     0.098 C 
BRANCH  11  12
ATOM     12  C   UNL d   1      32.593  17.479 -23.356  0.00  0.00     0.271 C 
ATOM     13  N   UNL d   1      31.963  17.140 -23.799  0.00  0.00    -0.272 N 
ATOM     14  C   UNL d   1      31.984  16.347 -23.996  0.00  0.00     0.083 A 
ATOM     15  C   UNL d   1      31.339  17.611 -24.026  0.00  0.00     0.083 A 
ATOM     16  C   UNL d   1      31.382  16.015 -24.421  0.00  0.00     0.019 A 
ATOM     17  C   UNL d   1      30.733  16.501 -24.658  0.00  0.00     0.003 A 
ATOM     18  C   UNL d   1      30.712  17.272 -24.467  0.00  0.00     0.019 A 
ATOM     19  O   UNL d   1      33.241  17.025 -23.113  0.00  0.00    -0.266 OA
ENDBRANCH  11  12
ENDBRANCH   1  11
TORSDOF 3
ENDMDL
MODEL 3
REMARK VINA RESULT:      -2.7      1.499      2.264
REMARK  3 active torsions:
REMARK  status: ('A' for Active; 'I' for Inactive)
REMARK    1  A    between atoms: S_8  and  C_1 
REMARK       I    between atoms: N_4  and  C_5 
REMARK    2  A    between atoms: C_5  and  C_9 
REMARK    3  A    between atoms: C_9  and  S_8 
ROOT
ATOM      1  S   UNL d   1      33.133  19.077 -23.531  0.00  0.00    -0.056 SA
ENDROOT
BRANCH   1   2
ATOM      2  C   UNL d   1      32.854  18.313 -23.580  0.00  0.00     0.141 A 
ATOM      3  N   UNL d   1      33.240  17.634 -23.326  0.00  0.00    -0.232 NA
ATOM      4  C   UNL d   1      32.760  16.987 -23.481  0.00  0.00     0.088 A 
ATOM      5  C   UNL d   1      32.865  16.183 -23.345  0.00  0.00     0.020 A 
ATOM      6  C   UNL d   1      32.057  17.268 -23.839  0.00  0.00     0.049 A 
ATOM      7  C   UNL d   1      32.255  15.650 -23.573  0.00  0.00     0.002 A 
ATOM      8  C   UNL d   1      31.581  15.919 -23.916  0.00  0.00     0.001 A 
ATOM      9  C   UNL d   1      31.470  16.739 -24.056  0.00  0.00     0.008 A 
ATOM     10  S   UNL d   1      32.126  18.078 -23.894  0.00  0.00    -0.060 SA
ENDBRANCH   1   2
BRANCH   1  11
ATOM     11  C   UNL d   1      33.089  19.491 -22.822  0.00  0.00     0.098 C 
BRANCH  11  12
ATOM     12  C   UNL d   1      33.165  20.327 -22.799  0.00  0.00     0.271 C 
ATOM     13  N   UNL d   1      33.165  20.740 -22.066  0.00  0.00    -0.272 N 
ATOM     14  C   UNL d   1      33.240  21.555 -22.058  0.00  0.00     0.083 A 
ATOM     15  C   UNL d   1      33.088  20.320 -21.373  0.00  0.00     0.083 A 
ATOM     16  C   UNL d   1      33.240  21.958 -21.357  0.00  0.00     0.019 A 
ATOM     17  C   UNL d   1      33.161  21.526 -20.637  0.00  0.00     0.003 A 
ATOM     18  C   UNL d   1      33.088  20.734 -20.644  0.00  0.00     0.019 A 
ATOM     19  O   UNL d   1      33.241  20.727 -23.519  0.00  0.00    -0.266 OA
ENDBRANCH  11  12
ENDBRANCH   1  11
TORSDOF 3
ENDMDL
MODEL 4
REMARK VINA RESULT:      -0.6      1.821      4.714
REMARK  3 active torsions:
REMARK  status: ('A' for Active; 'I' for Inactive)
REMARK    1  A    between atoms: S_8  and  C_1 
REMARK       I    between atoms: N_4  and  C_5 
REMARK    2  A    between atoms: C_5  and  C_9 
REMARK    3  A    between atoms: C_9  and  S_8 
ROOT
ATOM      1  S   UNL d   1      32.644  21.356 -21.450  0.00  0.00    -0.056 SA
ENDROOT
BRANCH   1   2
ATOM      2  C   UNL d   1      32.575  21.881 -20.830  0.00  0.00     0.141 A 
ATOM      3  N   UNL d   1      31.912  22.326 -20.638  0.00  0.00    -0.232 NA
ATOM      4  C   UNL d   1      32.083  22.779 -19.977  0.00  0.00     0.088 A 
ATOM      5  C   UNL d   1      31.632  23.319 -19.551  0.00  0.00     0.020 A 
ATOM      6  C   UNL d   1      32.873  22.614 -19.749  0.00  0.00     0.049 A 
ATOM      7  C   UNL d   1      31.977  23.699 -18.885  0.00  0.00     0.002 A 
ATOM      8  C   UNL d   1      32.734  23.541 -18.666  0.00  0.00     0.001 A 
ATOM      9  C   UNL d   1      33.197  22.992 -19.099  0.00  0.00     0.008 A 
ATOM     10  S   UNL d   1      33.162  22.065 -20.277  0.00  0.00    -0.060 SA
ENDBRANCH   1   2
BRANCH   1  11
ATOM     11  C   UNL d   1      33.064  21.564 -22.126  0.00  0.00     0.098 C 
BRANCH  11  12
ATOM     12  C   UNL d   1      33.111  21.048 -22.786  0.00  0.00     0.271 C 
ATOM     13  N   UNL d   1      33.154  21.353 -23.570  0.00  0.00    -0.272 N 
ATOM     14  C   UNL d   1      33.199  20.839 -24.204  0.00  0.00     0.083 A 
ATOM     15  C   UNL d   1      33.150  22.159 -23.683  0.00  0.00     0.083 A 
ATOM     16  C   UNL d   1      33.241  21.126 -24.959  0.00  0.00     0.019 A 
ATOM     17  C   UNL d   1      33.237  21.961 -25.081  0.00  0.00     0.003 A 
ATOM     18  C   UNL d   1      33.193  22.461 -24.464  0.00  0.00     0.019 A 
ATOM     19  O   UNL d   1      33.112  20.234 -22.641  0.00  0.00    -0.266 OA
ENDBRANCH  11  12
ENDBRANCH   1  11
TORSDOF 3
ENDMDL
