MODEL 1
REMARK VINA RESULT:      -6.4      0.000      0.000
REMARK  3 active torsions:
REMARK  status: ('A' for Active; 'I' for Inactive)
REMARK    1  A    between atoms: C_7  and  C_3 
REMARK       I    between atoms: N_10  and  C_7 
REMARK    2  A    between atoms: C_19  and  C_9 
REMARK    3  A    between atoms: C_12  and  N_10 
ROOT
ATOM      1  C   UNL d   1     -41.870-123.056 -50.549  0.00  0.00     0.059 A 
ATOM      2  C   UNL d   1     -41.498-123.787 -50.463  0.00  0.00     0.013 A 
ATOM      3  C   UNL d   1     -41.495-123.026 -51.924  0.00  0.00     0.088 A 
ATOM      4  S   UNL d   1     -41.870-122.675 -51.277  0.00  0.00    -0.075 SA
ATOM      5  S   UNL d   1     -42.247-122.702 -49.904  0.00  0.00    -0.080 SA
ATOM      6  C   UNL d   1     -41.123-123.757 -51.838  0.00  0.00     0.012 A 
ATOM      7  C   UNL d   1     -41.871-123.817 -49.094  0.00  0.00     0.007 A 
ATOM      8  C   UNL d   1     -42.244-123.086 -49.180  0.00  0.00     0.030 A 
ENDROOT
BRANCH   3   9
ATOM      9  C   UNL d   1     -41.495-122.646 -52.652  0.00  0.00     0.285 C 
ATOM     10  N   UNL d   1     -41.866-122.999 -53.304  0.00  0.00    -0.208 NA
ATOM     11  O   UNL d   1     -41.131-121.920 -52.735  0.00  0.00    -0.265 OA
BRANCH  10  12
ATOM     12  C   UNL d   1     -41.867-122.618 -54.035  0.00  0.00     0.085 A 
ATOM     13  C   UNL d   1     -42.504-122.154 -54.245  0.00  0.00     0.021 A 
ATOM     14  C   UNL d   1     -42.516-121.770 -54.971  0.00  0.00     0.031 A 
ATOM     15  C   UNL d   1     -41.877-121.858 -55.488  0.00  0.00     0.140 A 
ATOM     16  C   UNL d   1     -41.236-122.330 -55.269  0.00  0.00     0.031 A 
ATOM     17  F   UNL d   1     -41.877-121.477 -56.221  0.00  0.00    -0.204 F 
ATOM     18  C   UNL d   1     -41.231-122.712 -54.540  0.00  0.00     0.021 A 
ENDBRANCH  10  12
ENDBRANCH   3   9
BRANCH   8  19
ATOM     19  C   UNL d   1     -42.616-122.743 -48.529  0.00  0.00     0.006 C 
ATOM     20  C   UNL d   1     -42.611-123.121 -47.799  0.00  0.00     0.001 C 
ENDBRANCH   8  19
TORSDOF 3
ENDMDL
MODEL 2
REMARK VINA RESULT:      -5.8      2.273      5.090
REMARK  3 active torsions:
REMARK  status: ('A' for Active; 'I' for Inactive)
REMARK    1  A    between atoms: C_7  and  C_3 
REMARK       I    between atoms: N_10  and  C_7 
REMARK    2  A    between atoms: C_19  and  C_9 
REMARK    3  A    between atoms: C_12  and  N_10 
ROOT
ATOM      1  C   UNL d   1     -41.623-122.688 -53.368  0.00  0.00     0.059 A 
ATOM      2  C   UNL d   1     -41.298-123.400 -53.628  0.00  0.00     0.013 A 
ATOM      3  C   UNL d   1     -41.447-123.102 -52.016  0.00  0.00     0.088 A 
ATOM      4  S   UNL d   1     -41.698-122.538 -52.564  0.00  0.00    -0.075 SA
ATOM      5  S   UNL d   1     -41.875-122.120 -53.914  0.00  0.00    -0.080 SA
ATOM      6  C   UNL d   1     -41.123-123.815 -52.276  0.00  0.00     0.012 A 
ATOM      7  C   UNL d   1     -41.474-122.987 -54.976  0.00  0.00     0.007 A 
ATOM      8  C   UNL d   1     -41.798-122.275 -54.715  0.00  0.00     0.030 A 
ENDROOT
BRANCH   3   9
ATOM      9  C   UNL d   1     -41.522-122.952 -51.212  0.00  0.00     0.285 C 
ATOM     10  N   UNL d   1     -41.993-123.446 -50.741  0.00  0.00    -0.208 NA
ATOM     11  O   UNL d   1     -41.134-122.318 -50.875  0.00  0.00    -0.265 OA
BRANCH  10  12
ATOM     12  C   UNL d   1     -42.069-123.297 -49.933  0.00  0.00     0.085 A 
ATOM     13  C   UNL d   1     -41.520-123.606 -49.415  0.00  0.00     0.021 A 
ATOM     14  C   UNL d   1     -41.586-123.464 -48.608  0.00  0.00     0.031 A 
ATOM     15  C   UNL d   1     -42.213-123.005 -48.326  0.00  0.00     0.140 A 
ATOM     16  C   UNL d   1     -42.764-122.696 -48.857  0.00  0.00     0.031 A 
ATOM     17  F   UNL d   1     -42.290-122.856 -47.517  0.00  0.00    -0.204 F 
ATOM     18  C   UNL d   1     -42.692-122.842 -49.664  0.00  0.00     0.021 A 
ENDBRANCH  10  12
ENDBRANCH   3   9
BRANCH   8  19
ATOM     19  C   UNL d   1     -42.046-121.717 -55.269  0.00  0.00     0.006 C 
ATOM     20  C   UNL d   1     -42.522-121.940 -55.901  0.00  0.00     0.001 C 
ENDBRANCH   8  19
TORSDOF 3
ENDMDL
