MODEL 1
REMARK VINA RESULT:     -10.3      0.000      0.000
REMARK  3 active torsions:
REMARK  status: ('A' for Active; 'I' for Inactive)
REMARK    1  A    between atoms: C_7  and  N_1 
REMARK    2  A    between atoms: C_13  and  C_7 
REMARK    3  A    between atoms: O_18  and  C_10 
ROOT
ATOM      1  N   UNL d   1      53.784  32.715  53.486  0.00  0.00    -0.226 N 
ATOM      2  C   UNL d   1      54.292  32.790  54.084  0.00  0.00     0.343 A 
ATOM      3  N   UNL d   1      54.135  33.526  54.575  0.00  0.00    -0.241 N 
ATOM      4  C   UNL d   1      53.256  33.254  53.415  0.00  0.00     0.273 A 
ATOM      5  C   UNL d   1      53.568  33.939  54.351  0.00  0.00     0.158 A 
ATOM      6  C   UNL d   1      53.050  33.830  53.713  0.00  0.00     0.113 A 
ATOM      7  N   UNL d   1      53.483  34.596  54.846  0.00  0.00    -0.226 NA
ATOM      8  O   UNL d   1      54.727  32.526  54.303  0.00  0.00    -0.245 OA
ATOM      9  C   UNL d   1      52.447  34.378  53.571  0.00  0.00     0.103 A 
ATOM     10  O   UNL d   1      52.940  33.157  52.998  0.00  0.00    -0.266 OA
ATOM     11  C   UNL d   1      54.578  33.678  55.174  0.00  0.00     0.105 C 
ATOM     12  C   UNL d   1      52.880  35.143  54.704  0.00  0.00     0.103 A 
ATOM     13  C   UNL d   1      52.362  35.034  54.066  0.00  0.00     0.045 A 
ENDROOT
BRANCH   1  14
ATOM     14  C   UNL d   1      53.829  32.078  52.966  0.00  0.00     0.087 C 
BRANCH  14  15
ATOM     15  C   UNL d   1      53.540  31.340  53.181  0.00  0.00     0.018 A 
ATOM     16  C   UNL d   1      52.774  31.101  52.935  0.00  0.00     0.002 A 
ATOM     17  C   UNL d   1      52.478  30.372  53.142  0.00  0.00     0.011 A 
ATOM     18  C   UNL d   1      52.936  29.871  53.595  0.00  0.00     0.058 A 
ATOM     19  C   UNL d   1      53.694  30.097  53.844  0.00  0.00     0.011 A 
ATOM     20 CL   UNL d   1      52.639  29.131  53.807  0.00  0.00    -0.082 Cl
ATOM     21  C   UNL d   1      53.992  30.821  53.639  0.00  0.00     0.002 A 
ENDBRANCH  14  15
ENDBRANCH   1  14
BRANCH   9  22
ATOM     22  O   UNL d   1      51.885  34.236  52.857  0.00  0.00    -0.328 OA
ATOM     23  C   UNL d   1      51.136  34.582  52.836  0.00  0.00     0.181 C 
ENDBRANCH   9  22
TORSDOF 3
ENDMDL
MODEL 2
REMARK VINA RESULT:     -10.1      0.866      1.985
REMARK  3 active torsions:
REMARK  status: ('A' for Active; 'I' for Inactive)
REMARK    1  A    between atoms: C_7  and  N_1 
REMARK    2  A    between atoms: C_13  and  C_7 
REMARK    3  A    between atoms: O_18  and  C_10 
ROOT
ATOM      1  N   UNL d   1      53.234  32.391  53.160  0.00  0.00    -0.226 N 
ATOM      2  C   UNL d   1      52.511  32.619  52.946  0.00  0.00     0.343 A 
ATOM      3  N   UNL d   1      52.263  33.386  53.343  0.00  0.00    -0.241 N 
ATOM      4  C   UNL d   1      53.601  32.836  53.653  0.00  0.00     0.273 A 
ATOM      5  C   UNL d   1      52.759  33.679  53.799  0.00  0.00     0.158 A 
ATOM      6  C   UNL d   1      53.517  33.412  54.004  0.00  0.00     0.113 A 
ATOM      7  N   UNL d   1      52.464  34.379  54.127  0.00  0.00    -0.226 NA
ATOM      8  O   UNL d   1      52.097  32.452  52.619  0.00  0.00    -0.245 OA
ATOM      9  C   UNL d   1      53.978  33.844  54.537  0.00  0.00     0.103 A 
ATOM     10  O   UNL d   1      54.083  32.638  53.764  0.00  0.00    -0.266 OA
ATOM     11  C   UNL d   1      51.577  33.679  53.193  0.00  0.00     0.105 C 
ATOM     12  C   UNL d   1      52.926  34.810  54.660  0.00  0.00     0.103 A 
ATOM     13  C   UNL d   1      53.683  34.543  54.865  0.00  0.00     0.045 A 
ENDROOT
BRANCH   1  14
ATOM     14  C   UNL d   1      53.571  31.702  52.861  0.00  0.00     0.087 C 
BRANCH  14  15
ATOM     15  C   UNL d   1      53.384  30.970  53.182  0.00  0.00     0.018 A 
ATOM     16  C   UNL d   1      53.847  30.656  53.808  0.00  0.00     0.002 A 
ATOM     17  C   UNL d   1      53.671  29.932  54.134  0.00  0.00     0.011 A 
ATOM     18  C   UNL d   1      53.035  29.510  53.845  0.00  0.00     0.058 A 
ATOM     19  C   UNL d   1      52.571  29.811  53.227  0.00  0.00     0.011 A 
ATOM     20 CL   UNL d   1      52.853  28.775  54.173  0.00  0.00    -0.082 Cl
ATOM     21  C   UNL d   1      52.744  30.531  52.901  0.00  0.00     0.002 A 
ENDBRANCH  14  15
ENDBRANCH   1  14
BRANCH   9  22
ATOM     22  O   UNL d   1      54.816  33.528  54.750  0.00  0.00    -0.328 OA
ATOM     23  C   UNL d   1      55.274  33.902  55.326  0.00  0.00     0.181 C 
ENDBRANCH   9  22
TORSDOF 3
ENDMDL
MODEL 3
REMARK VINA RESULT:      -9.1      1.889      3.513
REMARK  3 active torsions:
REMARK  status: ('A' for Active; 'I' for Inactive)
REMARK    1  A    between atoms: C_7  and  N_1 
REMARK    2  A    between atoms: C_13  and  C_7 
REMARK    3  A    between atoms: O_18  and  C_10 
ROOT
ATOM      1  N   UNL d   1      52.683  33.467  52.944  0.00  0.00    -0.226 N 
ATOM      2  C   UNL d   1      52.548  32.721  52.732  0.00  0.00     0.343 A 
ATOM      3  N   UNL d   1      52.947  32.132  53.282  0.00  0.00    -0.241 N 
ATOM      4  C   UNL d   1      53.114  33.577  53.558  0.00  0.00     0.273 A 
ATOM      5  C   UNL d   1      53.331  32.428  53.835  0.00  0.00     0.158 A 
ATOM      6  C   UNL d   1      53.454  33.225  54.031  0.00  0.00     0.113 A 
ATOM      7  N   UNL d   1      53.668  31.831  54.297  0.00  0.00    -0.226 NA
ATOM      8  O   UNL d   1      52.278  32.436  52.341  0.00  0.00    -0.245 OA
ATOM      9  C   UNL d   1      53.914  33.423  54.689  0.00  0.00     0.103 A 
ATOM     10  O   UNL d   1      53.175  34.096  53.658  0.00  0.00    -0.266 OA
ATOM     11  C   UNL d   1      52.868  31.387  53.151  0.00  0.00     0.105 C 
ATOM     12  C   UNL d   1      54.127  32.030  54.955  0.00  0.00     0.103 A 
ATOM     13  C   UNL d   1      54.250  32.826  55.151  0.00  0.00     0.045 A 
ENDROOT
BRANCH   1  14
ATOM     14  C   UNL d   1      52.369  34.096  52.515  0.00  0.00     0.087 C 
BRANCH  14  15
ATOM     15  C   UNL d   1      51.561  34.240  52.512  0.00  0.00     0.018 A 
ATOM     16  C   UNL d   1      51.114  34.112  51.814  0.00  0.00     0.002 A 
ATOM     17  C   UNL d   1      50.312  34.251  51.800  0.00  0.00     0.011 A 
ATOM     18  C   UNL d   1      49.944  34.518  52.477  0.00  0.00     0.058 A 
ATOM     19  C   UNL d   1      50.376  34.648  53.173  0.00  0.00     0.011 A 
ATOM     20 CL   UNL d   1      49.131  34.660  52.468  0.00  0.00    -0.082 Cl
ATOM     21  C   UNL d   1      51.173  34.511  53.190  0.00  0.00     0.002 A 
ENDBRANCH  14  15
ENDBRANCH   1  14
BRANCH   9  22
ATOM     22  O   UNL d   1      54.036  34.313  54.887  0.00  0.00    -0.328 OA
ATOM     23  C   UNL d   1      54.607  34.548  55.434  0.00  0.00     0.181 C 
ENDBRANCH   9  22
TORSDOF 3
ENDMDL
MODEL 4
REMARK VINA RESULT:      -8.8      1.650      3.374
REMARK  3 active torsions:
REMARK  status: ('A' for Active; 'I' for Inactive)
REMARK    1  A    between atoms: C_7  and  N_1 
REMARK    2  A    between atoms: C_13  and  C_7 
REMARK    3  A    between atoms: O_18  and  C_10 
ROOT
ATOM      1  N   UNL d   1      52.824  34.206  53.302  0.00  0.00    -0.226 N 
ATOM      2  C   UNL d   1      52.957  34.723  53.880  0.00  0.00     0.343 A 
ATOM      3  N   UNL d   1      53.369  34.349  54.585  0.00  0.00    -0.241 N 
ATOM      4  C   UNL d   1      53.054  33.493  53.419  0.00  0.00     0.273 A 
ATOM      5  C   UNL d   1      53.518  33.632  54.518  0.00  0.00     0.158 A 
ATOM      6  C   UNL d   1      53.363  33.113  53.891  0.00  0.00     0.113 A 
ATOM      7  N   UNL d   1      53.895  33.356  55.201  0.00  0.00    -0.226 NA
ATOM      8  O   UNL d   1      52.874  35.260  53.993  0.00  0.00    -0.245 OA
ATOM      9  C   UNL d   1      53.586  32.318  53.947  0.00  0.00     0.103 A 
ATOM     10  O   UNL d   1      52.941  33.185  53.001  0.00  0.00    -0.266 OA
ATOM     11  C   UNL d   1      53.537  34.778  55.190  0.00  0.00     0.105 C 
ATOM     12  C   UNL d   1      54.118  32.563  55.256  0.00  0.00     0.103 A 
ATOM     13  C   UNL d   1      53.963  32.043  54.629  0.00  0.00     0.045 A 
ENDROOT
BRANCH   1  14
ATOM     14  C   UNL d   1      52.451  34.433  52.603  0.00  0.00     0.087 C 
BRANCH  14  15
ATOM     15  C   UNL d   1      51.632  34.424  52.543  0.00  0.00     0.018 A 
ATOM     16  C   UNL d   1      51.264  34.104  51.860  0.00  0.00     0.002 A 
ATOM     17  C   UNL d   1      50.454  34.090  51.790  0.00  0.00     0.011 A 
ATOM     18  C   UNL d   1      49.997  34.393  52.395  0.00  0.00     0.058 A 
ATOM     19  C   UNL d   1      50.350  34.711  53.075  0.00  0.00     0.011 A 
ATOM     20 CL   UNL d   1      49.176  34.381  52.328  0.00  0.00    -0.082 Cl
ATOM     21  C   UNL d   1      51.156  34.726  53.147  0.00  0.00     0.002 A 
ENDBRANCH  14  15
ENDBRANCH   1  14
BRANCH   9  22
ATOM     22  O   UNL d   1      53.404  31.760  53.238  0.00  0.00    -0.328 OA
ATOM     23  C   UNL d   1      53.488  30.943  53.313  0.00  0.00     0.181 C 
ENDBRANCH   9  22
TORSDOF 3
ENDMDL
