MODEL 1
REMARK VINA RESULT:      -8.9      0.000      0.000
REMARK  5 active torsions:
REMARK  status: ('A' for Active; 'I' for Inactive)
REMARK    1  A    between atoms: C_7  and  N_1 
REMARK    2  A    between atoms: C_12  and  C_3 
REMARK    3  A    between atoms: C_8  and  S_15 
REMARK    4  A    between atoms: C_16  and  C_12 
REMARK    5  A    between atoms: S_15  and  C_16 
ROOT
ATOM      1  N   UNL d   1      52.639  33.382  53.609  0.00  0.00    -0.304 N 
ATOM      2  C   UNL d   1      52.277  34.111  53.487  0.00  0.00     0.067 A 
ATOM      3  C   UNL d   1      51.535  33.976  53.151  0.00  0.00     0.057 A 
ATOM      4  C   UNL d   1      52.129  32.798  53.352  0.00  0.00     0.064 A 
ATOM      5  C   UNL d   1      51.444  33.154  53.067  0.00  0.00     0.022 A 
ATOM      6  C   UNL d   1      52.606  34.843  53.672  0.00  0.00     0.019 C 
ATOM      7  C   UNL d   1      51.874  32.030  53.197  0.00  0.00     0.019 C 
ENDROOT
BRANCH   3   8
ATOM      8  C   UNL d   1      50.791  34.185  52.832  0.00  0.00     0.204 C 
ATOM      9  O   UNL d   1      50.684  34.199  52.005  0.00  0.00    -0.286 OA
BRANCH   8  10
ATOM     10  C   UNL d   1      50.007  34.414  52.947  0.00  0.00     0.080 C 
BRANCH  10  11
ATOM     11  S   UNL d   1      49.643  34.925  52.406  0.00  0.00    -0.043 SA
BRANCH  11  12
ATOM     12  C   UNL d   1      48.956  35.329  52.613  0.00  0.00     0.233 A 
ATOM     13  N   UNL d   1      48.303  35.452  52.125  0.00  0.00    -0.029 NA
ATOM     14  C   UNL d   1      47.747  35.879  52.554  0.00  0.00     0.788 A 
ATOM     15  N   UNL d   1      47.007  36.126  52.282  0.00  0.00     0.064 N 
ATOM     16  N   UNL d   1      48.059  36.018  53.303  0.00  0.00     0.050 NA
ATOM     17  N   UNL d   1      48.815  35.676  53.346  0.00  0.00    -0.105 NA
ENDBRANCH  11  12
ENDBRANCH  10  11
ENDBRANCH   8  10
ENDBRANCH   3   8
BRANCH   1  18
ATOM     18  C   UNL d   1      53.392  33.261  53.936  0.00  0.00     0.094 A 
ATOM     19  C   UNL d   1      53.471  33.247  54.725  0.00  0.00     0.050 A 
ATOM     20  C   UNL d   1      54.231  33.126  55.049  0.00  0.00     0.142 A 
ATOM     21  F   UNL d   1      54.327  33.109  55.875  0.00  0.00    -0.204 F 
ATOM     22  C   UNL d   1      54.880  33.023  54.556  0.00  0.00     0.032 A 
ATOM     23  C   UNL d   1      54.790  33.038  53.745  0.00  0.00     0.034 A 
ATOM     24  C   UNL d   1      54.037  33.159  53.426  0.00  0.00     0.156 A 
ATOM     25  F   UNL d   1      54.354  33.109  52.650  0.00  0.00    -0.203 F 
ENDBRANCH   1  18
TORSDOF 5
ENDMDL
MODEL 2
REMARK VINA RESULT:      -8.7      0.395      1.037
REMARK  5 active torsions:
REMARK  status: ('A' for Active; 'I' for Inactive)
REMARK    1  A    between atoms: C_7  and  N_1 
REMARK    2  A    between atoms: C_12  and  C_3 
REMARK    3  A    between atoms: C_8  and  S_15 
REMARK    4  A    between atoms: C_16  and  C_12 
REMARK    5  A    between atoms: S_15  and  C_16 
ROOT
ATOM      1  N   UNL d   1      52.671  33.730  53.613  0.00  0.00    -0.304 N 
ATOM      2  C   UNL d   1      51.978  33.397  53.318  0.00  0.00     0.067 A 
ATOM      3  C   UNL d   1      51.473  34.011  53.093  0.00  0.00     0.057 A 
ATOM      4  C   UNL d   1      52.600  34.542  53.573  0.00  0.00     0.064 A 
ATOM      5  C   UNL d   1      51.864  34.727  53.254  0.00  0.00     0.022 A 
ATOM      6  C   UNL d   1      51.824  32.589  53.260  0.00  0.00     0.019 C 
ATOM      7  C   UNL d   1      52.831  35.328  53.664  0.00  0.00     0.019 C 
ENDROOT
BRANCH   3   8
ATOM      8  C   UNL d   1      50.775  34.353  52.788  0.00  0.00     0.204 C 
ATOM      9  O   UNL d   1      50.572  34.237  51.988  0.00  0.00    -0.286 OA
BRANCH   8  10
ATOM     10  C   UNL d   1      50.096  34.808  52.904  0.00  0.00     0.080 C 
BRANCH  10  11
ATOM     11  S   UNL d   1      49.438  34.699  52.412  0.00  0.00    -0.043 SA
BRANCH  11  12
ATOM     12  C   UNL d   1      48.775  35.182  52.492  0.00  0.00     0.233 A 
ATOM     13  N   UNL d   1      48.228  35.351  51.900  0.00  0.00    -0.029 NA
ATOM     14  C   UNL d   1      47.660  35.853  52.219  0.00  0.00     0.788 A 
ATOM     15  N   UNL d   1      47.006  36.163  51.822  0.00  0.00     0.064 N 
ATOM     16  N   UNL d   1      47.861  35.992  53.005  0.00  0.00     0.050 NA
ATOM     17  N   UNL d   1      48.557  35.575  53.182  0.00  0.00    -0.105 NA
ENDBRANCH  11  12
ENDBRANCH  10  11
ENDBRANCH   8  10
ENDBRANCH   3   8
BRANCH   1  18
ATOM     18  C   UNL d   1      53.327  33.312  53.901  0.00  0.00     0.094 A 
ATOM     19  C   UNL d   1      53.364  33.137  54.673  0.00  0.00     0.050 A 
ATOM     20  C   UNL d   1      54.027  32.716  54.958  0.00  0.00     0.142 A 
ATOM     21  F   UNL d   1      54.077  32.527  55.765  0.00  0.00    -0.204 F 
ATOM     22  C   UNL d   1      54.626  32.490  54.443  0.00  0.00     0.032 A 
ATOM     23  C   UNL d   1      54.580  32.674  53.648  0.00  0.00     0.034 A 
ATOM     24  C   UNL d   1      53.923  33.091  53.369  0.00  0.00     0.156 A 
ATOM     25  F   UNL d   1      54.239  33.073  52.592  0.00  0.00    -0.203 F 
ENDBRANCH   1  18
TORSDOF 5
ENDMDL
MODEL 3
REMARK VINA RESULT:      -8.3      2.927      4.924
REMARK  5 active torsions:
REMARK  status: ('A' for Active; 'I' for Inactive)
REMARK    1  A    between atoms: C_7  and  N_1 
REMARK    2  A    between atoms: C_12  and  C_3 
REMARK    3  A    between atoms: C_8  and  S_15 
REMARK    4  A    between atoms: C_16  and  C_12 
REMARK    5  A    between atoms: S_15  and  C_16 
ROOT
ATOM      1  N   UNL d   1      52.688  33.555  53.678  0.00  0.00    -0.304 N 
ATOM      2  C   UNL d   1      53.239  32.953  53.570  0.00  0.00     0.067 A 
ATOM      3  C   UNL d   1      52.843  32.296  53.262  0.00  0.00     0.057 A 
ATOM      4  C   UNL d   1      51.957  33.278  53.441  0.00  0.00     0.064 A 
ATOM      5  C   UNL d   1      52.042  32.501  53.182  0.00  0.00     0.022 A 
ATOM      6  C   UNL d   1      54.043  33.006  53.742  0.00  0.00     0.019 C 
ATOM      7  C   UNL d   1      51.146  33.307  53.297  0.00  0.00     0.019 C 
ENDROOT
BRANCH   3   8
ATOM      8  C   UNL d   1      52.769  31.516  52.972  0.00  0.00     0.204 C 
ATOM      9  O   UNL d   1      52.849  31.368  52.156  0.00  0.00    -0.286 OA
BRANCH   8  10
ATOM     10  C   UNL d   1      52.639  30.714  53.115  0.00  0.00     0.080 C 
BRANCH  10  11
ATOM     11  S   UNL d   1      53.283  30.208  53.241  0.00  0.00    -0.043 SA
BRANCH  11  12
ATOM     12  C   UNL d   1      53.212  29.565  53.751  0.00  0.00     0.233 A 
ATOM     13  N   UNL d   1      53.520  29.517  54.514  0.00  0.00    -0.029 NA
ATOM     14  C   UNL d   1      53.319  28.781  54.820  0.00  0.00     0.788 A 
ATOM     15  N   UNL d   1      53.514  28.496  55.570  0.00  0.00     0.064 N 
ATOM     16  N   UNL d   1      52.888  28.378  54.245  0.00  0.00     0.050 NA
ATOM     17  N   UNL d   1      52.818  28.863  53.574  0.00  0.00    -0.105 NA
ENDBRANCH  11  12
ENDBRANCH  10  11
ENDBRANCH   8  10
ENDBRANCH   3   8
BRANCH   1  18
ATOM     18  C   UNL d   1      52.848  34.313  53.976  0.00  0.00     0.094 A 
ATOM     19  C   UNL d   1      52.887  34.417  54.761  0.00  0.00     0.050 A 
ATOM     20  C   UNL d   1      53.048  35.182  55.056  0.00  0.00     0.142 A 
ATOM     21  F   UNL d   1      53.092  35.305  55.877  0.00  0.00    -0.204 F 
ATOM     22  C   UNL d   1      53.163  35.810  54.538  0.00  0.00     0.032 A 
ATOM     23  C   UNL d   1      53.120  35.694  53.731  0.00  0.00     0.034 A 
ATOM     24  C   UNL d   1      52.961  34.936  53.442  0.00  0.00     0.156 A 
ATOM     25  F   UNL d   1      53.001  35.226  52.655  0.00  0.00    -0.203 F 
ENDBRANCH   1  18
TORSDOF 5
ENDMDL
MODEL 4
REMARK VINA RESULT:      -6.9      2.783      5.321
REMARK  5 active torsions:
REMARK  status: ('A' for Active; 'I' for Inactive)
REMARK    1  A    between atoms: C_7  and  N_1 
REMARK    2  A    between atoms: C_12  and  C_3 
REMARK    3  A    between atoms: C_8  and  S_15 
REMARK    4  A    between atoms: C_16  and  C_12 
REMARK    5  A    between atoms: S_15  and  C_16 
ROOT
ATOM      1  N   UNL d   1      51.440  33.796  52.883  0.00  0.00    -0.304 N 
ATOM      2  C   UNL d   1      51.503  32.983  52.995  0.00  0.00     0.067 A 
ATOM      3  C   UNL d   1      52.292  32.809  53.168  0.00  0.00     0.057 A 
ATOM      4  C   UNL d   1      52.179  34.126  52.985  0.00  0.00     0.064 A 
ATOM      5  C   UNL d   1      52.713  33.525  53.162  0.00  0.00     0.022 A 
ATOM      6  C   UNL d   1      50.882  32.445  52.942  0.00  0.00     0.019 C 
ATOM      7  C   UNL d   1      52.743  34.727  53.020  0.00  0.00     0.019 C 
ENDROOT
BRANCH   3   8
ATOM      8  C   UNL d   1      52.942  32.319  53.353  0.00  0.00     0.204 C 
ATOM      9  O   UNL d   1      53.707  32.532  53.099  0.00  0.00    -0.286 OA
BRANCH   8  10
ATOM     10  C   UNL d   1      53.242  31.638  53.712  0.00  0.00     0.080 C 
BRANCH  10  11
ATOM     11  S   UNL d   1      53.369  30.957  53.259  0.00  0.00    -0.043 SA
BRANCH  11  12
ATOM     12  C   UNL d   1      53.262  30.210  53.592  0.00  0.00     0.233 A 
ATOM     13  N   UNL d   1      53.537  29.968  54.330  0.00  0.00    -0.029 NA
ATOM     14  C   UNL d   1      53.307  29.186  54.438  0.00  0.00     0.788 A 
ATOM     15  N   UNL d   1      53.464  28.721  55.102  0.00  0.00     0.064 N 
ATOM     16  N   UNL d   1      52.893  28.950  53.767  0.00  0.00     0.050 NA
ATOM     17  N   UNL d   1      52.862  29.586  53.234  0.00  0.00    -0.105 NA
ENDBRANCH  11  12
ENDBRANCH  10  11
ENDBRANCH   8  10
ENDBRANCH   3   8
BRANCH   1  18
ATOM     18  C   UNL d   1      50.743  34.209  52.699  0.00  0.00     0.094 A 
ATOM     19  C   UNL d   1      50.288  34.479  53.289  0.00  0.00     0.050 A 
ATOM     20  C   UNL d   1      49.589  34.894  53.098  0.00  0.00     0.142 A 
ATOM     21  F   UNL d   1      49.103  35.183  53.707  0.00  0.00    -0.204 F 
ATOM     22  C   UNL d   1      49.382  35.017  52.312  0.00  0.00     0.032 A 
ATOM     23  C   UNL d   1      49.857  34.736  51.711  0.00  0.00     0.034 A 
ATOM     24  C   UNL d   1      50.548  34.325  51.902  0.00  0.00     0.156 A 
ATOM     25  F   UNL d   1      50.718  34.225  51.086  0.00  0.00    -0.203 F 
ENDBRANCH   1  18
TORSDOF 5
ENDMDL
