MODEL 1
REMARK VINA RESULT:      -9.3      0.000      0.000
REMARK  7 active torsions:
REMARK  status: ('A' for Active; 'I' for Inactive)
REMARK    1  A    between atoms: C_11  and  N_3 
REMARK    2  A    between atoms: C_10  and  C_4 
REMARK    3  A    between atoms: C_16  and  C_11 
REMARK    4  A    between atoms: N_13  and  C_17 
REMARK    5  A    between atoms: C_18  and  N_14 
REMARK    6  A    between atoms: C_17  and  C_16 
REMARK    7  A    between atoms: C_27  and  C_18 
ROOT
ATOM      1  C   UNL d   1      52.873  33.011  53.612  0.00  0.00     0.137 A 
ATOM      2  N   UNL d   1      53.427  33.238  54.193  0.00  0.00    -0.259 N 
ATOM      3  N   UNL d   1      52.446  33.686  53.407  0.00  0.00    -0.287 N 
ATOM      4  C   UNL d   1      52.841  32.232  53.358  0.00  0.00     0.054 A 
ATOM      5  C   UNL d   1      53.942  32.674  54.512  0.00  0.00     0.266 A 
ATOM      6  C   UNL d   1      53.336  34.045  54.340  0.00  0.00     0.084 A 
ATOM      7  C   UNL d   1      52.721  34.326  53.847  0.00  0.00     0.082 A 
ATOM      8  C   UNL d   1      53.353  31.668  53.674  0.00  0.00     0.009 A 
ATOM      9  C   UNL d   1      53.908  31.883  54.253  0.00  0.00     0.061 A 
ATOM     10  O   UNL d   1      54.495  32.893  55.090  0.00  0.00    -0.267 OA
ATOM     11  C   UNL d   1      53.719  34.567  54.846  0.00  0.00     0.019 A 
ATOM     12  C   UNL d   1      53.320  30.882  53.418  0.00  0.00     0.000 C 
ATOM     13  C   UNL d   1      52.515  35.116  53.881  0.00  0.00     0.019 A 
ATOM     14  C   UNL d   1      53.499  35.355  54.867  0.00  0.00     0.002 A 
ATOM     15  C   UNL d   1      52.891  35.632  54.380  0.00  0.00     0.002 A 
ENDROOT
BRANCH   3  16
ATOM     16  C   UNL d   1      51.842  33.970  52.926  0.00  0.00     0.125 C 
BRANCH  16  17
ATOM     17  C   UNL d   1      51.055  33.818  53.122  0.00  0.00     0.231 C 
ATOM     18  O   UNL d   1      50.845  33.649  53.899  0.00  0.00    -0.283 OA
BRANCH  17  19
ATOM     19  C   UNL d   1      50.477  33.834  52.536  0.00  0.00     0.124 C 
BRANCH  19  20
ATOM     20  N   UNL d   1      49.894  34.418  52.556  0.00  0.00    -0.297 N 
ATOM     21  C   UNL d   1      49.625  34.428  51.773  0.00  0.00     0.100 A 
ATOM     22  C   UNL d   1      49.023  34.955  51.556  0.00  0.00     0.100 A 
ATOM     23  N   UNL d   1      48.683  35.473  52.109  0.00  0.00    -0.300 N 
ATOM     24  C   UNL d   1      48.960  35.458  52.901  0.00  0.00     0.100 A 
ATOM     25  C   UNL d   1      49.562  34.932  53.119  0.00  0.00     0.100 A 
BRANCH  23  26
ATOM     26  C   UNL d   1      48.084  35.993  51.881  0.00  0.00     0.080 C 
BRANCH  26  27
ATOM     27  C   UNL d   1      47.300  35.841  52.101  0.00  0.00     0.018 A 
ATOM     28  C   UNL d   1      46.795  35.468  51.565  0.00  0.00     0.002 A 
ATOM     29  C   UNL d   1      46.002  35.313  51.785  0.00  0.00     0.000 A 
ATOM     30  C   UNL d   1      45.732  35.533  52.530  0.00  0.00     0.000 A 
ATOM     31  C   UNL d   1      46.248  35.909  53.066  0.00  0.00     0.000 A 
ATOM     32  C   UNL d   1      47.032  36.061  52.846  0.00  0.00     0.002 A 
ENDBRANCH  26  27
ENDBRANCH  23  26
ENDBRANCH  19  20
ENDBRANCH  17  19
ENDBRANCH  16  17
ENDBRANCH   3  16
BRANCH   4  33
ATOM     33  C   UNL d   1      52.297  32.008  52.787  0.00  0.00     0.125 C 
ATOM     34  N   UNL d   1      52.283  31.242  52.487  0.00  0.00    -0.146 N 
ENDBRANCH   4  33
TORSDOF 7
ENDMDL
MODEL 2
REMARK VINA RESULT:      -9.1      0.524      2.154
REMARK  7 active torsions:
REMARK  status: ('A' for Active; 'I' for Inactive)
REMARK    1  A    between atoms: C_11  and  N_3 
REMARK    2  A    between atoms: C_10  and  C_4 
REMARK    3  A    between atoms: C_16  and  C_11 
REMARK    4  A    between atoms: N_13  and  C_17 
REMARK    5  A    between atoms: C_18  and  N_14 
REMARK    6  A    between atoms: C_17  and  C_16 
REMARK    7  A    between atoms: C_27  and  C_18 
ROOT
ATOM      1  C   UNL d   1      52.950  33.595  53.916  0.00  0.00     0.137 A 
ATOM      2  N   UNL d   1      53.383  32.925  54.163  0.00  0.00    -0.259 N 
ATOM      3  N   UNL d   1      52.438  33.346  53.320  0.00  0.00    -0.287 N 
ATOM      4  C   UNL d   1      53.086  34.323  54.268  0.00  0.00     0.054 A 
ATOM      5  C   UNL d   1      53.948  33.000  54.763  0.00  0.00     0.266 A 
ATOM      6  C   UNL d   1      53.135  32.276  53.719  0.00  0.00     0.084 A 
ATOM      7  C   UNL d   1      52.543  32.539  53.190  0.00  0.00     0.082 A 
ATOM      8  C   UNL d   1      53.648  34.400  54.866  0.00  0.00     0.009 A 
ATOM      9  C   UNL d   1      54.085  33.740  55.119  0.00  0.00     0.061 A 
ATOM     10  O   UNL d   1      54.381  32.339  55.012  0.00  0.00    -0.267 OA
ATOM     11  C   UNL d   1      53.357  31.485  53.715  0.00  0.00     0.019 A 
ATOM     12  C   UNL d   1      53.784  35.135  55.221  0.00  0.00     0.000 C 
ATOM     13  C   UNL d   1      52.198  32.002  52.680  0.00  0.00     0.019 A 
ATOM     14  C   UNL d   1      53.002  30.960  53.197  0.00  0.00     0.002 A 
ATOM     15  C   UNL d   1      52.415  31.222  52.674  0.00  0.00     0.002 A 
ENDROOT
BRANCH   3  16
ATOM     16  C   UNL d   1      51.855  33.598  52.797  0.00  0.00     0.125 C 
BRANCH  16  17
ATOM     17  C   UNL d   1      51.070  33.640  53.047  0.00  0.00     0.231 C 
ATOM     18  O   UNL d   1      50.886  33.603  53.848  0.00  0.00    -0.283 OA
BRANCH  17  19
ATOM     19  C   UNL d   1      50.466  33.720  52.493  0.00  0.00     0.124 C 
BRANCH  19  20
ATOM     20  N   UNL d   1      49.924  34.337  52.568  0.00  0.00    -0.297 N 
ATOM     21  C   UNL d   1      49.633  34.414  51.797  0.00  0.00     0.100 A 
ATOM     22  C   UNL d   1      49.060  34.990  51.633  0.00  0.00     0.100 A 
ATOM     23  N   UNL d   1      48.770  35.492  52.229  0.00  0.00    -0.300 N 
ATOM     24  C   UNL d   1      49.068  35.409  53.009  0.00  0.00     0.100 A 
ATOM     25  C   UNL d   1      49.642  34.833  53.173  0.00  0.00     0.100 A 
BRANCH  23  26
ATOM     26  C   UNL d   1      48.199  36.062  52.054  0.00  0.00     0.080 C 
BRANCH  26  27
ATOM     27  C   UNL d   1      47.398  35.897  52.186  0.00  0.00     0.018 A 
ATOM     28  C   UNL d   1      47.064  36.081  52.918  0.00  0.00     0.002 A 
ATOM     29  C   UNL d   1      46.255  35.916  53.056  0.00  0.00     0.000 A 
ATOM     30  C   UNL d   1      45.799  35.573  52.463  0.00  0.00     0.000 A 
ATOM     31  C   UNL d   1      46.143  35.391  51.726  0.00  0.00     0.000 A 
ATOM     32  C   UNL d   1      46.945  35.555  51.593  0.00  0.00     0.002 A 
ENDBRANCH  26  27
ENDBRANCH  23  26
ENDBRANCH  19  20
ENDBRANCH  17  19
ENDBRANCH  16  17
ENDBRANCH   3  16
BRANCH   4  33
ATOM     33  C   UNL d   1      52.661  34.981  54.027  0.00  0.00     0.125 C 
ATOM     34  N   UNL d   1      52.980  35.737  54.076  0.00  0.00    -0.146 N 
ENDBRANCH   4  33
TORSDOF 7
ENDMDL
MODEL 3
REMARK VINA RESULT:      -6.6      1.532      6.185
REMARK  7 active torsions:
REMARK  status: ('A' for Active; 'I' for Inactive)
REMARK    1  A    between atoms: C_11  and  N_3 
REMARK    2  A    between atoms: C_10  and  C_4 
REMARK    3  A    between atoms: C_16  and  C_11 
REMARK    4  A    between atoms: N_13  and  C_17 
REMARK    5  A    between atoms: C_18  and  N_14 
REMARK    6  A    between atoms: C_17  and  C_16 
REMARK    7  A    between atoms: C_27  and  C_18 
ROOT
ATOM      1  C   UNL d   1      47.411  35.761  52.502  0.00  0.00     0.137 A 
ATOM      2  N   UNL d   1      46.776  35.965  53.003  0.00  0.00    -0.259 N 
ATOM      3  N   UNL d   1      48.105  35.895  52.926  0.00  0.00    -0.287 N 
ATOM      4  C   UNL d   1      47.264  35.486  51.744  0.00  0.00     0.054 A 
ATOM      5  C   UNL d   1      45.997  35.889  52.730  0.00  0.00     0.266 A 
ATOM      6  C   UNL d   1      47.082  36.222  53.724  0.00  0.00     0.084 A 
ATOM      7  C   UNL d   1      47.916  36.177  53.676  0.00  0.00     0.082 A 
ATOM      8  C   UNL d   1      46.490  35.409  51.470  0.00  0.00     0.009 A 
ATOM      9  C   UNL d   1      45.850  35.610  51.959  0.00  0.00     0.061 A 
ATOM     10  O   UNL d   1      45.361  36.091  53.222  0.00  0.00    -0.267 OA
ATOM     11  C   UNL d   1      46.730  36.488  54.417  0.00  0.00     0.019 A 
ATOM     12  C   UNL d   1      46.343  35.131  50.704  0.00  0.00     0.000 C 
ATOM     13  C   UNL d   1      48.363  36.402  54.323  0.00  0.00     0.019 A 
ATOM     14  C   UNL d   1      47.193  36.709  55.055  0.00  0.00     0.002 A 
ATOM     15  C   UNL d   1      48.018  36.665  55.007  0.00  0.00     0.002 A 
ENDROOT
BRANCH   3  16
ATOM     16  C   UNL d   1      48.927  35.854  52.887  0.00  0.00     0.125 C 
BRANCH  16  17
ATOM     17  C   UNL d   1      49.305  35.124  52.951  0.00  0.00     0.231 C 
ATOM     18  O   UNL d   1      48.970  34.520  53.398  0.00  0.00    -0.283 OA
BRANCH  17  19
ATOM     19  C   UNL d   1      50.022  34.999  52.567  0.00  0.00     0.124 C 
BRANCH  19  20
ATOM     20  N   UNL d   1      50.516  34.387  52.817  0.00  0.00    -0.297 N 
ATOM     21  C   UNL d   1      51.146  34.436  52.281  0.00  0.00     0.100 A 
ATOM     22  C   UNL d   1      51.777  33.903  52.345  0.00  0.00     0.100 A 
ATOM     23  N   UNL d   1      51.791  33.320  52.937  0.00  0.00    -0.300 N 
ATOM     24  C   UNL d   1      51.150  33.275  53.477  0.00  0.00     0.100 A 
ATOM     25  C   UNL d   1      50.519  33.807  53.413  0.00  0.00     0.100 A 
BRANCH  23  26
ATOM     26  C   UNL d   1      52.426  32.794  52.991  0.00  0.00     0.080 C 
BRANCH  26  27
ATOM     27  C   UNL d   1      53.003  32.903  53.576  0.00  0.00     0.018 A 
ATOM     28  C   UNL d   1      53.479  33.576  53.552  0.00  0.00     0.002 A 
ATOM     29  C   UNL d   1      54.063  33.688  54.141  0.00  0.00     0.000 A 
ATOM     30  C   UNL d   1      54.158  33.129  54.738  0.00  0.00     0.000 A 
ATOM     31  C   UNL d   1      53.673  32.452  54.755  0.00  0.00     0.000 A 
ATOM     32  C   UNL d   1      53.095  32.343  54.170  0.00  0.00     0.002 A 
ENDBRANCH  26  27
ENDBRANCH  23  26
ENDBRANCH  19  20
ENDBRANCH  17  19
ENDBRANCH  16  17
ENDBRANCH   3  16
BRANCH   4  33
ATOM     33  C   UNL d   1      47.888  35.284  51.252  0.00  0.00     0.125 C 
ATOM     34  N   UNL d   1      47.806  34.708  50.672  0.00  0.00    -0.146 N 
ENDBRANCH   4  33
TORSDOF 7
ENDMDL
MODEL 4
REMARK VINA RESULT:      -6.5      1.574      6.403
REMARK  7 active torsions:
REMARK  status: ('A' for Active; 'I' for Inactive)
REMARK    1  A    between atoms: C_11  and  N_3 
REMARK    2  A    between atoms: C_10  and  C_4 
REMARK    3  A    between atoms: C_16  and  C_11 
REMARK    4  A    between atoms: N_13  and  C_17 
REMARK    5  A    between atoms: C_18  and  N_14 
REMARK    6  A    between atoms: C_17  and  C_16 
REMARK    7  A    between atoms: C_27  and  C_18 
ROOT
ATOM      1  C   UNL d   1      47.399  35.973  53.242  0.00  0.00     0.137 A 
ATOM      2  N   UNL d   1      46.682  35.879  52.826  0.00  0.00    -0.259 N 
ATOM      3  N   UNL d   1      48.006  35.749  52.730  0.00  0.00    -0.287 N 
ATOM      4  C   UNL d   1      47.393  36.246  54.015  0.00  0.00     0.054 A 
ATOM      5  C   UNL d   1      45.965  36.062  53.198  0.00  0.00     0.266 A 
ATOM      6  C   UNL d   1      46.853  35.600  52.068  0.00  0.00     0.084 A 
ATOM      7  C   UNL d   1      47.683  35.519  52.008  0.00  0.00     0.082 A 
ATOM      8  C   UNL d   1      46.681  36.429  54.388  0.00  0.00     0.009 A 
ATOM      9  C   UNL d   1      45.961  36.339  53.984  0.00  0.00     0.061 A 
ATOM     10  O   UNL d   1      45.249  35.971  52.791  0.00  0.00    -0.267 OA
ATOM     11  C   UNL d   1      46.380  35.408  51.425  0.00  0.00     0.019 A 
ATOM     12  C   UNL d   1      46.675  36.704  55.168  0.00  0.00     0.000 C 
ATOM     13  C   UNL d   1      48.006  35.249  51.307  0.00  0.00     0.019 A 
ATOM     14  C   UNL d   1      46.719  35.140  50.731  0.00  0.00     0.002 A 
ATOM     15  C   UNL d   1      47.541  35.059  50.672  0.00  0.00     0.002 A 
ENDROOT
BRANCH   3  16
ATOM     16  C   UNL d   1      48.822  35.666  52.663  0.00  0.00     0.125 C 
BRANCH  16  17
ATOM     17  C   UNL d   1      49.186  34.969  52.912  0.00  0.00     0.231 C 
ATOM     18  O   UNL d   1      48.939  34.594  53.602  0.00  0.00    -0.283 OA
BRANCH  17  19
ATOM     19  C   UNL d   1      49.799  34.645  52.468  0.00  0.00     0.124 C 
BRANCH  19  20
ATOM     20  N   UNL d   1      50.551  34.579  52.801  0.00  0.00    -0.297 N 
ATOM     21  C   UNL d   1      50.992  34.250  52.181  0.00  0.00     0.100 A 
ATOM     22  C   UNL d   1      51.797  34.092  52.294  0.00  0.00     0.100 A 
ATOM     23  N   UNL d   1      52.173  34.258  53.017  0.00  0.00    -0.300 N 
ATOM     24  C   UNL d   1      51.721  34.592  53.640  0.00  0.00     0.100 A 
ATOM     25  C   UNL d   1      50.916  34.750  53.528  0.00  0.00     0.100 A 
BRANCH  23  26
ATOM     26  C   UNL d   1      52.976  34.097  53.117  0.00  0.00     0.080 C 
BRANCH  26  27
ATOM     27  C   UNL d   1      53.213  33.395  53.488  0.00  0.00     0.018 A 
ATOM     28  C   UNL d   1      53.110  32.677  53.096  0.00  0.00     0.002 A 
ATOM     29  C   UNL d   1      53.349  31.966  53.468  0.00  0.00     0.000 A 
ATOM     30  C   UNL d   1      53.682  31.988  54.220  0.00  0.00     0.000 A 
ATOM     31  C   UNL d   1      53.783  32.718  54.610  0.00  0.00     0.000 A 
ATOM     32  C   UNL d   1      53.546  33.420  54.239  0.00  0.00     0.002 A 
ENDBRANCH  26  27
ENDBRANCH  23  26
ENDBRANCH  19  20
ENDBRANCH  17  19
ENDBRANCH  16  17
ENDBRANCH   3  16
BRANCH   4  33
ATOM     33  C   UNL d   1      48.098  36.339  54.424  0.00  0.00     0.125 C 
ATOM     34  N   UNL d   1      48.121  36.709  55.157  0.00  0.00    -0.146 N 
ENDBRANCH   4  33
TORSDOF 7
ENDMDL
