MODEL 1
REMARK VINA RESULT:      -7.4      0.000      0.000
REMARK  5 active torsions:
REMARK  status: ('A' for Active; 'I' for Inactive)
REMARK    1  A    between atoms: C_4  and  S_1 
REMARK    2  A    between atoms: N_5  and  S_1 
REMARK    3  A    between atoms: C_2  and  C_9 
REMARK       I    between atoms: N_3  and  C_2 
REMARK    4  A    between atoms: C_8  and  N_3 
REMARK    5  A    between atoms: O_16  and  C_11 
ROOT
ATOM      1  C   UNL d   1     -45.866  11.924  23.187  0.00  0.00     0.104 A 
ATOM      2  C   UNL d   1     -47.082  13.069  23.028  0.00  0.00     0.058 A 
ATOM      3  C   UNL d   1     -45.799  12.528  22.675  0.00  0.00     0.013 A 
ATOM      4  C   UNL d   1     -46.542  11.879  23.632  0.00  0.00     0.013 A 
ATOM      5  C   UNL d   1     -47.158  12.425  23.577  0.00  0.00     0.005 A 
ATOM      6  C   UNL d   1     -46.399  13.095  22.594  0.00  0.00     0.005 A 
ENDROOT
BRANCH   2   7
ATOM      7  C   UNL d   1     -47.696  13.649  22.945  0.00  0.00     0.279 C 
ATOM      8  N   UNL d   1     -48.449  13.457  22.862  0.00  0.00    -0.206 NA
ATOM      9  O   UNL d   1     -47.450  14.465  22.956  0.00  0.00    -0.265 OA
BRANCH   8  10
ATOM     10  C   UNL d   1     -49.025  14.043  22.783  0.00  0.00     0.107 A 
ATOM     11  C   UNL d   1     -49.691  13.888  22.352  0.00  0.00     0.112 A 
ATOM     12  C   UNL d   1     -50.266  14.474  22.274  0.00  0.00     0.026 A 
ATOM     13  C   UNL d   1     -50.175  15.214  22.627  0.00  0.00     0.002 A 
ATOM     14  C   UNL d   1     -49.482  15.363  23.072  0.00  0.00     0.002 A 
ATOM     15  C   UNL d   1     -48.910  14.774  23.147  0.00  0.00     0.021 A 
BRANCH  11  16
ATOM     16  O   UNL d   1     -49.752  13.211  22.040  0.00  0.00    -0.327 OA
ATOM     17  C   UNL d   1     -50.684  13.072  21.792  0.00  0.00     0.181 C 
ENDBRANCH  11  16
ENDBRANCH   8  10
ENDBRANCH   2   7
BRANCH   1  18
ATOM     18  S   UNL d   1     -45.264  11.284  23.325  0.00  0.00     0.271 S 
ATOM     19  O   UNL d   1     -45.808  10.757  23.697  0.00  0.00    -0.200 OA
ATOM     20  O   UNL d   1     -44.749  11.791  22.968  0.00  0.00    -0.200 OA
BRANCH  18  21
ATOM     21  N   UNL d   1     -44.621  10.693  23.429  0.00  0.00    -0.226 N 
ATOM     22  C   UNL d   1     -44.796   9.932  23.698  0.00  0.00     0.111 C 
ATOM     23  C   UNL d   1     -43.831  10.906  23.255  0.00  0.00     0.111 C 
ENDBRANCH  18  21
ENDBRANCH   1  18
TORSDOF 5
ENDMDL
MODEL 2
REMARK VINA RESULT:      -7.4      1.366      1.656
REMARK  5 active torsions:
REMARK  status: ('A' for Active; 'I' for Inactive)
REMARK    1  A    between atoms: C_4  and  S_1 
REMARK    2  A    between atoms: N_5  and  S_1 
REMARK    3  A    between atoms: C_2  and  C_9 
REMARK       I    between atoms: N_3  and  C_2 
REMARK    4  A    between atoms: C_8  and  N_3 
REMARK    5  A    between atoms: O_16  and  C_11 
ROOT
ATOM      1  C   UNL d   1     -46.053  13.358  22.545  0.00  0.00     0.104 A 
ATOM      2  C   UNL d   1     -47.549  14.095  22.732  0.00  0.00     0.058 A 
ATOM      3  C   UNL d   1     -46.129  14.042  22.942  0.00  0.00     0.013 A 
ATOM      4  C   UNL d   1     -46.724  13.027  22.232  0.00  0.00     0.013 A 
ATOM      5  C   UNL d   1     -47.473  13.364  22.307  0.00  0.00     0.005 A 
ATOM      6  C   UNL d   1     -46.868  14.409  23.036  0.00  0.00     0.005 A 
ENDROOT
BRANCH   2   7
ATOM      7  C   UNL d   1     -48.304  14.470  22.828  0.00  0.00     0.279 C 
ATOM      8  N   UNL d   1     -48.868  14.172  23.282  0.00  0.00    -0.206 NA
ATOM      9  O   UNL d   1     -48.423  15.198  22.402  0.00  0.00    -0.265 OA
BRANCH   8  10
ATOM     10  C   UNL d   1     -49.593  14.559  23.357  0.00  0.00     0.107 A 
ATOM     11  C   UNL d   1     -50.257  14.127  23.520  0.00  0.00     0.112 A 
ATOM     12  C   UNL d   1     -50.981  14.514  23.595  0.00  0.00     0.026 A 
ATOM     13  C   UNL d   1     -51.042  15.332  23.507  0.00  0.00     0.002 A 
ATOM     14  C   UNL d   1     -50.349  15.769  23.337  0.00  0.00     0.002 A 
ATOM     15  C   UNL d   1     -49.627  15.378  23.263  0.00  0.00     0.021 A 
BRANCH  11  16
ATOM     16  O   UNL d   1     -50.179  13.387  23.597  0.00  0.00    -0.327 OA
ATOM     17  C   UNL d   1     -51.064  12.996  23.697  0.00  0.00     0.181 C 
ENDBRANCH  11  16
ENDBRANCH   8  10
ENDBRANCH   2   7
BRANCH   1  18
ATOM     18  S   UNL d   1     -45.296  12.912  22.407  0.00  0.00     0.271 S 
ATOM     19  O   UNL d   1     -45.495  12.277  22.924  0.00  0.00    -0.200 OA
ATOM     20  O   UNL d   1     -45.112  13.523  21.914  0.00  0.00    -0.200 OA
BRANCH  18  21
ATOM     21  N   UNL d   1     -44.529  12.525  22.225  0.00  0.00    -0.226 N 
ATOM     22  C   UNL d   1     -44.034  12.837  21.642  0.00  0.00     0.111 C 
ATOM     23  C   UNL d   1     -44.301  11.838  22.645  0.00  0.00     0.111 C 
ENDBRANCH  18  21
ENDBRANCH   1  18
TORSDOF 5
ENDMDL
MODEL 3
REMARK VINA RESULT:      -6.3      1.304      5.132
REMARK  5 active torsions:
REMARK  status: ('A' for Active; 'I' for Inactive)
REMARK    1  A    between atoms: C_4  and  S_1 
REMARK    2  A    between atoms: N_5  and  S_1 
REMARK    3  A    between atoms: C_2  and  C_9 
REMARK       I    between atoms: N_3  and  C_2 
REMARK    4  A    between atoms: C_8  and  N_3 
REMARK    5  A    between atoms: O_16  and  C_11 
ROOT
ATOM      1  C   UNL d   1     -48.129  13.506  23.004  0.00  0.00     0.104 A 
ATOM      2  C   UNL d   1     -46.889  12.392  23.198  0.00  0.00     0.058 A 
ATOM      3  C   UNL d   1     -47.424  13.720  23.302  0.00  0.00     0.013 A 
ATOM      4  C   UNL d   1     -48.229  12.729  22.796  0.00  0.00     0.013 A 
ATOM      5  C   UNL d   1     -47.641  12.157  22.879  0.00  0.00     0.005 A 
ATOM      6  C   UNL d   1     -46.809  13.172  23.399  0.00  0.00     0.005 A 
ENDROOT
BRANCH   2   7
ATOM      7  C   UNL d   1     -46.260  11.830  23.297  0.00  0.00     0.279 C 
ATOM      8  N   UNL d   1     -45.531  11.967  23.050  0.00  0.00    -0.206 NA
ATOM      9  O   UNL d   1     -46.463  11.098  23.683  0.00  0.00    -0.265 OA
BRANCH   8  10
ATOM     10  C   UNL d   1     -44.938  11.403  23.160  0.00  0.00     0.107 A 
ATOM     11  C   UNL d   1     -44.203  11.536  22.852  0.00  0.00     0.112 A 
ATOM     12  C   UNL d   1     -43.612  10.971  22.962  0.00  0.00     0.026 A 
ATOM     13  C   UNL d   1     -43.756  10.275  23.380  0.00  0.00     0.002 A 
ATOM     14  C   UNL d   1     -44.521  10.148  23.695  0.00  0.00     0.002 A 
ATOM     15  C   UNL d   1     -45.109  10.715  23.582  0.00  0.00     0.021 A 
BRANCH  11  16
ATOM     16  O   UNL d   1     -44.095  12.173  22.477  0.00  0.00    -0.327 OA
ATOM     17  C   UNL d   1     -43.265  12.094  21.973  0.00  0.00     0.181 C 
ENDBRANCH  11  16
ENDBRANCH   8  10
ENDBRANCH   2   7
BRANCH   1  18
ATOM     18  S   UNL d   1     -48.828  14.039  22.873  0.00  0.00     0.271 S 
ATOM     19  O   UNL d   1     -49.379  13.525  23.252  0.00  0.00    -0.200 OA
ATOM     20  O   UNL d   1     -48.297  14.526  22.512  0.00  0.00    -0.200 OA
BRANCH  18  21
ATOM     21  N   UNL d   1     -49.475  14.612  22.711  0.00  0.00    -0.226 N 
ATOM     22  C   UNL d   1     -50.149  14.372  22.300  0.00  0.00     0.111 C 
ATOM     23  C   UNL d   1     -49.405  15.402  22.976  0.00  0.00     0.111 C 
ENDBRANCH  18  21
ENDBRANCH   1  18
TORSDOF 5
ENDMDL
MODEL 4
REMARK VINA RESULT:      -5.4      8.242      9.017
REMARK  5 active torsions:
REMARK  status: ('A' for Active; 'I' for Inactive)
REMARK    1  A    between atoms: C_4  and  S_1 
REMARK    2  A    between atoms: N_5  and  S_1 
REMARK    3  A    between atoms: C_2  and  C_9 
REMARK       I    between atoms: N_3  and  C_2 
REMARK    4  A    between atoms: C_8  and  N_3 
REMARK    5  A    between atoms: O_16  and  C_11 
ROOT
ATOM      1  C   UNL d   1     -39.048  14.436  21.588  0.00  0.00     0.104 A 
ATOM      2  C   UNL d   1     -39.691  14.940  20.122  0.00  0.00     0.058 A 
ATOM      3  C   UNL d   1     -38.581  14.589  20.963  0.00  0.00     0.013 A 
ATOM      4  C   UNL d   1     -39.847  14.532  21.494  0.00  0.00     0.013 A 
ATOM      5  C   UNL d   1     -40.194  14.778  20.787  0.00  0.00     0.005 A 
ATOM      6  C   UNL d   1     -38.896  14.838  20.237  0.00  0.00     0.005 A 
ENDROOT
BRANCH   2   7
ATOM      7  C   UNL d   1     -40.014  15.195  19.380  0.00  0.00     0.279 C 
ATOM      8  N   UNL d   1     -39.914  14.792  18.717  0.00  0.00    -0.206 NA
ATOM      9  O   UNL d   1     -40.458  15.922  19.389  0.00  0.00    -0.265 OA
BRANCH   8  10
ATOM     10  C   UNL d   1     -40.240  15.064  18.009  0.00  0.00     0.107 A 
ATOM     11  C   UNL d   1     -39.884  14.869  17.309  0.00  0.00     0.112 A 
ATOM     12  C   UNL d   1     -40.209  15.141  16.602  0.00  0.00     0.026 A 
ATOM     13  C   UNL d   1     -40.890  15.608  16.594  0.00  0.00     0.002 A 
ATOM     14  C   UNL d   1     -41.250  15.803  17.324  0.00  0.00     0.002 A 
ATOM     15  C   UNL d   1     -40.920  15.529  18.028  0.00  0.00     0.021 A 
BRANCH  11  16
ATOM     16  O   UNL d   1     -39.268  14.446  17.340  0.00  0.00    -0.327 OA
ATOM     17  C   UNL d   1     -38.906  14.368  16.439  0.00  0.00     0.181 C 
ENDBRANCH  11  16
ENDBRANCH   8  10
ENDBRANCH   2   7
BRANCH   1  18
ATOM     18  S   UNL d   1     -38.779  14.167  22.392  0.00  0.00     0.271 S 
ATOM     19  O   UNL d   1     -39.031  13.370  22.286  0.00  0.00    -0.200 OA
ATOM     20  O   UNL d   1     -38.539  14.930  22.487  0.00  0.00    -0.200 OA
BRANCH  18  21
ATOM     21  N   UNL d   1     -38.490  13.968  23.198  0.00  0.00    -0.226 N 
ATOM     22  C   UNL d   1     -37.979  14.482  23.594  0.00  0.00     0.111 C 
ATOM     23  C   UNL d   1     -38.734  13.257  23.562  0.00  0.00     0.111 C 
ENDBRANCH  18  21
ENDBRANCH   1  18
TORSDOF 5
ENDMDL
MODEL 5
REMARK VINA RESULT:      -5.1      8.484      9.628
REMARK  5 active torsions:
REMARK  status: ('A' for Active; 'I' for Inactive)
REMARK    1  A    between atoms: C_4  and  S_1 
REMARK    2  A    between atoms: N_5  and  S_1 
REMARK    3  A    between atoms: C_2  and  C_9 
REMARK       I    between atoms: N_3  and  C_2 
REMARK    4  A    between atoms: C_8  and  N_3 
REMARK    5  A    between atoms: O_16  and  C_11 
ROOT
ATOM      1  C   UNL d   1     -40.203  15.377  18.549  0.00  0.00     0.104 A 
ATOM      2  C   UNL d   1     -39.799  15.323  20.177  0.00  0.00     0.058 A 
ATOM      3  C   UNL d   1     -40.500  14.818  19.030  0.00  0.00     0.013 A 
ATOM      4  C   UNL d   1     -39.697  15.921  18.872  0.00  0.00     0.013 A 
ATOM      5  C   UNL d   1     -39.479  15.922  19.668  0.00  0.00     0.005 A 
ATOM      6  C   UNL d   1     -40.302  14.789  19.835  0.00  0.00     0.005 A 
ENDROOT
BRANCH   2   7
ATOM      7  C   UNL d   1     -39.596  15.293  21.001  0.00  0.00     0.279 C 
ATOM      8  N   UNL d   1     -39.026  14.835  21.278  0.00  0.00    -0.206 NA
ATOM      9  O   UNL d   1     -40.050  15.793  21.521  0.00  0.00    -0.265 OA
BRANCH   8  10
ATOM     10  C   UNL d   1     -38.851  14.827  22.085  0.00  0.00     0.107 A 
ATOM     11  C   UNL d   1     -38.376  14.243  22.380  0.00  0.00     0.112 A 
ATOM     12  C   UNL d   1     -38.202  14.235  23.186  0.00  0.00     0.026 A 
ATOM     13  C   UNL d   1     -38.501  14.810  23.696  0.00  0.00     0.002 A 
ATOM     14  C   UNL d   1     -38.991  15.410  23.379  0.00  0.00     0.002 A 
ATOM     15  C   UNL d   1     -39.163  15.414  22.573  0.00  0.00     0.021 A 
BRANCH  11  16
ATOM     16  O   UNL d   1     -38.116  13.731  21.900  0.00  0.00    -0.327 OA
ATOM     17  C   UNL d   1     -37.940  12.911  22.394  0.00  0.00     0.181 C 
ENDBRANCH  11  16
ENDBRANCH   8  10
ENDBRANCH   2   7
BRANCH   1  18
ATOM     18  S   UNL d   1     -40.372  15.466  17.681  0.00  0.00     0.271 S 
ATOM     19  O   UNL d   1     -39.564  15.413  17.448  0.00  0.00    -0.200 OA
ATOM     20  O   UNL d   1     -41.143  15.517  17.910  0.00  0.00    -0.200 OA
BRANCH  18  21
ATOM     21  N   UNL d   1     -40.609  15.560  16.840  0.00  0.00    -0.226 N 
ATOM     22  C   UNL d   1     -41.342  15.889  16.649  0.00  0.00     0.111 C 
ATOM     23  C   UNL d   1     -40.089  15.314  16.233  0.00  0.00     0.111 C 
ENDBRANCH  18  21
ENDBRANCH   1  18
TORSDOF 5
ENDMDL
