MODEL 1
REMARK VINA RESULT:      34.8      0.000      0.000
REMARK  8 active torsions:
REMARK  status: ('A' for Active; 'I' for Inactive)
REMARK    1  A    between atoms: C_6  and  C_1 
REMARK    2  A    between atoms: C_8  and  N_3 
REMARK    3  A    between atoms: C_7  and  C_6 
REMARK    4  A    between atoms: C_9  and  C_7 
REMARK    5  A    between atoms: C_14  and  C_8 
REMARK    6  A    between atoms: C_17  and  C_14 
REMARK    7  A    between atoms: C_15  and  C_16 
REMARK    8  A    between atoms: C_16  and  C_17 
ROOT
ATOM      1  C   UNL d   1      13.572  12.493  -2.516  0.00  0.00     0.148 A 
ATOM      2  N   UNL d   1      13.792  11.814  -1.917  0.00  0.00    -0.227 NA
ATOM      3  N   UNL d   1      14.020  13.254  -2.237  0.00  0.00    -0.289 N 
ATOM      4  C   UNL d   1      14.512  13.056  -1.479  0.00  0.00     0.083 A 
ATOM      5  C   UNL d   1      14.368  12.145  -1.277  0.00  0.00     0.099 A 
ATOM      6  C   UNL d   1      15.071  13.575  -0.944  0.00  0.00     0.019 A 
ATOM      7  C   UNL d   1      14.787  11.781  -0.545  0.00  0.00     0.021 A 
ATOM      8  C   UNL d   1      15.478  13.184  -0.217  0.00  0.00     0.002 A 
ATOM      9  C   UNL d   1      15.334  12.273  -0.014  0.00  0.00     0.002 A 
ENDROOT
BRANCH   1  10
ATOM     10  C   UNL d   1      13.215  12.800  -3.136  0.00  0.00     0.037 C 
BRANCH  10  11
ATOM     11  C   UNL d   1      12.843  12.358  -3.715  0.00  0.00     0.003 C 
BRANCH  11  12
ATOM     12  C   UNL d   1      13.056  12.378  -4.516  0.00  0.00     0.000 A 
ATOM     13  C   UNL d   1      12.838  11.779  -5.028  0.00  0.00     0.000 A 
ATOM     14  C   UNL d   1      13.051  11.804  -5.820  0.00  0.00     0.000 A 
ATOM     15  C   UNL d   1      13.494  12.449  -6.106  0.00  0.00     0.000 A 
ATOM     16  C   UNL d   1      13.712  13.049  -5.591  0.00  0.00     0.000 A 
ATOM     17  C   UNL d   1      13.499  13.023  -4.802  0.00  0.00     0.000 A 
ENDBRANCH  11  12
ENDBRANCH  10  11
ENDBRANCH   1  10
BRANCH   3  18
ATOM     18  C   UNL d   1      14.372  13.957  -2.066  0.00  0.00     0.082 C 
BRANCH  18  19
ATOM     19  C   UNL d   1      14.314  14.584  -2.589  0.00  0.00     0.019 C 
BRANCH  19  20
ATOM     20  C   UNL d   1      14.368  15.354  -2.323  0.00  0.00     0.002 C 
BRANCH  20  21
ATOM     21  C   UNL d   1      15.070  15.780  -2.401  0.00  0.00     0.000 C 
BRANCH  21  22
ATOM     22  C   UNL d   1      15.062  16.590  -2.548  0.00  0.00     0.000 C 
ATOM     23  C   UNL d   1      15.004  17.135  -1.931  0.00  0.00     0.000 C 
ENDBRANCH  21  22
ENDBRANCH  20  21
ENDBRANCH  19  20
ENDBRANCH  18  19
ENDBRANCH   3  18
TORSDOF 8
ENDMDL
MODEL 2
REMARK VINA RESULT:      35.5      0.942      4.496
REMARK  8 active torsions:
REMARK  status: ('A' for Active; 'I' for Inactive)
REMARK    1  A    between atoms: C_6  and  C_1 
REMARK    2  A    between atoms: C_8  and  N_3 
REMARK    3  A    between atoms: C_7  and  C_6 
REMARK    4  A    between atoms: C_9  and  C_7 
REMARK    5  A    between atoms: C_14  and  C_8 
REMARK    6  A    between atoms: C_17  and  C_14 
REMARK    7  A    between atoms: C_15  and  C_16 
REMARK    8  A    between atoms: C_16  and  C_17 
ROOT
ATOM      1  C   UNL d   1      13.968  14.461  -3.060  0.00  0.00     0.148 A 
ATOM      2  N   UNL d   1      13.616  14.456  -3.923  0.00  0.00    -0.227 NA
ATOM      3  N   UNL d   1      13.931  13.589  -2.750  0.00  0.00    -0.289 N 
ATOM      4  C   UNL d   1      13.565  13.049  -3.405  0.00  0.00     0.083 A 
ATOM      5  C   UNL d   1      13.366  13.597  -4.147  0.00  0.00     0.099 A 
ATOM      6  C   UNL d   1      13.383  12.135  -3.433  0.00  0.00     0.019 A 
ATOM      7  C   UNL d   1      12.991  13.216  -4.895  0.00  0.00     0.021 A 
ATOM      8  C   UNL d   1      13.008  11.779  -4.194  0.00  0.00     0.002 A 
ATOM      9  C   UNL d   1      12.809  12.328  -4.936  0.00  0.00     0.002 A 
ENDROOT
BRANCH   1  10
ATOM     10  C   UNL d   1      14.285  14.787  -2.428  0.00  0.00     0.037 C 
BRANCH  10  11
ATOM     11  C   UNL d   1      14.578  15.550  -2.405  0.00  0.00     0.003 C 
BRANCH  11  12
ATOM     12  C   UNL d   1      14.923  15.888  -1.731  0.00  0.00     0.000 A 
ATOM     13  C   UNL d   1      15.160  15.427  -1.099  0.00  0.00     0.000 A 
ATOM     14  C   UNL d   1      15.501  15.767  -0.434  0.00  0.00     0.000 A 
ATOM     15  C   UNL d   1      15.607  16.592  -0.404  0.00  0.00     0.000 A 
ATOM     16  C   UNL d   1      15.368  17.054  -1.039  0.00  0.00     0.000 A 
ATOM     17  C   UNL d   1      15.029  16.714  -1.701  0.00  0.00     0.000 A 
ENDBRANCH  11  12
ENDBRANCH  10  11
ENDBRANCH   1  10
BRANCH   3  18
ATOM     18  C   UNL d   1      13.936  12.863  -2.404  0.00  0.00     0.082 C 
BRANCH  18  19
ATOM     19  C   UNL d   1      13.798  12.790  -1.600  0.00  0.00     0.019 C 
BRANCH  19  20
ATOM     20  C   UNL d   1      13.996  12.103  -1.205  0.00  0.00     0.002 C 
BRANCH  20  21
ATOM     21  C   UNL d   1      14.062  12.092  -0.383  0.00  0.00     0.000 C 
BRANCH  21  22
ATOM     22  C   UNL d   1      14.733  11.792  -0.014  0.00  0.00     0.000 C 
ATOM     23  C   UNL d   1      15.488  12.039  -0.238  0.00  0.00     0.000 C 
ENDBRANCH  21  22
ENDBRANCH  20  21
ENDBRANCH  19  20
ENDBRANCH  18  19
ENDBRANCH   3  18
TORSDOF 8
ENDMDL
MODEL 3
REMARK VINA RESULT:      37.2      1.256      3.368
REMARK  8 active torsions:
REMARK  status: ('A' for Active; 'I' for Inactive)
REMARK    1  A    between atoms: C_6  and  C_1 
REMARK    2  A    between atoms: C_8  and  N_3 
REMARK    3  A    between atoms: C_7  and  C_6 
REMARK    4  A    between atoms: C_9  and  C_7 
REMARK    5  A    between atoms: C_14  and  C_8 
REMARK    6  A    between atoms: C_17  and  C_14 
REMARK    7  A    between atoms: C_15  and  C_16 
REMARK    8  A    between atoms: C_16  and  C_17 
ROOT
ATOM      1  C   UNL d   1      14.397  14.378  -2.285  0.00  0.00     0.148 A 
ATOM      2  N   UNL d   1      14.757  14.427  -1.427  0.00  0.00    -0.227 NA
ATOM      3  N   UNL d   1      14.176  13.491  -2.434  0.00  0.00    -0.289 N 
ATOM      4  C   UNL d   1      14.393  12.994  -1.685  0.00  0.00     0.083 A 
ATOM      5  C   UNL d   1      14.761  13.586  -1.048  0.00  0.00     0.099 A 
ATOM      6  C   UNL d   1      14.309  12.086  -1.491  0.00  0.00     0.019 A 
ATOM      7  C   UNL d   1      15.034  13.252  -0.236  0.00  0.00     0.021 A 
ATOM      8  C   UNL d   1      14.591  11.779  -0.670  0.00  0.00     0.002 A 
ATOM      9  C   UNL d   1      14.958  12.371  -0.033  0.00  0.00     0.002 A 
ENDROOT
BRANCH   1  10
ATOM     10  C   UNL d   1      14.167  14.663  -2.972  0.00  0.00     0.037 C 
BRANCH  10  11
ATOM     11  C   UNL d   1      14.115  15.461  -3.142  0.00  0.00     0.003 C 
BRANCH  11  12
ATOM     12  C   UNL d   1      14.337  15.791  -3.869  0.00  0.00     0.000 A 
ATOM     13  C   UNL d   1      13.881  15.684  -4.540  0.00  0.00     0.000 A 
ATOM     14  C   UNL d   1      14.105  16.011  -5.258  0.00  0.00     0.000 A 
ATOM     15  C   UNL d   1      14.806  16.460  -5.304  0.00  0.00     0.000 A 
ATOM     16  C   UNL d   1      15.262  16.567  -4.630  0.00  0.00     0.000 A 
ATOM     17  C   UNL d   1      15.038  16.239  -3.915  0.00  0.00     0.000 A 
ENDBRANCH  11  12
ENDBRANCH  10  11
ENDBRANCH   1  10
BRANCH   3  18
ATOM     18  C   UNL d   1      13.955  12.747  -2.646  0.00  0.00     0.082 C 
BRANCH  18  19
ATOM     19  C   UNL d   1      13.442  12.633  -3.273  0.00  0.00     0.019 C 
BRANCH  19  20
ATOM     20  C   UNL d   1      13.313  11.885  -3.574  0.00  0.00     0.002 C 
BRANCH  20  21
ATOM     21  C   UNL d   1      12.898  11.779  -4.280  0.00  0.00     0.000 C 
BRANCH  21  22
ATOM     22  C   UNL d   1      13.275  11.845  -5.008  0.00  0.00     0.000 C 
ATOM     23  C   UNL d   1      12.844  11.856  -5.712  0.00  0.00     0.000 C 
ENDBRANCH  21  22
ENDBRANCH  20  21
ENDBRANCH  19  20
ENDBRANCH  18  19
ENDBRANCH   3  18
TORSDOF 8
ENDMDL
