MODEL 1
REMARK VINA RESULT:      -2.7      0.000      0.000
REMARK  7 active torsions:
REMARK  status: ('A' for Active; 'I' for Inactive)
REMARK    1  A    between atoms: C_13  and  N_1 
REMARK    2  A    between atoms: C_2  and  N_6 
REMARK    3  A    between atoms: C_9  and  C_5 
REMARK       I    between atoms: N_6  and  C_9 
REMARK    4  A    between atoms: S_14  and  C_7 
REMARK    5  A    between atoms: C_21  and  S_14 
REMARK    6  A    between atoms: C_15  and  C_21 
REMARK    7  A    between atoms: O_25  and  C_15 
ROOT
ATOM      1  N   UNL d   1      32.075  18.733 -23.470  0.00  0.00    -0.181 NA
ATOM      2  C   UNL d   1      32.435  18.085 -23.710  0.00  0.00     0.283 C 
ATOM      3  O   UNL d   1      33.207  18.085 -23.815  0.00  0.00    -0.265 OA
ENDROOT
BRANCH   2   4
ATOM      4  C   UNL d   1      32.024  17.441 -23.844  0.00  0.00     0.080 A 
ATOM      5  C   UNL d   1      31.254  17.394 -23.920  0.00  0.00     0.088 A 
ATOM      6  N   UNL d   1      31.071  16.649 -24.049  0.00  0.00    -0.273 N 
ATOM      7  C   UNL d   1      31.725  16.239 -24.052  0.00  0.00     0.265 A 
ATOM      8  C   UNL d   1      32.322  16.727 -23.925  0.00  0.00     0.067 A 
ATOM      9  O   UNL d   1      31.783  15.467 -24.163  0.00  0.00    -0.267 OA
BRANCH   6  10
ATOM     10  C   UNL d   1      30.295  16.349 -24.163  0.00  0.00     0.067 A 
ATOM     11  C   UNL d   1      29.869  16.051 -23.511  0.00  0.00     0.020 A 
ATOM     12  C   UNL d   1      29.097  15.753 -23.636  0.00  0.00     0.031 A 
ATOM     13  C   UNL d   1      28.759  15.753 -24.391  0.00  0.00     0.140 A 
ATOM     14  C   UNL d   1      29.193  16.054 -25.042  0.00  0.00     0.031 A 
ATOM     15  F   UNL d   1      27.981  15.453 -24.513  0.00  0.00    -0.204 F 
ATOM     16  C   UNL d   1      29.953  16.349 -24.929  0.00  0.00     0.020 A 
ENDBRANCH   6  10
ENDBRANCH   2   4
BRANCH   1  17
ATOM     17  C   UNL d   1      32.484  19.380 -23.335  0.00  0.00     0.219 A 
ATOM     18  S   UNL d   1      32.526  19.765 -22.660  0.00  0.00    -0.019 SA
ATOM     19  C   UNL d   1      32.987  20.374 -22.759  0.00  0.00     0.165 A 
ATOM     20  N   UNL d   1      33.241  20.380 -23.496  0.00  0.00    -0.133 NA
ATOM     21  N   UNL d   1      32.924  19.754 -23.858  0.00  0.00    -0.120 NA
BRANCH  19  22
ATOM     22  S   UNL d   1      33.235  21.384 -21.397  0.00  0.00    -0.053 SA
BRANCH  22  23
ATOM     23  C   UNL d   1      32.628  21.482 -20.833  0.00  0.00     0.106 C 
BRANCH  23  24
ATOM     24  C   UNL d   1      32.531  22.224 -20.439  0.00  0.00     0.303 C 
ATOM     25  O   UNL d   1      31.867  22.705 -20.601  0.00  0.00    -0.259 OA
BRANCH  24  26
ATOM     26  O   UNL d   1      33.117  22.466 -19.882  0.00  0.00    -0.295 OA
ATOM     27  C   UNL d   1      32.866  22.763 -19.144  0.00  0.00     0.185 C 
ENDBRANCH  24  26
ENDBRANCH  23  24
ENDBRANCH  22  23
ENDBRANCH  19  22
ENDBRANCH   1  17
TORSDOF 7
ENDMDL
MODEL 2
REMARK VINA RESULT:      -1.9      2.758      6.916
REMARK  7 active torsions:
REMARK  status: ('A' for Active; 'I' for Inactive)
REMARK    1  A    between atoms: C_13  and  N_1 
REMARK    2  A    between atoms: C_2  and  N_6 
REMARK    3  A    between atoms: C_9  and  C_5 
REMARK       I    between atoms: N_6  and  C_9 
REMARK    4  A    between atoms: S_14  and  C_7 
REMARK    5  A    between atoms: C_21  and  S_14 
REMARK    6  A    between atoms: C_15  and  C_21 
REMARK    7  A    between atoms: O_25  and  C_15 
ROOT
ATOM      1  N   UNL d   1      32.637  20.929 -22.067  0.00  0.00    -0.181 NA
ATOM      2  C   UNL d   1      32.811  21.689 -22.069  0.00  0.00     0.283 C 
ATOM      3  O   UNL d   1      33.175  22.003 -22.682  0.00  0.00    -0.265 OA
ENDROOT
BRANCH   2   4
ATOM      4  C   UNL d   1      32.620  22.131 -21.462  0.00  0.00     0.080 A 
ATOM      5  C   UNL d   1      32.927  22.095 -20.751  0.00  0.00     0.088 A 
ATOM      6  N   UNL d   1      32.580  22.634 -20.311  0.00  0.00    -0.273 N 
ATOM      7  C   UNL d   1      32.060  23.001 -20.748  0.00  0.00     0.265 A 
ATOM      8  C   UNL d   1      32.081  22.692 -21.466  0.00  0.00     0.067 A 
ATOM      9  O   UNL d   1      31.592  23.583 -20.516  0.00  0.00    -0.267 OA
BRANCH   6  10
ATOM     10  C   UNL d   1      32.744  22.786 -19.502  0.00  0.00     0.067 A 
ATOM     11  C   UNL d   1      33.081  23.516 -19.281  0.00  0.00     0.020 A 
ATOM     12  C   UNL d   1      33.241  23.658 -18.472  0.00  0.00     0.031 A 
ATOM     13  C   UNL d   1      33.069  23.087 -17.898  0.00  0.00     0.140 A 
ATOM     14  C   UNL d   1      32.730  22.355 -18.127  0.00  0.00     0.031 A 
ATOM     15  F   UNL d   1      33.231  23.233 -17.084  0.00  0.00    -0.204 F 
ATOM     16  C   UNL d   1      32.569  22.206 -18.920  0.00  0.00     0.020 A 
ENDBRANCH   6  10
ENDBRANCH   2   4
BRANCH   1  17
ATOM     17  C   UNL d   1      32.826  20.483 -22.674  0.00  0.00     0.219 A 
ATOM     18  S   UNL d   1      32.743  19.711 -22.721  0.00  0.00    -0.019 SA
ATOM     19  C   UNL d   1      32.996  19.484 -23.412  0.00  0.00     0.165 A 
ATOM     20  N   UNL d   1      33.241  20.108 -23.808  0.00  0.00    -0.133 NA
ATOM     21  N   UNL d   1      33.134  20.737 -23.343  0.00  0.00    -0.120 NA
BRANCH  19  22
ATOM     22  S   UNL d   1      32.912  17.805 -23.751  0.00  0.00    -0.053 SA
BRANCH  22  23
ATOM     23  C   UNL d   1      32.198  17.390 -23.633  0.00  0.00     0.106 C 
BRANCH  23  24
ATOM     24  C   UNL d   1      32.210  16.554 -23.504  0.00  0.00     0.303 C 
ATOM     25  O   UNL d   1      32.777  16.075 -23.887  0.00  0.00    -0.259 OA
BRANCH  24  26
ATOM     26  O   UNL d   1      31.639  16.218 -22.982  0.00  0.00    -0.295 OA
ATOM     27  C   UNL d   1      30.975  15.836 -23.310  0.00  0.00     0.185 C 
ENDBRANCH  24  26
ENDBRANCH  23  24
ENDBRANCH  22  23
ENDBRANCH  19  22
ENDBRANCH   1  17
TORSDOF 7
ENDMDL
MODEL 3
REMARK VINA RESULT:      -1.7      2.441      3.704
REMARK  7 active torsions:
REMARK  status: ('A' for Active; 'I' for Inactive)
REMARK    1  A    between atoms: C_13  and  N_1 
REMARK    2  A    between atoms: C_2  and  N_6 
REMARK    3  A    between atoms: C_9  and  C_5 
REMARK       I    between atoms: N_6  and  C_9 
REMARK    4  A    between atoms: S_14  and  C_7 
REMARK    5  A    between atoms: C_21  and  S_14 
REMARK    6  A    between atoms: C_15  and  C_21 
REMARK    7  A    between atoms: O_25  and  C_15 
ROOT
ATOM      1  N   UNL d   1      33.193  21.486 -21.756  0.00  0.00    -0.181 NA
ATOM      2  C   UNL d   1      32.595  21.095 -22.068  0.00  0.00     0.283 C 
ATOM      3  O   UNL d   1      31.865  21.321 -21.922  0.00  0.00    -0.265 OA
ENDROOT
BRANCH   2   4
ATOM      4  C   UNL d   1      32.729  20.482 -22.523  0.00  0.00     0.080 A 
ATOM      5  C   UNL d   1      32.668  19.736 -22.321  0.00  0.00     0.088 A 
ATOM      6  N   UNL d   1      32.851  19.303 -22.941  0.00  0.00    -0.273 N 
ATOM      7  C   UNL d   1      33.025  19.780 -23.522  0.00  0.00     0.265 A 
ATOM      8  C   UNL d   1      32.950  20.515 -23.268  0.00  0.00     0.067 A 
ATOM      9  O   UNL d   1      33.239  19.567 -24.244  0.00  0.00    -0.267 OA
BRANCH   6  10
ATOM     10  C   UNL d   1      32.858  18.464 -22.968  0.00  0.00     0.067 A 
ATOM     11  C   UNL d   1      33.239  18.037 -22.361  0.00  0.00     0.020 A 
ATOM     12  C   UNL d   1      33.240  17.201 -22.397  0.00  0.00     0.031 A 
ATOM     13  C   UNL d   1      32.872  16.802 -23.021  0.00  0.00     0.140 A 
ATOM     14  C   UNL d   1      32.491  17.238 -23.628  0.00  0.00     0.031 A 
ATOM     15  F   UNL d   1      32.875  15.959 -23.054  0.00  0.00    -0.204 F 
ATOM     16  C   UNL d   1      32.484  18.060 -23.601  0.00  0.00     0.020 A 
ENDBRANCH   6  10
ENDBRANCH   2   4
BRANCH   1  17
ATOM     17  C   UNL d   1      33.062  22.101 -21.300  0.00  0.00     0.219 A 
ATOM     18  S   UNL d   1      33.212  22.147 -20.537  0.00  0.00    -0.019 SA
ATOM     19  C   UNL d   1      33.003  22.847 -20.294  0.00  0.00     0.165 A 
ATOM     20  N   UNL d   1      32.720  23.250 -20.899  0.00  0.00    -0.133 NA
ATOM     21  N   UNL d   1      32.758  22.779 -21.531  0.00  0.00    -0.120 NA
BRANCH  19  22
ATOM     22  S   UNL d   1      33.238  23.190 -18.631  0.00  0.00    -0.053 SA
BRANCH  22  23
ATOM     23  C   UNL d   1      32.977  22.649 -18.052  0.00  0.00     0.106 C 
BRANCH  23  24
ATOM     24  C   UNL d   1      32.688  22.931 -17.308  0.00  0.00     0.303 C 
ATOM     25  O   UNL d   1      31.944  23.305 -17.258  0.00  0.00    -0.259 OA
BRANCH  24  26
ATOM     26  O   UNL d   1      33.169  22.825 -16.623  0.00  0.00    -0.295 OA
ATOM     27  C   UNL d   1      32.885  23.103 -15.890  0.00  0.00     0.185 C 
ENDBRANCH  24  26
ENDBRANCH  23  24
ENDBRANCH  22  23
ENDBRANCH  19  22
ENDBRANCH   1  17
TORSDOF 7
ENDMDL
MODEL 4
REMARK VINA RESULT:      -0.7      3.106      4.883
REMARK  7 active torsions:
REMARK  status: ('A' for Active; 'I' for Inactive)
REMARK    1  A    between atoms: C_13  and  N_1 
REMARK    2  A    between atoms: C_2  and  N_6 
REMARK    3  A    between atoms: C_9  and  C_5 
REMARK       I    between atoms: N_6  and  C_9 
REMARK    4  A    between atoms: S_14  and  C_7 
REMARK    5  A    between atoms: C_21  and  S_14 
REMARK    6  A    between atoms: C_15  and  C_21 
REMARK    7  A    between atoms: O_25  and  C_15 
ROOT
ATOM      1  N   UNL d   1      32.955  22.359 -20.615  0.00  0.00    -0.181 NA
ATOM      2  C   UNL d   1      32.477  21.783 -20.832  0.00  0.00     0.283 C 
ATOM      3  O   UNL d   1      31.822  21.650 -20.432  0.00  0.00    -0.265 OA
ENDROOT
BRANCH   2   4
ATOM      4  C   UNL d   1      32.654  21.344 -21.445  0.00  0.00     0.080 A 
ATOM      5  C   UNL d   1      32.643  20.569 -21.476  0.00  0.00     0.088 A 
ATOM      6  N   UNL d   1      32.858  20.354 -22.192  0.00  0.00    -0.273 N 
ATOM      7  C   UNL d   1      33.002  20.994 -22.601  0.00  0.00     0.265 A 
ATOM      8  C   UNL d   1      32.876  21.613 -22.141  0.00  0.00     0.067 A 
ATOM      9  O   UNL d   1      33.233  21.020 -23.348  0.00  0.00    -0.267 OA
BRANCH   6  10
ATOM     10  C   UNL d   1      32.922  19.564 -22.468  0.00  0.00     0.067 A 
ATOM     11  C   UNL d   1      32.770  19.395 -23.270  0.00  0.00     0.020 A 
ATOM     12  C   UNL d   1      32.836  18.604 -23.535  0.00  0.00     0.031 A 
ATOM     13  C   UNL d   1      33.049  17.998 -23.014  0.00  0.00     0.140 A 
ATOM     14  C   UNL d   1      33.200  18.175 -22.208  0.00  0.00     0.031 A 
ATOM     15  F   UNL d   1      33.114  17.202 -23.284  0.00  0.00    -0.204 F 
ATOM     16  C   UNL d   1      33.137  18.950 -21.938  0.00  0.00     0.020 A 
ENDBRANCH   6  10
ENDBRANCH   2   4
BRANCH   1  17
ATOM     17  C   UNL d   1      32.780  22.801 -20.000  0.00  0.00     0.219 A 
ATOM     18  S   UNL d   1      33.067  22.723 -19.281  0.00  0.00    -0.019 SA
ATOM     19  C   UNL d   1      32.754  23.269 -18.837  0.00  0.00     0.165 A 
ATOM     20  N   UNL d   1      32.268  23.697 -19.270  0.00  0.00    -0.133 NA
ATOM     21  N   UNL d   1      32.285  23.402 -20.002  0.00  0.00    -0.120 NA
BRANCH  19  22
ATOM     22  S   UNL d   1      33.238  23.300 -17.193  0.00  0.00    -0.053 SA
BRANCH  22  23
ATOM     23  C   UNL d   1      32.740  22.980 -16.605  0.00  0.00     0.106 C 
BRANCH  23  24
ATOM     24  C   UNL d   1      33.070  22.531 -15.968  0.00  0.00     0.303 C 
ATOM     25  O   UNL d   1      33.240  21.719 -16.066  0.00  0.00    -0.259 OA
BRANCH  24  26
ATOM     26  O   UNL d   1      33.222  22.921 -15.235  0.00  0.00    -0.295 OA
ATOM     27  C   UNL d   1      33.129  22.490 -14.527  0.00  0.00     0.185 C 
ENDBRANCH  24  26
ENDBRANCH  23  24
ENDBRANCH  22  23
ENDBRANCH  19  22
ENDBRANCH   1  17
TORSDOF 7
ENDMDL
