MODEL 1
REMARK VINA RESULT:      49.4      0.000      0.000
REMARK  3 active torsions:
REMARK  status: ('A' for Active; 'I' for Inactive)
REMARK    1  A    between atoms: C_2  and  C_1 
REMARK    2  A    between atoms: C_3  and  C_1 
REMARK       I    between atoms: N_4  and  C_2 
REMARK    3  A    between atoms: C_6  and  N_4 
ROOT
ATOM      1  C   UNL d   1     -52.228  24.651  33.825  0.00  0.00     0.150 A 
ATOM      2  O   UNL d   1     -50.779  24.040  33.318  0.00  0.00    -0.304 OA
ATOM      3  C   UNL d   1     -51.552  25.127  33.838  0.00  0.00     0.019 A 
ATOM      4  C   UNL d   1     -52.178  23.881  33.561  0.00  0.00     0.019 A 
ATOM      5  C   UNL d   1     -51.448  23.573  33.306  0.00  0.00     0.119 A 
ATOM      6  C   UNL d   1     -50.827  24.820  33.583  0.00  0.00     0.119 A 
ENDROOT
BRANCH   1   7
ATOM      7  C   UNL d   1     -52.279  25.433  34.092  0.00  0.00     0.315 C 
ATOM      8  N   UNL d   1     -51.659  25.961  33.963  0.00  0.00    -0.367 NA
ATOM      9  O   UNL d   1     -52.956  25.680  34.489  0.00  0.00    -0.255 OA
BRANCH   8  10
ATOM     10  C   UNL d   1     -51.044  26.492  33.837  0.00  0.00     0.135 A 
ATOM     11  C   UNL d   1     -50.280  26.224  33.922  0.00  0.00     0.032 A 
ATOM     12  C   UNL d   1     -49.651  26.762  33.795  0.00  0.00     0.003 A 
ATOM     13  C   UNL d   1     -48.872  26.495  33.880  0.00  0.00     0.000 C 
ATOM     14  C   UNL d   1     -49.811  27.515  33.596  0.00  0.00     0.000 A 
ATOM     15  C   UNL d   1     -50.571  27.780  33.512  0.00  0.00     0.003 A 
ATOM     16  C   UNL d   1     -51.187  27.263  33.634  0.00  0.00     0.032 A 
ATOM     17  C   UNL d   1     -50.728  28.561  33.307  0.00  0.00     0.000 C 
ENDBRANCH   8  10
ENDBRANCH   1   7
BRANCH   1  18
ATOM     18  C   UNL d   1     -52.907  24.177  33.813  0.00  0.00     0.024 A 
ATOM     19  S   UNL d   1     -53.038  23.484  34.252  0.00  0.00    -0.090 SA
ATOM     20  C   UNL d   1     -53.787  23.189  34.072  0.00  0.00     0.035 A 
ATOM     21  C   UNL d   1     -54.138  23.686  33.522  0.00  0.00     0.007 A 
ATOM     22  C   UNL d   1     -53.594  24.301  33.359  0.00  0.00     0.004 A 
ENDBRANCH   1  18
TORSDOF 3
ENDMDL
MODEL 2
REMARK VINA RESULT:      49.8      1.974      2.700
REMARK  3 active torsions:
REMARK  status: ('A' for Active; 'I' for Inactive)
REMARK    1  A    between atoms: C_2  and  C_1 
REMARK    2  A    between atoms: C_3  and  C_1 
REMARK       I    between atoms: N_4  and  C_2 
REMARK    3  A    between atoms: C_6  and  N_4 
ROOT
ATOM      1  C   UNL d   1     -51.161  25.501  33.819  0.00  0.00     0.150 A 
ATOM      2  O   UNL d   1     -49.548  25.665  33.496  0.00  0.00    -0.304 OA
ATOM      3  C   UNL d   1     -50.770  26.204  34.013  0.00  0.00     0.019 A 
ATOM      4  C   UNL d   1     -50.749  24.890  33.468  0.00  0.00     0.019 A 
ATOM      5  C   UNL d   1     -49.937  24.973  33.306  0.00  0.00     0.119 A 
ATOM      6  C   UNL d   1     -49.962  26.284  33.850  0.00  0.00     0.119 A 
ENDROOT
BRANCH   1   7
ATOM      7  C   UNL d   1     -51.578  26.121  34.174  0.00  0.00     0.315 C 
ATOM      8  N   UNL d   1     -51.616  26.184  34.996  0.00  0.00    -0.367 NA
ATOM      9  O   UNL d   1     -51.957  26.677  33.700  0.00  0.00    -0.255 OA
BRANCH   8  10
ATOM     10  C   UNL d   1     -51.657  26.252  35.814  0.00  0.00     0.135 A 
ATOM     11  C   UNL d   1     -52.284  25.904  36.199  0.00  0.00     0.032 A 
ATOM     12  C   UNL d   1     -52.330  25.971  37.032  0.00  0.00     0.003 A 
ATOM     13  C   UNL d   1     -52.966  25.620  37.428  0.00  0.00     0.000 C 
ATOM     14  C   UNL d   1     -51.766  26.368  37.427  0.00  0.00     0.000 A 
ATOM     15  C   UNL d   1     -51.142  26.714  37.043  0.00  0.00     0.003 A 
ATOM     16  C   UNL d   1     -51.092  26.653  36.234  0.00  0.00     0.032 A 
ATOM     17  C   UNL d   1     -50.562  27.123  37.459  0.00  0.00     0.000 C 
ENDBRANCH   8  10
ENDBRANCH   1   7
BRANCH   1  18
ATOM     18  C   UNL d   1     -51.555  24.799  33.626  0.00  0.00     0.024 A 
ATOM     19  S   UNL d   1     -51.216  24.045  33.541  0.00  0.00    -0.090 SA
ATOM     20  C   UNL d   1     -51.808  23.505  33.346  0.00  0.00     0.035 A 
ATOM     21  C   UNL d   1     -52.523  23.905  33.306  0.00  0.00     0.007 A 
ATOM     22  C   UNL d   1     -52.369  24.709  33.479  0.00  0.00     0.004 A 
ENDBRANCH   1  18
TORSDOF 3
ENDMDL
