MODEL 1
REMARK VINA RESULT:      31.6      0.000      0.000
REMARK  5 active torsions:
REMARK  status: ('A' for Active; 'I' for Inactive)
REMARK    1  A    between atoms: N_2  and  S_1 
REMARK    2  A    between atoms: C_8  and  S_1 
REMARK    3  A    between atoms: S_7  and  C_3 
REMARK    4  A    between atoms: C_11  and  S_7 
REMARK    5  A    between atoms: C_12  and  C_11 
ROOT
ATOM      1  N   UNL d   1      14.487  12.383  -1.464  0.00  0.00    -0.208 N 
ATOM      2  C   UNL d   1      14.600  12.868  -0.796  0.00  0.00     0.189 A 
ATOM      3  N   UNL d   1      14.126  12.575  -0.181  0.00  0.00    -0.219 NA
ATOM      4  C   UNL d   1      13.941  11.788  -1.259  0.00  0.00     0.114 A 
ATOM      5  C   UNL d   1      13.722  11.909  -0.471  0.00  0.00     0.121 A 
ENDROOT
BRANCH   1   6
ATOM      6  S   UNL d   1      14.856  12.480  -2.202  0.00  0.00     0.273 S 
ATOM      7  O   UNL d   1      15.555  12.619  -1.795  0.00  0.00    -0.200 OA
ATOM      8  O   UNL d   1      15.426  12.616  -2.790  0.00  0.00    -0.200 OA
BRANCH   6   9
ATOM      9  C   UNL d   1      14.160  12.343  -2.631  0.00  0.00     0.104 A 
ATOM     10  C   UNL d   1      14.094  12.635  -3.395  0.00  0.00     0.013 A 
ATOM     11  C   UNL d   1      13.402  12.497  -3.820  0.00  0.00     0.001 A 
ATOM     12  C   UNL d   1      12.785  12.071  -3.479  0.00  0.00     0.000 A 
ATOM     13  C   UNL d   1      12.857  11.781  -2.714  0.00  0.00     0.001 A 
ATOM     14  C   UNL d   1      13.554  11.921  -2.289  0.00  0.00     0.013 A 
ENDBRANCH   6   9
ENDBRANCH   1   6
BRANCH   2  15
ATOM     15  S   UNL d   1      15.102  13.533  -0.754  0.00  0.00    -0.049 SA
BRANCH  15  16
ATOM     16  C   UNL d   1      14.913  14.158  -0.247  0.00  0.00     0.038 C 
BRANCH  16  17
ATOM     17  C   UNL d   1      15.041  14.943  -0.494  0.00  0.00     0.007 A 
ATOM     18  C   UNL d   1      15.475  15.470  -0.019  0.00  0.00     0.001 A 
ATOM     19  C   UNL d   1      15.605  16.245  -0.257  0.00  0.00     0.000 A 
ATOM     20  C   UNL d   1      15.299  16.504  -0.980  0.00  0.00     0.000 A 
ATOM     21  C   UNL d   1      14.865  15.981  -1.458  0.00  0.00     0.000 A 
ATOM     22  C   UNL d   1      15.424  17.281  -1.227  0.00  0.00     0.000 C 
ATOM     23  C   UNL d   1      14.738  15.203  -1.214  0.00  0.00     0.001 A 
ENDBRANCH  16  17
ENDBRANCH  15  16
ENDBRANCH   2  15
TORSDOF 5
ENDMDL
MODEL 2
REMARK VINA RESULT:      33.8      1.155      3.972
REMARK  5 active torsions:
REMARK  status: ('A' for Active; 'I' for Inactive)
REMARK    1  A    between atoms: N_2  and  S_1 
REMARK    2  A    between atoms: C_8  and  S_1 
REMARK    3  A    between atoms: S_7  and  C_3 
REMARK    4  A    between atoms: C_11  and  S_7 
REMARK    5  A    between atoms: C_12  and  C_11 
ROOT
ATOM      1  N   UNL d   1      14.946  13.734  -0.409  0.00  0.00    -0.208 N 
ATOM      2  C   UNL d   1      14.855  12.961  -0.708  0.00  0.00     0.189 A 
ATOM      3  N   UNL d   1      15.610  12.626  -0.788  0.00  0.00    -0.219 NA
ATOM      4  C   UNL d   1      15.760  13.874  -0.305  0.00  0.00     0.114 A 
ATOM      5  C   UNL d   1      16.164  13.192  -0.538  0.00  0.00     0.121 A 
ENDROOT
BRANCH   1   6
ATOM      6  S   UNL d   1      14.329  14.266  -0.246  0.00  0.00     0.273 S 
ATOM      7  O   UNL d   1      13.866  13.616  -0.056  0.00  0.00    -0.200 OA
ATOM      8  O   UNL d   1      13.592  14.581  -0.031  0.00  0.00    -0.200 OA
BRANCH   6   9
ATOM      9  C   UNL d   1      14.781  14.935  -0.434  0.00  0.00     0.104 A 
ATOM     10  C   UNL d   1      14.531  15.434  -1.036  0.00  0.00     0.013 A 
ATOM     11  C   UNL d   1      14.982  16.098  -1.222  0.00  0.00     0.001 A 
ATOM     12  C   UNL d   1      15.676  16.257  -0.806  0.00  0.00     0.000 A 
ATOM     13  C   UNL d   1      15.921  15.753  -0.205  0.00  0.00     0.001 A 
ATOM     14  C   UNL d   1      15.465  15.086  -0.020  0.00  0.00     0.013 A 
ENDBRANCH   6   9
ENDBRANCH   1   6
BRANCH   2  15
ATOM     15  S   UNL d   1      14.132  12.591  -0.895  0.00  0.00    -0.049 SA
BRANCH  15  16
ATOM     16  C   UNL d   1      14.124  11.935  -1.399  0.00  0.00     0.038 C 
BRANCH  16  17
ATOM     17  C   UNL d   1      13.832  12.014  -2.174  0.00  0.00     0.007 A 
ATOM     18  C   UNL d   1      14.314  12.323  -2.778  0.00  0.00     0.001 A 
ATOM     19  C   UNL d   1      14.031  12.403  -3.545  0.00  0.00     0.000 A 
ATOM     20  C   UNL d   1      13.256  12.173  -3.718  0.00  0.00     0.000 A 
ATOM     21  C   UNL d   1      12.771  11.864  -3.118  0.00  0.00     0.000 A 
ATOM     22  C   UNL d   1      12.964  12.250  -4.485  0.00  0.00     0.000 C 
ATOM     23  C   UNL d   1      13.061  11.785  -2.349  0.00  0.00     0.001 A 
ENDBRANCH  16  17
ENDBRANCH  15  16
ENDBRANCH   2  15
TORSDOF 5
ENDMDL
