MODEL 1
REMARK VINA RESULT:       5.7      0.000      0.000
REMARK  1 active torsions:
REMARK  status: ('A' for Active; 'I' for Inactive)
REMARK    1  A    between atoms: C_6  and  C_1 
ROOT
ATOM      1  C   UNL d   1      43.590 -15.528  36.887  0.00  0.00     0.128 A 
ATOM      2  C   UNL d   1      43.929 -16.198  36.546  0.00  0.00     0.306 A 
ATOM      3  C   UNL d   1      44.070 -14.883  37.105  0.00  0.00     0.013 A 
ATOM      4  O   UNL d   1      44.750 -16.228  36.420  0.00  0.00    -0.273 OA
ATOM      5  C   UNL d   1      44.884 -14.919  36.977  0.00  0.00     0.023 A 
ATOM      6  C   UNL d   1      45.223 -15.590  36.636  0.00  0.00     0.103 A 
ATOM      7  O   UNL d   1      43.455 -16.836  36.330  0.00  0.00    -0.259 OA
ATOM      8  C   UNL d   1      45.359 -14.282  37.192  0.00  0.00     0.002 A 
ATOM      9  C   UNL d   1      46.037 -15.623  36.510  0.00  0.00     0.025 A 
ATOM     10  C   UNL d   1      46.172 -14.315  37.067  0.00  0.00     0.000 A 
ATOM     11  C   UNL d   1      46.510 -14.985  36.726  0.00  0.00     0.002 A 
ATOM     12  C   UNL d   1      46.646 -13.677  37.282  0.00  0.00     0.000 C 
ENDROOT
BRANCH   1  13
ATOM     13  C   UNL d   1      42.773 -15.497  37.012  0.00  0.00     0.216 C 
ATOM     14  O   UNL d   1      42.257 -15.550  36.371  0.00  0.00    -0.644 OA
ATOM     15  O   UNL d   1      42.476 -15.414  37.775  0.00  0.00    -0.644 OA
ENDBRANCH   1  13
TORSDOF 1
ENDMDL
MODEL 2
REMARK VINA RESULT:       6.3      1.352      2.989
REMARK  1 active torsions:
REMARK  status: ('A' for Active; 'I' for Inactive)
REMARK    1  A    between atoms: C_6  and  C_1 
ROOT
ATOM      1  C   UNL d   1      45.521 -14.700  36.914  0.00  0.00     0.128 A 
ATOM      2  C   UNL d   1      45.830 -15.439  36.714  0.00  0.00     0.306 A 
ATOM      3  C   UNL d   1      44.697 -14.581  36.920  0.00  0.00     0.013 A 
ATOM      4  O   UNL d   1      45.316 -16.062  36.518  0.00  0.00    -0.273 OA
ATOM      5  C   UNL d   1      44.193 -15.204  36.725  0.00  0.00     0.023 A 
ATOM      6  C   UNL d   1      44.501 -15.943  36.524  0.00  0.00     0.103 A 
ATOM      7  O   UNL d   1      46.644 -15.558  36.707  0.00  0.00    -0.259 OA
ATOM      8  C   UNL d   1      43.378 -15.086  36.731  0.00  0.00     0.002 A 
ATOM      9  C   UNL d   1      43.995 -16.563  36.330  0.00  0.00     0.025 A 
ATOM     10  C   UNL d   1      42.872 -15.705  36.537  0.00  0.00     0.000 A 
ATOM     11  C   UNL d   1      43.181 -16.444  36.336  0.00  0.00     0.002 A 
ATOM     12  C   UNL d   1      42.057 -15.587  36.543  0.00  0.00     0.000 C 
ENDROOT
BRANCH   1  13
ATOM     13  C   UNL d   1      46.031 -14.080  37.109  0.00  0.00     0.216 C 
ATOM     14  O   UNL d   1      46.647 -13.878  36.598  0.00  0.00    -0.644 OA
ATOM     15  O   UNL d   1      45.925 -13.664  37.811  0.00  0.00    -0.644 OA
ENDBRANCH   1  13
TORSDOF 1
ENDMDL
