MODEL 1
REMARK VINA RESULT:      -2.0      0.000      0.000
REMARK  5 active torsions:
REMARK  status: ('A' for Active; 'I' for Inactive)
REMARK    1  A    between atoms: N_8  and  C_1 
REMARK    2  A    between atoms: C_11  and  C_2 
REMARK    3  A    between atoms: C_4  and  C_6 
REMARK       I    between atoms: C_6  and  N_8 
REMARK    4  A    between atoms: O_17  and  C_11 
REMARK    5  A    between atoms: C_19  and  O_17 
ROOT
ATOM      1  C   UNL d   1      59.125   0.395  30.076  0.00  0.00     0.114 A 
ATOM      2  C   UNL d   1      58.017   0.190  30.775  0.00  0.00     0.094 A 
ATOM      3  S   UNL d   1      58.818   0.125  30.789  0.00  0.00    -0.062 SA
ATOM      4  C   UNL d   1      57.830   0.513  30.023  0.00  0.00     0.013 A 
ATOM      5  C   UNL d   1      58.490   0.628  29.622  0.00  0.00     0.027 A 
ATOM      6  C   UNL d   1      57.071   0.682  29.746  0.00  0.00     0.001 C 
ENDROOT
BRANCH   1   7
ATOM      7  N   UNL d   1      59.948   0.429  29.844  0.00  0.00    -0.201 NA
ATOM      8  C   UNL d   1      60.262  -0.168  29.382  0.00  0.00     0.286 C 
ATOM      9  O   UNL d   1      61.058  -0.128  29.162  0.00  0.00    -0.265 OA
BRANCH   8  10
ATOM     10  C   UNL d   1      59.788  -0.797  29.143  0.00  0.00     0.088 A 
ATOM     11  S   UNL d   1      59.748  -1.525  29.505  0.00  0.00    -0.071 SA
ATOM     12  C   UNL d   1      59.211  -1.986  29.093  0.00  0.00     0.087 A 
ATOM     13 CL   UNL d   1      59.028  -2.744  29.292  0.00  0.00    -0.075 Cl
ATOM     14  C   UNL d   1      58.916  -1.515  28.455  0.00  0.00     0.019 A 
ATOM     15  C   UNL d   1      59.270  -0.799  28.495  0.00  0.00     0.013 A 
ENDBRANCH   8  10
ENDBRANCH   1   7
BRANCH   2  16
ATOM     16  C   UNL d   1      57.482  -0.017  31.377  0.00  0.00     0.306 C 
ATOM     17  O   UNL d   1      56.922  -0.585  31.216  0.00  0.00    -0.258 OA
BRANCH  16  18
ATOM     18  O   UNL d   1      57.509   0.333  32.113  0.00  0.00    -0.271 OA
BRANCH  18  19
ATOM     19  C   UNL d   1      57.116  -0.004  32.749  0.00  0.00     0.126 C 
ATOM     20  C   UNL d   1      56.954   0.462  33.409  0.00  0.00     0.029 C 
ENDBRANCH  18  19
ENDBRANCH  16  18
ENDBRANCH   2  16
TORSDOF 5
ENDMDL
MODEL 2
REMARK VINA RESULT:      -0.6      1.434      1.927
REMARK  5 active torsions:
REMARK  status: ('A' for Active; 'I' for Inactive)
REMARK    1  A    between atoms: N_8  and  C_1 
REMARK    2  A    between atoms: C_11  and  C_2 
REMARK    3  A    between atoms: C_4  and  C_6 
REMARK       I    between atoms: C_6  and  N_8 
REMARK    4  A    between atoms: O_17  and  C_11 
REMARK    5  A    between atoms: C_19  and  O_17 
ROOT
ATOM      1  C   UNL d   1      57.416   0.443  30.641  0.00  0.00     0.114 A 
ATOM      2  C   UNL d   1      57.178  -0.135  31.810  0.00  0.00     0.094 A 
ATOM      3  S   UNL d   1      56.917  -0.063  31.053  0.00  0.00    -0.062 SA
ATOM      4  C   UNL d   1      57.864   0.348  31.859  0.00  0.00     0.013 A 
ATOM      5  C   UNL d   1      57.992   0.682  31.165  0.00  0.00     0.027 A 
ATOM      6  C   UNL d   1      58.331   0.455  32.530  0.00  0.00     0.001 C 
ENDROOT
BRANCH   1   7
ATOM      7  N   UNL d   1      57.352   0.681  29.821  0.00  0.00    -0.201 NA
ATOM      8  C   UNL d   1      57.886   0.391  29.275  0.00  0.00     0.286 C 
ATOM      9  O   UNL d   1      57.818   0.625  28.484  0.00  0.00    -0.265 OA
BRANCH   8  10
ATOM     10  C   UNL d   1      58.479  -0.128  29.513  0.00  0.00     0.088 A 
ATOM     11  S   UNL d   1      58.486  -0.931  29.386  0.00  0.00    -0.071 SA
ATOM     12  C   UNL d   1      59.174  -1.235  29.710  0.00  0.00     0.087 A 
ATOM     13 CL   UNL d   1      59.370  -2.015  29.690  0.00  0.00    -0.075 Cl
ATOM     14  C   UNL d   1      59.599  -0.586  30.047  0.00  0.00     0.019 A 
ATOM     15  C   UNL d   1      59.171   0.079  29.922  0.00  0.00     0.013 A 
ENDBRANCH   8  10
ENDBRANCH   1   7
BRANCH   2  16
ATOM     16  C   UNL d   1      56.844  -0.590  32.420  0.00  0.00     0.306 C 
ATOM     17  O   UNL d   1      57.007  -1.388  32.439  0.00  0.00    -0.258 OA
BRANCH  16  18
ATOM     18  O   UNL d   1      56.363  -0.258  32.989  0.00  0.00    -0.271 OA
BRANCH  18  19
ATOM     19  C   UNL d   1      55.628  -0.582  33.153  0.00  0.00     0.126 C 
ATOM     20  C   UNL d   1      55.070  -0.119  33.545  0.00  0.00     0.029 C 
ENDBRANCH  18  19
ENDBRANCH  16  18
ENDBRANCH   2  16
TORSDOF 5
ENDMDL
MODEL 3
REMARK VINA RESULT:      -0.6      1.761      3.513
REMARK  5 active torsions:
REMARK  status: ('A' for Active; 'I' for Inactive)
REMARK    1  A    between atoms: N_8  and  C_1 
REMARK    2  A    between atoms: C_11  and  C_2 
REMARK    3  A    between atoms: C_4  and  C_6 
REMARK       I    between atoms: C_6  and  N_8 
REMARK    4  A    between atoms: O_17  and  C_11 
REMARK    5  A    between atoms: C_19  and  O_17 
ROOT
ATOM      1  C   UNL d   1      58.600   0.228  31.033  0.00  0.00     0.114 A 
ATOM      2  C   UNL d   1      58.437  -0.480  29.924  0.00  0.00     0.094 A 
ATOM      3  S   UNL d   1      58.752  -0.490  30.663  0.00  0.00    -0.062 SA
ATOM      4  C   UNL d   1      58.080   0.276  29.841  0.00  0.00     0.013 A 
ATOM      5  C   UNL d   1      58.183   0.682  30.500  0.00  0.00     0.027 A 
ATOM      6  C   UNL d   1      57.682   0.550  29.172  0.00  0.00     0.001 C 
ENDROOT
BRANCH   1   7
ATOM      7  N   UNL d   1      58.831   0.465  31.822  0.00  0.00    -0.201 NA
ATOM      8  C   UNL d   1      58.279   0.451  32.424  0.00  0.00     0.286 C 
ATOM      9  O   UNL d   1      58.509   0.682  33.185  0.00  0.00    -0.265 OA
BRANCH   8  10
ATOM     10  C   UNL d   1      57.507   0.211  32.271  0.00  0.00     0.088 A 
ATOM     11  S   UNL d   1      57.201  -0.528  32.424  0.00  0.00    -0.071 SA
ATOM     12  C   UNL d   1      56.417  -0.533  32.189  0.00  0.00     0.087 A 
ATOM     13 CL   UNL d   1      55.935  -1.174  32.256  0.00  0.00    -0.075 Cl
ATOM     14  C   UNL d   1      56.243   0.235  31.881  0.00  0.00     0.019 A 
ATOM     15  C   UNL d   1      56.909   0.677  31.935  0.00  0.00     0.013 A 
ENDBRANCH   8  10
ENDBRANCH   1   7
BRANCH   2  16
ATOM     16  C   UNL d   1      58.457  -1.088  29.357  0.00  0.00     0.306 C 
ATOM     17  O   UNL d   1      58.299  -0.896  28.581  0.00  0.00    -0.258 OA
BRANCH  16  18
ATOM     18  O   UNL d   1      58.631  -1.858  29.559  0.00  0.00    -0.271 OA
BRANCH  18  19
ATOM     19  C   UNL d   1      58.825  -2.407  28.982  0.00  0.00     0.126 C 
ATOM     20  C   UNL d   1      59.279  -3.061  29.193  0.00  0.00     0.029 C 
ENDBRANCH  18  19
ENDBRANCH  16  18
ENDBRANCH   2  16
TORSDOF 5
ENDMDL
MODEL 4
REMARK VINA RESULT:      -0.4      1.767      3.699
REMARK  5 active torsions:
REMARK  status: ('A' for Active; 'I' for Inactive)
REMARK    1  A    between atoms: N_8  and  C_1 
REMARK    2  A    between atoms: C_11  and  C_2 
REMARK    3  A    between atoms: C_4  and  C_6 
REMARK       I    between atoms: C_6  and  N_8 
REMARK    4  A    between atoms: O_17  and  C_11 
REMARK    5  A    between atoms: C_19  and  O_17 
ROOT
ATOM      1  C   UNL d   1      59.132  -0.106  28.943  0.00  0.00     0.114 A 
ATOM      2  C   UNL d   1      60.111  -0.949  29.241  0.00  0.00     0.094 A 
ATOM      3  S   UNL d   1      59.351  -0.897  28.984  0.00  0.00    -0.062 SA
ATOM      4  C   UNL d   1      60.363  -0.157  29.361  0.00  0.00     0.013 A 
ATOM      5  C   UNL d   1      59.778   0.329  29.183  0.00  0.00     0.027 A 
ATOM      6  C   UNL d   1      61.109   0.077  29.626  0.00  0.00     0.001 C 
ENDROOT
BRANCH   1   7
ATOM      7  N   UNL d   1      58.376   0.212  28.699  0.00  0.00    -0.201 NA
ATOM      8  C   UNL d   1      57.790   0.332  29.256  0.00  0.00     0.286 C 
ATOM      9  O   UNL d   1      57.062   0.639  29.013  0.00  0.00    -0.265 OA
BRANCH   8  10
ATOM     10  C   UNL d   1      57.928   0.147  30.046  0.00  0.00     0.088 A 
ATOM     11  S   UNL d   1      58.103   0.682  30.634  0.00  0.00    -0.071 SA
ATOM     12  C   UNL d   1      58.199   0.269  31.335  0.00  0.00     0.087 A 
ATOM     13 CL   UNL d   1      58.376   0.617  32.038  0.00  0.00    -0.075 Cl
ATOM     14  C   UNL d   1      58.076  -0.550  31.161  0.00  0.00     0.019 A 
ATOM     15  C   UNL d   1      57.913  -0.612  30.379  0.00  0.00     0.013 A 
ENDBRANCH   8  10
ENDBRANCH   1   7
BRANCH   2  16
ATOM     16  C   UNL d   1      60.557  -1.639  29.364  0.00  0.00     0.306 C 
ATOM     17  O   UNL d   1      60.972  -1.712  30.061  0.00  0.00    -0.258 OA
BRANCH  16  18
ATOM     18  O   UNL d   1      60.587  -2.235  28.808  0.00  0.00    -0.271 OA
BRANCH  18  19
ATOM     19  C   UNL d   1      60.830  -2.989  29.019  0.00  0.00     0.126 C 
ATOM     20  C   UNL d   1      60.349  -3.630  28.824  0.00  0.00     0.029 C 
ENDBRANCH  18  19
ENDBRANCH  16  18
ENDBRANCH   2  16
TORSDOF 5
ENDMDL
MODEL 5
REMARK VINA RESULT:       0.9      8.980     10.146
REMARK  5 active torsions:
REMARK  status: ('A' for Active; 'I' for Inactive)
REMARK    1  A    between atoms: N_8  and  C_1 
REMARK    2  A    between atoms: C_11  and  C_2 
REMARK    3  A    between atoms: C_4  and  C_6 
REMARK       I    between atoms: C_6  and  N_8 
REMARK    4  A    between atoms: O_17  and  C_11 
REMARK    5  A    between atoms: C_19  and  O_17 
ROOT
ATOM      1  C   UNL d   1      59.427  -9.709  34.377  0.00  0.00     0.114 A 
ATOM      2  C   UNL d   1      59.655  -9.576  33.078  0.00  0.00     0.094 A 
ATOM      3  S   UNL d   1      59.083  -9.689  33.631  0.00  0.00    -0.062 SA
ATOM      4  C   UNL d   1      60.376  -9.525  33.505  0.00  0.00     0.013 A 
ATOM      5  C   UNL d   1      60.228  -9.605  34.268  0.00  0.00     0.027 A 
ATOM      6  C   UNL d   1      61.124  -9.410  33.177  0.00  0.00     0.001 C 
ENDROOT
BRANCH   1   7
ATOM      7  N   UNL d   1      59.033  -9.817  35.129  0.00  0.00    -0.201 NA
ATOM      8  C   UNL d   1      58.888  -9.168  35.605  0.00  0.00     0.286 C 
ATOM      9  O   UNL d   1      58.506  -9.280  36.330  0.00  0.00    -0.265 OA
BRANCH   8  10
ATOM     10  C   UNL d   1      59.120  -8.417  35.361  0.00  0.00     0.088 A 
ATOM     11  S   UNL d   1      59.706  -7.968  35.702  0.00  0.00    -0.071 SA
ATOM     12  C   UNL d   1      59.758  -7.262  35.291  0.00  0.00     0.087 A 
ATOM     13 CL   UNL d   1      60.280  -6.677  35.473  0.00  0.00    -0.075 Cl
ATOM     14  C   UNL d   1      59.177  -7.286  34.677  0.00  0.00     0.019 A 
ATOM     15  C   UNL d   1      58.797  -7.989  34.727  0.00  0.00     0.013 A 
ENDBRANCH   8  10
ENDBRANCH   1   7
BRANCH   2  16
ATOM     16  C   UNL d   1      59.557  -9.520  32.254  0.00  0.00     0.306 C 
ATOM     17  O   UNL d   1      60.195  -9.284  31.806  0.00  0.00    -0.258 OA
BRANCH  16  18
ATOM     18  O   UNL d   1      58.847  -9.694  31.893  0.00  0.00    -0.271 OA
BRANCH  18  19
ATOM     19  C   UNL d   1      58.724  -9.507  31.104  0.00  0.00     0.126 C 
ATOM     20  C   UNL d   1      58.026  -9.754  30.742  0.00  0.00     0.029 C 
ENDBRANCH  18  19
ENDBRANCH  16  18
ENDBRANCH   2  16
TORSDOF 5
ENDMDL
