MODEL 1
REMARK VINA RESULT:      -7.7      0.000      0.000
REMARK  6 active torsions:
REMARK  status: ('A' for Active; 'I' for Inactive)
REMARK    1  A    between atoms: N_2  and  S_1 
REMARK    2  A    between atoms: C_4  and  S_1 
REMARK    3  A    between atoms: C_3  and  N_2 
REMARK    4  A    between atoms: N_7  and  C_3 
REMARK    5  A    between atoms: C_14  and  N_7 
REMARK    6  A    between atoms: C_15  and  C_13 
ROOT
ATOM      1  S   UNL d   1      51.041  34.031  52.821  0.00  0.00     0.287 S 
ATOM      2  O   UNL d   1      50.591  33.611  53.383  0.00  0.00    -0.198 OA
ATOM      3  O   UNL d   1      51.486  34.446  52.264  0.00  0.00    -0.198 OA
ENDROOT
BRANCH   1   4
ATOM      4  N   UNL d   1      51.739  33.768  53.183  0.00  0.00    -0.128 NA
BRANCH   4   5
ATOM      5  C   UNL d   1      52.438  33.336  53.138  0.00  0.00     0.232 C 
ATOM      6  S   UNL d   1      52.415  32.527  52.981  0.00  0.00    -0.036 SA
BRANCH   5   7
ATOM      7  N   UNL d   1      53.162  33.715  53.251  0.00  0.00    -0.217 NA
BRANCH   7   8
ATOM      8  C   UNL d   1      53.619  33.530  53.912  0.00  0.00     0.084 A 
ATOM      9  C   UNL d   1      53.673  34.070  54.532  0.00  0.00     0.019 A 
ATOM     10  C   UNL d   1      54.129  33.889  55.194  0.00  0.00     0.002 A 
ATOM     11  C   UNL d   1      54.529  33.173  55.235  0.00  0.00     0.000 A 
ATOM     12  C   UNL d   1      54.475  32.635  54.616  0.00  0.00     0.002 A 
ATOM     13  C   UNL d   1      54.021  32.811  53.954  0.00  0.00     0.019 A 
ENDBRANCH   7   8
ENDBRANCH   5   7
ENDBRANCH   4   5
ENDBRANCH   1   4
BRANCH   1  14
ATOM     14  C   UNL d   1      50.339  34.294  52.457  0.00  0.00     0.105 A 
ATOM     15  C   UNL d   1      49.799  34.741  52.891  0.00  0.00     0.013 A 
ATOM     16  C   UNL d   1      49.095  35.008  52.534  0.00  0.00     0.001 A 
ATOM     17  C   UNL d   1      48.937  34.821  51.737  0.00  0.00     0.000 A 
ATOM     18  C   UNL d   1      49.484  34.371  51.306  0.00  0.00     0.001 A 
ATOM     19  C   UNL d   1      50.181  34.108  51.659  0.00  0.00     0.013 A 
BRANCH  17  20
ATOM     20  C   UNL d   1      48.241  35.084  51.380  0.00  0.00     0.000 C 
ATOM     21  C   UNL d   1      47.552  35.474  51.636  0.00  0.00     0.000 C 
ENDBRANCH  17  20
ENDBRANCH   1  14
TORSDOF 6
ENDMDL
MODEL 2
REMARK VINA RESULT:      -7.0      2.081      4.976
REMARK  6 active torsions:
REMARK  status: ('A' for Active; 'I' for Inactive)
REMARK    1  A    between atoms: N_2  and  S_1 
REMARK    2  A    between atoms: C_4  and  S_1 
REMARK    3  A    between atoms: C_3  and  N_2 
REMARK    4  A    between atoms: N_7  and  C_3 
REMARK    5  A    between atoms: C_14  and  N_7 
REMARK    6  A    between atoms: C_15  and  C_13 
ROOT
ATOM      1  S   UNL d   1      52.556  32.024  52.979  0.00  0.00     0.287 S 
ATOM      2  O   UNL d   1      51.807  31.869  53.313  0.00  0.00    -0.198 OA
ATOM      3  O   UNL d   1      53.296  32.178  52.649  0.00  0.00    -0.198 OA
ENDROOT
BRANCH   1   4
ATOM      4  N   UNL d   1      52.284  32.761  52.712  0.00  0.00    -0.128 NA
BRANCH   4   5
ATOM      5  C   UNL d   1      52.147  33.559  52.862  0.00  0.00     0.232 C 
ATOM      6  S   UNL d   1      52.311  33.875  53.606  0.00  0.00    -0.036 SA
BRANCH   5   7
ATOM      7  N   UNL d   1      51.845  34.041  52.266  0.00  0.00    -0.217 NA
BRANCH   7   8
ATOM      8  C   UNL d   1      51.048  34.256  52.280  0.00  0.00     0.084 A 
ATOM      9  C   UNL d   1      50.583  34.140  51.610  0.00  0.00     0.019 A 
ATOM     10  C   UNL d   1      49.788  34.354  51.621  0.00  0.00     0.002 A 
ATOM     11  C   UNL d   1      49.459  34.681  52.299  0.00  0.00     0.000 A 
ATOM     12  C   UNL d   1      49.924  34.796  52.968  0.00  0.00     0.002 A 
ATOM     13  C   UNL d   1      50.717  34.584  52.961  0.00  0.00     0.019 A 
ENDBRANCH   7   8
ENDBRANCH   5   7
ENDBRANCH   4   5
ENDBRANCH   1   4
BRANCH   1  14
ATOM     14  C   UNL d   1      52.829  31.284  53.248  0.00  0.00     0.105 A 
ATOM     15  C   UNL d   1      53.428  31.253  53.813  0.00  0.00     0.013 A 
ATOM     16  C   UNL d   1      53.706  30.516  54.087  0.00  0.00     0.001 A 
ATOM     17  C   UNL d   1      53.377  29.810  53.788  0.00  0.00     0.000 A 
ATOM     18  C   UNL d   1      52.774  29.849  53.220  0.00  0.00     0.001 A 
ATOM     19  C   UNL d   1      52.499  30.578  52.949  0.00  0.00     0.013 A 
BRANCH  17  20
ATOM     20  C   UNL d   1      53.650  29.079  54.056  0.00  0.00     0.000 C 
ATOM     21  C   UNL d   1      53.542  28.621  54.741  0.00  0.00     0.000 C 
ENDBRANCH  17  20
ENDBRANCH   1  14
TORSDOF 6
ENDMDL
MODEL 3
REMARK VINA RESULT:      -6.9      0.909      5.025
REMARK  6 active torsions:
REMARK  status: ('A' for Active; 'I' for Inactive)
REMARK    1  A    between atoms: N_2  and  S_1 
REMARK    2  A    between atoms: C_4  and  S_1 
REMARK    3  A    between atoms: C_3  and  N_2 
REMARK    4  A    between atoms: N_7  and  C_3 
REMARK    5  A    between atoms: C_14  and  N_7 
REMARK    6  A    between atoms: C_15  and  C_13 
ROOT
ATOM      1  S   UNL d   1      51.929  34.222  53.438  0.00  0.00     0.287 S 
ATOM      2  O   UNL d   1      51.578  33.521  53.723  0.00  0.00    -0.198 OA
ATOM      3  O   UNL d   1      52.277  34.916  53.157  0.00  0.00    -0.198 OA
ENDROOT
BRANCH   1   4
ATOM      4  N   UNL d   1      51.213  34.434  53.078  0.00  0.00    -0.128 NA
BRANCH   4   5
ATOM      5  C   UNL d   1      50.635  34.279  52.513  0.00  0.00     0.232 C 
ATOM      6  S   UNL d   1      50.838  34.228  51.715  0.00  0.00    -0.036 SA
BRANCH   5   7
ATOM      7  N   UNL d   1      49.851  34.175  52.747  0.00  0.00    -0.217 NA
BRANCH   7   8
ATOM      8  C   UNL d   1      49.265  34.664  52.435  0.00  0.00     0.084 A 
ATOM      9  C   UNL d   1      48.955  35.272  52.896  0.00  0.00     0.019 A 
ATOM     10  C   UNL d   1      48.369  35.762  52.587  0.00  0.00     0.002 A 
ATOM     11  C   UNL d   1      48.095  35.644  51.823  0.00  0.00     0.000 A 
ATOM     12  C   UNL d   1      48.404  35.036  51.363  0.00  0.00     0.002 A 
ATOM     13  C   UNL d   1      48.989  34.545  51.667  0.00  0.00     0.019 A 
ENDBRANCH   7   8
ENDBRANCH   5   7
ENDBRANCH   4   5
ENDBRANCH   1   4
BRANCH   1  14
ATOM     14  C   UNL d   1      52.649  34.008  53.802  0.00  0.00     0.105 A 
ATOM     15  C   UNL d   1      53.043  33.329  53.551  0.00  0.00     0.013 A 
ATOM     16  C   UNL d   1      53.763  33.108  53.910  0.00  0.00     0.001 A 
ATOM     17  C   UNL d   1      54.083  33.576  54.521  0.00  0.00     0.000 A 
ATOM     18  C   UNL d   1      53.681  34.258  54.768  0.00  0.00     0.001 A 
ATOM     19  C   UNL d   1      52.969  34.476  54.413  0.00  0.00     0.013 A 
BRANCH  17  20
ATOM     20  C   UNL d   1      54.795  33.361  54.878  0.00  0.00     0.000 C 
ATOM     21  C   UNL d   1      55.393  33.759  55.298  0.00  0.00     0.000 C 
ENDBRANCH  17  20
ENDBRANCH   1  14
TORSDOF 6
ENDMDL
