MODEL 1
REMARK VINA RESULT:      -8.9      0.000      0.000
REMARK  5 active torsions:
REMARK  status: ('A' for Active; 'I' for Inactive)
REMARK    1  A    between atoms: C_2  and  C_1 
REMARK    2  A    between atoms: C_16  and  C_8 
REMARK    3  A    between atoms: N_15  and  C_13 
REMARK    4  A    between atoms: C_19  and  N_15 
REMARK    5  A    between atoms: C_20  and  N_15 
ROOT
ATOM      1  C   UNL d   1      50.627  34.252  52.862  0.00  0.00     0.106 A 
ATOM      2  C   UNL d   1      50.648  33.465  53.097  0.00  0.00     0.304 A 
ATOM      3  C   UNL d   1      51.309  34.721  52.946  0.00  0.00     0.011 A 
ATOM      4  O   UNL d   1      51.351  33.117  53.425  0.00  0.00    -0.273 OA
ATOM      5  C   UNL d   1      52.022  33.620  53.496  0.00  0.00     0.105 A 
ATOM      6  C   UNL d   1      52.001  34.407  53.261  0.00  0.00     0.023 A 
ATOM      7  C   UNL d   1      52.725  33.272  53.824  0.00  0.00     0.042 A 
ATOM      8  C   UNL d   1      53.400  33.776  53.896  0.00  0.00     0.066 A 
ATOM      9  O   UNL d   1      49.942  32.983  53.008  0.00  0.00    -0.259 OA
ATOM     10  C   UNL d   1      52.683  34.877  53.345  0.00  0.00     0.004 A 
ATOM     11  C   UNL d   1      53.380  34.563  53.661  0.00  0.00     0.018 A 
ENDROOT
BRANCH   1  12
ATOM     12  C   UNL d   1      49.925  34.564  52.544  0.00  0.00     0.210 A 
ATOM     13  O   UNL d   1      49.357  35.051  52.907  0.00  0.00    -0.268 OA
ATOM     14  C   UNL d   1      48.771  35.200  52.345  0.00  0.00     0.204 A 
ATOM     15  N   UNL d   1      48.968  34.815  51.647  0.00  0.00    -0.121 NA
ATOM     16  N   UNL d   1      49.682  34.418  51.760  0.00  0.00    -0.121 NA
BRANCH  14  17
ATOM     17  C   UNL d   1      48.082  35.643  52.398  0.00  0.00     0.043 A 
ATOM     18  C   UNL d   1      47.531  35.619  51.789  0.00  0.00     0.004 A 
ATOM     19  C   UNL d   1      46.843  36.065  51.846  0.00  0.00     0.000 A 
ATOM     20  C   UNL d   1      46.696  36.540  52.508  0.00  0.00     0.000 A 
ATOM     21  C   UNL d   1      47.245  36.562  53.112  0.00  0.00     0.000 A 
ATOM     22  C   UNL d   1      47.942  36.111  53.054  0.00  0.00     0.004 A 
ENDBRANCH  14  17
ENDBRANCH   1  12
BRANCH   8  23
ATOM     23  N   UNL d   1      54.149  33.459  54.230  0.00  0.00    -0.304 N 
BRANCH  23  24
ATOM     24  C   UNL d   1      54.468  33.840  54.908  0.00  0.00     0.080 C 
ATOM     25  C   UNL d   1      54.816  33.422  55.523  0.00  0.00     0.021 C 
ENDBRANCH  23  24
BRANCH  23  26
ATOM     26  C   UNL d   1      54.520  32.811  53.886  0.00  0.00     0.080 C 
ATOM     27  C   UNL d   1      55.251  32.912  53.494  0.00  0.00     0.021 C 
ENDBRANCH  23  26
ENDBRANCH   8  23
TORSDOF 5
ENDMDL
MODEL 2
REMARK VINA RESULT:      -6.9      1.442      2.564
REMARK  5 active torsions:
REMARK  status: ('A' for Active; 'I' for Inactive)
REMARK    1  A    between atoms: C_2  and  C_1 
REMARK    2  A    between atoms: C_16  and  C_8 
REMARK    3  A    between atoms: N_15  and  C_13 
REMARK    4  A    between atoms: C_19  and  N_15 
REMARK    5  A    between atoms: C_20  and  N_15 
ROOT
ATOM      1  C   UNL d   1      48.704  35.313  52.498  0.00  0.00     0.106 A 
ATOM      2  C   UNL d   1      48.929  35.473  53.272  0.00  0.00     0.304 A 
ATOM      3  C   UNL d   1      49.216  34.880  52.005  0.00  0.00     0.011 A 
ATOM      4  O   UNL d   1      49.674  35.207  53.583  0.00  0.00    -0.273 OA
ATOM      5  C   UNL d   1      50.167  34.772  53.057  0.00  0.00     0.105 A 
ATOM      6  C   UNL d   1      49.942  34.612  52.283  0.00  0.00     0.023 A 
ATOM      7  C   UNL d   1      50.912  34.505  53.368  0.00  0.00     0.042 A 
ATOM      8  C   UNL d   1      51.409  34.068  52.842  0.00  0.00     0.066 A 
ATOM      9  O   UNL d   1      48.397  35.921  53.778  0.00  0.00    -0.259 OA
ATOM     10  C   UNL d   1      50.454  34.179  51.790  0.00  0.00     0.004 A 
ATOM     11  C   UNL d   1      51.184  33.908  52.067  0.00  0.00     0.018 A 
ENDROOT
BRANCH   1  12
ATOM     12  C   UNL d   1      47.969  35.587  52.221  0.00  0.00     0.210 A 
ATOM     13  O   UNL d   1      47.256  35.169  52.126  0.00  0.00    -0.268 OA
ATOM     14  C   UNL d   1      46.700  35.703  51.835  0.00  0.00     0.204 A 
ATOM     15  N   UNL d   1      47.055  36.438  51.750  0.00  0.00    -0.121 NA
ATOM     16  N   UNL d   1      47.842  36.377  51.987  0.00  0.00    -0.121 NA
BRANCH  14  17
ATOM     17  C   UNL d   1      45.909  35.596  51.639  0.00  0.00     0.043 A 
ATOM     18  C   UNL d   1      45.661  35.699  50.862  0.00  0.00     0.004 A 
ATOM     19  C   UNL d   1      44.869  35.591  50.672  0.00  0.00     0.000 A 
ATOM     20  C   UNL d   1      44.315  35.380  51.250  0.00  0.00     0.000 A 
ATOM     21  C   UNL d   1      44.564  35.279  52.021  0.00  0.00     0.000 A 
ATOM     22  C   UNL d   1      45.366  35.388  52.214  0.00  0.00     0.004 A 
ENDBRANCH  14  17
ENDBRANCH   1  12
BRANCH   8  23
ATOM     23  N   UNL d   1      52.189  33.773  53.120  0.00  0.00    -0.304 N 
BRANCH  23  24
ATOM     24  C   UNL d   1      52.263  32.951  53.276  0.00  0.00     0.080 C 
ATOM     25  C   UNL d   1      52.941  32.528  53.087  0.00  0.00     0.021 C 
ENDBRANCH  23  24
BRANCH  23  26
ATOM     26  C   UNL d   1      52.820  34.289  53.222  0.00  0.00     0.080 C 
ATOM     27  C   UNL d   1      53.247  34.285  53.941  0.00  0.00     0.021 C 
ENDBRANCH  23  26
ENDBRANCH   8  23
TORSDOF 5
ENDMDL
