MODEL 1
REMARK VINA RESULT:      71.0      0.000      0.000
REMARK  9 active torsions:
REMARK  status: ('A' for Active; 'I' for Inactive)
REMARK    1  A    between atoms: C_5  and  C_1 
REMARK    2  A    between atoms: C_10  and  C_2 
REMARK    3  A    between atoms: S_11  and  C_3 
REMARK    4  A    between atoms: C_9  and  C_4 
REMARK       I    between atoms: N_8  and  C_5 
REMARK    5  A    between atoms: C_13  and  N_8 
REMARK    6  A    between atoms: C_18  and  S_11 
REMARK    7  A    between atoms: C_16  and  C_18 
REMARK    8  A    between atoms: C_23  and  C_16 
REMARK    9  A    between atoms: O_25  and  C_20 
ROOT
ATOM      1  C   UNL d   1      13.884  14.019  -3.198  0.00  0.00     0.077 A 
ATOM      2  C   UNL d   1      13.717  14.288  -4.589  0.00  0.00     0.047 A 
ATOM      3  C   UNL d   1      13.991  15.062  -4.472  0.00  0.00     0.112 A 
ATOM      4  C   UNL d   1      13.663  13.766  -3.952  0.00  0.00     0.032 A 
ATOM      5  C   UNL d   1      14.158  14.793  -3.082  0.00  0.00     0.087 A 
ATOM      6  N   UNL d   1      14.211  15.314  -3.718  0.00  0.00    -0.239 NA
ATOM      7  C   UNL d   1      14.384  15.059  -2.320  0.00  0.00     0.021 C 
ENDROOT
BRANCH   1   8
ATOM      8  C   UNL d   1      13.825  13.480  -2.558  0.00  0.00     0.281 C 
ATOM      9  N   UNL d   1      14.478  13.346  -2.084  0.00  0.00    -0.206 NA
ATOM     10  O   UNL d   1      13.119  13.096  -2.414  0.00  0.00    -0.265 OA
BRANCH   9  11
ATOM     11  C   UNL d   1      14.428  12.823  -1.459  0.00  0.00     0.107 A 
ATOM     12  C   UNL d   1      15.068  12.358  -1.251  0.00  0.00     0.112 A 
ATOM     13  C   UNL d   1      14.999  11.835  -0.617  0.00  0.00     0.026 A 
ATOM     14  C   UNL d   1      14.281  11.783  -0.194  0.00  0.00     0.002 A 
ATOM     15  C   UNL d   1      13.644  12.250  -0.407  0.00  0.00     0.002 A 
ATOM     16  C   UNL d   1      13.712  12.774  -1.041  0.00  0.00     0.021 A 
BRANCH  12  17
ATOM     17  O   UNL d   1      15.791  12.402  -1.667  0.00  0.00    -0.327 OA
ATOM     18  C   UNL d   1      16.550  11.780  -1.798  0.00  0.00     0.181 C 
ENDBRANCH  12  17
ENDBRANCH   9  11
ENDBRANCH   1   8
BRANCH   4  19
ATOM     19  C   UNL d   1      13.387  12.987  -4.069  0.00  0.00     0.100 A 
ATOM     20  O   UNL d   1      13.729  12.515  -4.649  0.00  0.00    -0.305 OA
ATOM     21  C   UNL d   1      13.339  11.779  -4.630  0.00  0.00     0.123 A 
ATOM     22  C   UNL d   1      12.776  11.798  -4.060  0.00  0.00     0.029 A 
ATOM     23  C   UNL d   1      12.786  12.528  -3.702  0.00  0.00     0.027 A 
ENDBRANCH   4  19
BRANCH   2  24
ATOM     24  C   UNL d   1      13.489  14.021  -5.356  0.00  0.00     0.124 C 
ATOM     25  N   UNL d   1      14.008  14.088  -5.983  0.00  0.00    -0.146 N 
ENDBRANCH   2  24
BRANCH   3  26
ATOM     26  S   UNL d   1      14.048  15.600  -5.118  0.00  0.00    -0.064 SA
BRANCH  26  27
ATOM     27  C   UNL d   1      14.015  16.405  -4.984  0.00  0.00     0.079 C 
BRANCH  27  28
ATOM     28  C   UNL d   1      13.913  16.903  -5.612  0.00  0.00     0.202 C 
ATOM     29  O   UNL d   1      13.576  16.612  -6.314  0.00  0.00    -0.286 OA
BRANCH  28  30
ATOM     30  C   UNL d   1      14.140  17.687  -5.558  0.00  0.00     0.040 A 
ATOM     31  C   UNL d   1      14.779  17.905  -5.075  0.00  0.00     0.003 A 
ATOM     32  C   UNL d   1      15.011  18.694  -5.018  0.00  0.00     0.000 A 
ATOM     33  C   UNL d   1      14.585  19.282  -5.460  0.00  0.00     0.000 A 
ATOM     34  C   UNL d   1      13.953  19.044  -5.934  0.00  0.00     0.000 A 
ATOM     35  C   UNL d   1      13.730  18.258  -5.984  0.00  0.00     0.003 A 
ENDBRANCH  28  30
ENDBRANCH  27  28
ENDBRANCH  26  27
ENDBRANCH   3  26
TORSDOF 9
ENDMDL
