MODEL 1
REMARK VINA RESULT:      -2.9      0.000      0.000
REMARK  2 active torsions:
REMARK  status: ('A' for Active; 'I' for Inactive)
REMARK    1  A    between atoms: N_9  and  C_3 
REMARK    2  A    between atoms: C_11  and  C_4 
ROOT
ATOM      1  N   UNL d   1      31.162  17.467 -24.155  0.00  0.00    -0.196 N 
ATOM      2  C   UNL d   1      30.740  16.775 -24.031  0.00  0.00     0.167 A 
ATOM      3  C   UNL d   1      31.969  17.499 -23.984  0.00  0.00     0.153 A 
ATOM      4  C   UNL d   1      29.961  16.909 -24.248  0.00  0.00     0.057 A 
ATOM      5  N   UNL d   1      30.645  18.031 -24.449  0.00  0.00    -0.161 NA
ATOM      6  N   UNL d   1      31.119  16.105 -23.734  0.00  0.00    -0.227 NA
ATOM      7  C   UNL d   1      32.350  16.827 -23.686  0.00  0.00     0.057 A 
ATOM      8  C   UNL d   1      29.902  17.680 -24.505  0.00  0.00     0.124 A 
ATOM      9  C   UNL d   1      31.928  16.135 -23.562  0.00  0.00     0.086 A 
ATOM     10  C   UNL d   1      32.320  15.462 -23.261  0.00  0.00     0.021 C 
ENDROOT
BRANCH   3  11
ATOM     11  N   UNL d   1      32.391  18.191 -24.108  0.00  0.00    -0.285 N 
ATOM     12  C   UNL d   1      32.494  18.733 -23.490  0.00  0.00     0.108 A 
ATOM     13  C   UNL d   1      32.918  19.428 -23.615  0.00  0.00     0.142 A 
ATOM     14  O   UNL d   1      33.241  19.586 -24.358  0.00  0.00    -0.300 OA
ATOM     15  C   UNL d   1      33.139  19.050 -24.974  0.00  0.00     0.142 A 
ATOM     16  C   UNL d   1      32.716  18.354 -24.850  0.00  0.00     0.108 A 
ENDBRANCH   3  11
BRANCH   4  17
ATOM     17  C   UNL d   1      29.295  16.425 -24.244  0.00  0.00     0.004 A 
ATOM     18  C   UNL d   1      29.106  15.959 -24.909  0.00  0.00     0.000 A 
ATOM     19  C   UNL d   1      28.440  15.479 -24.898  0.00  0.00     0.000 A 
ATOM     20  C   UNL d   1      27.950  15.453 -24.227  0.00  0.00     0.000 A 
ATOM     21  C   UNL d   1      28.138  15.914 -23.569  0.00  0.00     0.000 A 
ATOM     22  C   UNL d   1      28.809  16.400 -23.575  0.00  0.00     0.000 A 
ENDBRANCH   4  17
TORSDOF 2
ENDMDL
MODEL 2
REMARK VINA RESULT:      -1.4      1.605      4.007
REMARK  2 active torsions:
REMARK  status: ('A' for Active; 'I' for Inactive)
REMARK    1  A    between atoms: N_9  and  C_3 
REMARK    2  A    between atoms: C_11  and  C_4 
ROOT
ATOM      1  N   UNL d   1      30.495  16.988 -24.252  0.00  0.00    -0.196 N 
ATOM      2  C   UNL d   1      31.272  17.234 -24.157  0.00  0.00     0.167 A 
ATOM      3  C   UNL d   1      30.266  16.232 -24.011  0.00  0.00     0.153 A 
ATOM      4  C   UNL d   1      31.333  18.000 -24.443  0.00  0.00     0.057 A 
ATOM      5  N   UNL d   1      30.074  17.600 -24.598  0.00  0.00    -0.161 NA
ATOM      6  N   UNL d   1      31.830  16.729 -23.819  0.00  0.00    -0.227 NA
ATOM      7  C   UNL d   1      30.825  15.724 -23.672  0.00  0.00     0.057 A 
ATOM      8  C   UNL d   1      30.599  18.225 -24.714  0.00  0.00     0.124 A 
ATOM      9  C   UNL d   1      31.601  15.971 -23.577  0.00  0.00     0.086 A 
ATOM     10  C   UNL d   1      32.159  15.453 -23.234  0.00  0.00     0.021 C 
ENDROOT
BRANCH   3  11
ATOM     11  N   UNL d   1      29.490  15.986 -24.107  0.00  0.00    -0.285 N 
ATOM     12  C   UNL d   1      29.227  15.710 -24.843  0.00  0.00     0.108 A 
ATOM     13  C   UNL d   1      28.447  15.462 -24.939  0.00  0.00     0.142 A 
ATOM     14  O   UNL d   1      27.925  15.489 -24.299  0.00  0.00    -0.300 OA
ATOM     15  C   UNL d   1      28.183  15.763 -23.567  0.00  0.00     0.142 A 
ATOM     16  C   UNL d   1      28.963  16.011 -23.471  0.00  0.00     0.108 A 
ENDBRANCH   3  11
BRANCH   4  17
ATOM     17  C   UNL d   1      31.967  18.523 -24.492  0.00  0.00     0.004 A 
ATOM     18  C   UNL d   1      32.571  18.406 -25.055  0.00  0.00     0.000 A 
ATOM     19  C   UNL d   1      33.200  18.932 -25.097  0.00  0.00     0.000 A 
ATOM     20  C   UNL d   1      33.241  19.582 -24.582  0.00  0.00     0.000 A 
ATOM     21  C   UNL d   1      32.643  19.698 -24.025  0.00  0.00     0.000 A 
ATOM     22  C   UNL d   1      32.006  19.171 -23.978  0.00  0.00     0.000 A 
ENDBRANCH   4  17
TORSDOF 2
ENDMDL
MODEL 3
REMARK VINA RESULT:      -0.2      3.365      6.037
REMARK  2 active torsions:
REMARK  status: ('A' for Active; 'I' for Inactive)
REMARK    1  A    between atoms: N_9  and  C_3 
REMARK    2  A    between atoms: C_11  and  C_4 
ROOT
ATOM      1  N   UNL d   1      32.782  20.806 -22.194  0.00  0.00    -0.196 N 
ATOM      2  C   UNL d   1      32.783  21.608 -22.022  0.00  0.00     0.167 A 
ATOM      3  C   UNL d   1      32.933  20.546 -22.963  0.00  0.00     0.153 A 
ATOM      4  C   UNL d   1      32.618  21.697 -21.224  0.00  0.00     0.057 A 
ATOM      5  N   UNL d   1      32.617  20.397 -21.504  0.00  0.00    -0.161 NA
ATOM      6  N   UNL d   1      32.935  22.161 -22.615  0.00  0.00    -0.227 NA
ATOM      7  C   UNL d   1      33.086  21.100 -23.559  0.00  0.00     0.057 A 
ATOM      8  C   UNL d   1      32.516  20.955 -20.905  0.00  0.00     0.124 A 
ATOM      9  C   UNL d   1      33.086  21.902 -23.387  0.00  0.00     0.086 A 
ATOM     10  C   UNL d   1      33.241  22.454 -23.994  0.00  0.00     0.021 C 
ENDROOT
BRANCH   3  11
ATOM     11  N   UNL d   1      32.933  19.745 -23.135  0.00  0.00    -0.285 N 
ATOM     12  C   UNL d   1      33.177  19.195 -22.565  0.00  0.00     0.108 A 
ATOM     13  C   UNL d   1      33.176  18.390 -22.739  0.00  0.00     0.142 A 
ATOM     14  O   UNL d   1      32.931  18.129 -23.483  0.00  0.00    -0.300 OA
ATOM     15  C   UNL d   1      32.688  18.673 -24.052  0.00  0.00     0.142 A 
ATOM     16  C   UNL d   1      32.689  19.478 -23.878  0.00  0.00     0.108 A 
ENDBRANCH   3  11
BRANCH   4  17
ATOM     17  C   UNL d   1      32.547  22.363 -20.744  0.00  0.00     0.004 A 
ATOM     18  C   UNL d   1      31.918  22.899 -20.854  0.00  0.00     0.000 A 
ATOM     19  C   UNL d   1      31.855  23.561 -20.372  0.00  0.00     0.000 A 
ATOM     20  C   UNL d   1      32.414  23.702 -19.774  0.00  0.00     0.000 A 
ATOM     21  C   UNL d   1      33.037  23.171 -19.667  0.00  0.00     0.000 A 
ATOM     22  C   UNL d   1      33.106  22.502 -20.149  0.00  0.00     0.000 A 
ENDBRANCH   4  17
TORSDOF 2
ENDMDL
MODEL 4
REMARK VINA RESULT:      -0.1      2.144      4.351
REMARK  2 active torsions:
REMARK  status: ('A' for Active; 'I' for Inactive)
REMARK    1  A    between atoms: N_9  and  C_3 
REMARK    2  A    between atoms: C_11  and  C_4 
ROOT
ATOM      1  N   UNL d   1      29.479  16.282 -23.858  0.00  0.00    -0.196 N 
ATOM      2  C   UNL d   1      30.167  16.628 -24.141  0.00  0.00     0.167 A 
ATOM      3  C   UNL d   1      28.749  16.645 -23.983  0.00  0.00     0.153 A 
ATOM      4  C   UNL d   1      30.798  16.147 -23.936  0.00  0.00     0.057 A 
ATOM      5  N   UNL d   1      29.683  15.586 -23.476  0.00  0.00    -0.161 NA
ATOM      6  N   UNL d   1      30.133  17.342 -24.554  0.00  0.00    -0.227 NA
ATOM      7  C   UNL d   1      28.713  17.361 -24.397  0.00  0.00     0.057 A 
ATOM      8  C   UNL d   1      30.502  15.508 -23.527  0.00  0.00     0.124 A 
ATOM      9  C   UNL d   1      29.400  17.707 -24.680  0.00  0.00     0.086 A 
ATOM     10  C   UNL d   1      29.356  18.429 -25.097  0.00  0.00     0.021 C 
ENDROOT
BRANCH   3  11
ATOM     11  N   UNL d   1      28.061  16.299 -23.699  0.00  0.00    -0.285 N 
ATOM     12  C   UNL d   1      27.810  16.447 -22.923  0.00  0.00     0.108 A 
ATOM     13  C   UNL d   1      27.119  16.099 -22.638  0.00  0.00     0.142 A 
ATOM     14  O   UNL d   1      26.676  15.601 -23.127  0.00  0.00    -0.300 OA
ATOM     15  C   UNL d   1      26.925  15.453 -23.897  0.00  0.00     0.142 A 
ATOM     16  C   UNL d   1      27.615  15.800 -24.183  0.00  0.00     0.108 A 
ENDBRANCH   3  11
BRANCH   4  17
ATOM     17  C   UNL d   1      31.608  16.211 -24.070  0.00  0.00     0.004 A 
ATOM     18  C   UNL d   1      31.967  15.802 -24.701  0.00  0.00     0.000 A 
ATOM     19  C   UNL d   1      32.775  15.871 -24.827  0.00  0.00     0.000 A 
ATOM     20  C   UNL d   1      33.241  16.346 -24.330  0.00  0.00     0.000 A 
ATOM     21  C   UNL d   1      32.885  16.750 -23.705  0.00  0.00     0.000 A 
ATOM     22  C   UNL d   1      32.070  16.685 -23.572  0.00  0.00     0.000 A 
ENDBRANCH   4  17
TORSDOF 2
ENDMDL
MODEL 5
REMARK VINA RESULT:      -0.0      3.492      5.150
REMARK  2 active torsions:
REMARK  status: ('A' for Active; 'I' for Inactive)
REMARK    1  A    between atoms: N_9  and  C_3 
REMARK    2  A    between atoms: C_11  and  C_4 
ROOT
ATOM      1  N   UNL d   1      32.810  21.036 -22.030  0.00  0.00    -0.196 N 
ATOM      2  C   UNL d   1      32.905  20.551 -22.684  0.00  0.00     0.167 A 
ATOM      3  C   UNL d   1      32.857  21.856 -22.109  0.00  0.00     0.153 A 
ATOM      4  C   UNL d   1      32.831  19.773 -22.438  0.00  0.00     0.057 A 
ATOM      5  N   UNL d   1      32.677  20.559 -21.376  0.00  0.00    -0.161 NA
ATOM      6  N   UNL d   1      33.047  20.880 -23.428  0.00  0.00    -0.227 NA
ATOM      7  C   UNL d   1      33.000  22.187 -22.854  0.00  0.00     0.057 A 
ATOM      8  C   UNL d   1      32.691  19.776 -21.636  0.00  0.00     0.124 A 
ATOM      9  C   UNL d   1      33.094  21.703 -23.509  0.00  0.00     0.086 A 
ATOM     10  C   UNL d   1      33.238  22.044 -24.257  0.00  0.00     0.021 C 
ENDROOT
BRANCH   3  11
ATOM     11  N   UNL d   1      32.762  22.340 -21.454  0.00  0.00    -0.285 N 
ATOM     12  C   UNL d   1      33.239  22.235 -20.785  0.00  0.00     0.108 A 
ATOM     13  C   UNL d   1      33.144  22.722 -20.127  0.00  0.00     0.142 A 
ATOM     14  O   UNL d   1      32.571  23.317 -20.134  0.00  0.00    -0.300 OA
ATOM     15  C   UNL d   1      32.095  23.424 -20.798  0.00  0.00     0.142 A 
ATOM     16  C   UNL d   1      32.190  22.937 -21.456  0.00  0.00     0.108 A 
ENDBRANCH   3  11
BRANCH   4  17
ATOM     17  C   UNL d   1      32.873  19.058 -22.845  0.00  0.00     0.004 A 
ATOM     18  C   UNL d   1      32.598  19.000 -23.629  0.00  0.00     0.000 A 
ATOM     19  C   UNL d   1      32.644  18.283 -24.028  0.00  0.00     0.000 A 
ATOM     20  C   UNL d   1      32.962  17.613 -23.655  0.00  0.00     0.000 A 
ATOM     21  C   UNL d   1      33.234  17.671 -22.878  0.00  0.00     0.000 A 
ATOM     22  C   UNL d   1      33.191  18.391 -22.471  0.00  0.00     0.000 A 
ENDBRANCH   4  17
TORSDOF 2
ENDMDL
