MODEL 1
REMARK VINA RESULT:      -4.9      0.000      0.000
REMARK  5 active torsions:
REMARK  status: ('A' for Active; 'I' for Inactive)
REMARK    1  A    between atoms: C_2  and  N_1 
REMARK    2  A    between atoms: C_5  and  N_1 
REMARK    3  A    between atoms: C_7  and  C_2 
REMARK    4  A    between atoms: C_4  and  O_6 
REMARK    5  A    between atoms: O_6  and  C_8 
ROOT
ATOM      1  C   UNL d   1      57.926   0.610  30.858  0.00  0.00     0.020 A 
ATOM      2  C   UNL d   1      59.185   0.656  29.791  0.00  0.00     0.105 A 
ATOM      3  C   UNL d   1      57.775   0.594  30.046  0.00  0.00     0.004 A 
ATOM      4  C   UNL d   1      58.692   0.648  31.146  0.00  0.00     0.004 A 
ATOM      5  C   UNL d   1      58.403   0.617  29.521  0.00  0.00     0.025 A 
ATOM      6  C   UNL d   1      59.320   0.671  30.621  0.00  0.00     0.025 A 
ENDROOT
BRANCH   1   7
ATOM      7  C   UNL d   1      57.280   0.586  31.398  0.00  0.00     0.108 C 
BRANCH   7   8
ATOM      8  N   UNL d   1      56.935  -0.147  31.578  0.00  0.00    -0.184 N 
ATOM      9  O   UNL d   1      57.118  -0.820  31.139  0.00  0.00    -0.080 OA
BRANCH   8  10
ATOM     10  C   UNL d   1      56.404  -0.193  32.204  0.00  0.00     0.090 A 
ATOM     11  C   UNL d   1      56.069   0.507  32.498  0.00  0.00     0.020 A 
ATOM     12  C   UNL d   1      55.537   0.461  33.126  0.00  0.00     0.002 A 
ATOM     13  C   UNL d   1      55.337  -0.285  33.463  0.00  0.00     0.000 A 
ATOM     14  C   UNL d   1      55.687  -0.970  33.149  0.00  0.00     0.002 A 
ATOM     15  C   UNL d   1      56.220  -0.923  32.521  0.00  0.00     0.020 A 
ENDBRANCH   8  10
ENDBRANCH   7   8
ENDBRANCH   1   7
BRANCH   2  16
ATOM     16  O   UNL d   1      59.807   0.679  29.260  0.00  0.00    -0.260 OA
BRANCH  16  17
ATOM     17  C   UNL d   1      60.220  -0.005  29.085  0.00  0.00     0.391 C 
ATOM     18  F   UNL d   1      59.929  -0.512  28.504  0.00  0.00    -0.145 F 
ATOM     19  F   UNL d   1      60.913  -0.181  29.485  0.00  0.00    -0.145 F 
ENDBRANCH  16  17
ENDBRANCH   2  16
TORSDOF 5
ENDMDL
MODEL 2
REMARK VINA RESULT:      -3.9      1.528      2.150
REMARK  5 active torsions:
REMARK  status: ('A' for Active; 'I' for Inactive)
REMARK    1  A    between atoms: C_2  and  N_1 
REMARK    2  A    between atoms: C_5  and  N_1 
REMARK    3  A    between atoms: C_7  and  C_2 
REMARK    4  A    between atoms: C_4  and  O_6 
REMARK    5  A    between atoms: O_6  and  C_8 
ROOT
ATOM      1  C   UNL d   1      56.972   0.084  32.259  0.00  0.00     0.020 A 
ATOM      2  C   UNL d   1      57.523  -0.234  30.735  0.00  0.00     0.105 A 
ATOM      3  C   UNL d   1      56.865  -0.668  31.934  0.00  0.00     0.004 A 
ATOM      4  C   UNL d   1      57.347   0.678  31.839  0.00  0.00     0.004 A 
ATOM      5  C   UNL d   1      57.140  -0.820  31.177  0.00  0.00     0.025 A 
ATOM      6  C   UNL d   1      57.623   0.526  31.082  0.00  0.00     0.025 A 
ENDROOT
BRANCH   1   7
ATOM      7  C   UNL d   1      56.689   0.240  33.036  0.00  0.00     0.108 C 
BRANCH   7   8
ATOM      8  N   UNL d   1      55.896   0.466  33.137  0.00  0.00    -0.184 N 
ATOM      9  O   UNL d   1      55.413   0.616  32.486  0.00  0.00    -0.080 OA
BRANCH   8  10
ATOM     10  C   UNL d   1      55.597   0.537  33.899  0.00  0.00     0.090 A 
ATOM     11  C   UNL d   1      54.774   0.547  34.008  0.00  0.00     0.020 A 
ATOM     12  C   UNL d   1      54.475   0.620  34.773  0.00  0.00     0.002 A 
ATOM     13  C   UNL d   1      54.997   0.682  35.432  0.00  0.00     0.000 A 
ATOM     14  C   UNL d   1      55.815   0.669  35.294  0.00  0.00     0.002 A 
ATOM     15  C   UNL d   1      56.115   0.597  34.529  0.00  0.00     0.020 A 
ENDBRANCH   8  10
ENDBRANCH   7   8
ENDBRANCH   1   7
BRANCH   2  16
ATOM     16  O   UNL d   1      57.795  -0.394  29.980  0.00  0.00    -0.260 OA
BRANCH  16  17
ATOM     17  C   UNL d   1      58.472  -0.840  29.877  0.00  0.00     0.391 C 
ATOM     18  F   UNL d   1      58.409  -1.596  29.553  0.00  0.00    -0.145 F 
ATOM     19  F   UNL d   1      59.201  -0.537  30.093  0.00  0.00    -0.145 F 
ENDBRANCH  16  17
ENDBRANCH   2  16
TORSDOF 5
ENDMDL
MODEL 3
REMARK VINA RESULT:      -2.0      9.685     10.174
REMARK  5 active torsions:
REMARK  status: ('A' for Active; 'I' for Inactive)
REMARK    1  A    between atoms: C_2  and  N_1 
REMARK    2  A    between atoms: C_5  and  N_1 
REMARK    3  A    between atoms: C_7  and  C_2 
REMARK    4  A    between atoms: C_4  and  O_6 
REMARK    5  A    between atoms: O_6  and  C_8 
ROOT
ATOM      1  C   UNL d   1      58.944  -9.816  32.855  0.00  0.00     0.020 A 
ATOM      2  C   UNL d   1      58.256  -9.817  31.354  0.00  0.00     0.105 A 
ATOM      3  C   UNL d   1      58.121  -9.815  32.782  0.00  0.00     0.004 A 
ATOM      4  C   UNL d   1      59.428  -9.817  32.194  0.00  0.00     0.004 A 
ATOM      5  C   UNL d   1      57.785  -9.816  32.035  0.00  0.00     0.025 A 
ATOM      6  C   UNL d   1      59.092  -9.818  31.447  0.00  0.00     0.025 A 
ENDROOT
BRANCH   1   7
ATOM      7  C   UNL d   1      59.290  -9.815  33.622  0.00  0.00     0.108 C 
BRANCH   7   8
ATOM      8  N   UNL d   1      59.450  -9.087  33.989  0.00  0.00    -0.184 N 
ATOM      9  O   UNL d   1      59.144  -8.385  33.687  0.00  0.00    -0.080 OA
BRANCH   8  10
ATOM     10  C   UNL d   1      59.922  -9.078  34.662  0.00  0.00     0.090 A 
ATOM     11  C   UNL d   1      59.704  -9.548  35.311  0.00  0.00     0.020 A 
ATOM     12  C   UNL d   1      60.178  -9.538  35.987  0.00  0.00     0.002 A 
ATOM     13  C   UNL d   1      60.871  -9.058  36.016  0.00  0.00     0.000 A 
ATOM     14  C   UNL d   1      61.064  -8.599  35.352  0.00  0.00     0.002 A 
ATOM     15  C   UNL d   1      60.591  -8.608  34.677  0.00  0.00     0.020 A 
ENDBRANCH   8  10
ENDBRANCH   7   8
ENDBRANCH   1   7
BRANCH   2  16
ATOM     16  O   UNL d   1      57.912  -9.818  30.612  0.00  0.00    -0.260 OA
BRANCH  16  17
ATOM     17  C   UNL d   1      58.206  -9.330  30.025  0.00  0.00     0.391 C 
ATOM     18  F   UNL d   1      57.787  -8.649  29.821  0.00  0.00    -0.145 F 
ATOM     19  F   UNL d   1      58.908  -9.518  29.647  0.00  0.00    -0.145 F 
ENDBRANCH  16  17
ENDBRANCH   2  16
TORSDOF 5
ENDMDL
