MODEL 1
REMARK VINA RESULT:      -1.6      0.000      0.000
REMARK  4 active torsions:
REMARK  status: ('A' for Active; 'I' for Inactive)
REMARK    1  A    between atoms: C_12  and  C_2 
REMARK       I    between atoms: C_3  and  N_8 
REMARK    2  A    between atoms: C_5  and  C_3 
REMARK    3  A    between atoms: C_9  and  C_4 
REMARK    4  A    between atoms: N_8  and  C_13 
ROOT
ATOM      1  C   UNL d   1     -41.745-122.351 -51.380  0.00  0.00     0.018 A 
ATOM      2  C   UNL d   1     -41.989-121.485 -52.761  0.00  0.00     0.085 A 
ATOM      3  C   UNL d   1     -42.478-122.370 -51.756  0.00  0.00     0.003 A 
ATOM      4  C   UNL d   1     -41.123-121.896 -51.693  0.00  0.00     0.003 A 
ATOM      5  C   UNL d   1     -41.252-121.461 -52.391  0.00  0.00     0.019 A 
ATOM      6  C   UNL d   1     -42.601-121.941 -52.442  0.00  0.00     0.019 A 
ENDROOT
BRANCH   1   7
ATOM      7  C   UNL d   1     -41.620-122.788 -50.682  0.00  0.00     0.088 A 
ATOM      8  N   UNL d   1     -41.917-122.611 -49.939  0.00  0.00    -0.239 NA
ATOM      9  C   UNL d   1     -41.660-123.186 -49.413  0.00  0.00     0.111 A 
ATOM     10  S   UNL d   1     -41.197-123.727 -49.835  0.00  0.00    -0.066 SA
ATOM     11  C   UNL d   1     -41.175-123.478 -50.615  0.00  0.00     0.056 A 
BRANCH   9  12
ATOM     12  C   UNL d   1     -41.830-123.222 -48.603  0.00  0.00     0.024 A 
ATOM     13  C   UNL d   1     -41.226-123.121 -48.050  0.00  0.00     0.002 A 
ATOM     14  C   UNL d   1     -41.405-123.159 -47.235  0.00  0.00     0.000 A 
ATOM     15  C   UNL d   1     -42.180-123.296 -46.987  0.00  0.00     0.000 A 
ATOM     16  C   UNL d   1     -42.789-123.398 -47.548  0.00  0.00     0.000 A 
ATOM     17  C   UNL d   1     -42.613-123.361 -48.351  0.00  0.00     0.002 A 
ENDBRANCH   9  12
ENDBRANCH   1   7
BRANCH   2  18
ATOM     18  N   UNL d   1     -42.115-121.050 -53.457  0.00  0.00    -0.208 NA
ATOM     19  C   UNL d   1     -42.048-121.418 -54.192  0.00  0.00     0.280 C 
ATOM     20  O   UNL d   1     -42.174-120.984 -54.889  0.00  0.00    -0.265 OA
BRANCH  19  21
ATOM     21  C   UNL d   1     -41.853-122.228 -54.242  0.00  0.00     0.069 A 
ATOM     22  C   UNL d   1     -42.210-122.689 -54.816  0.00  0.00     0.062 A 
ATOM     23 CL   UNL d   1     -42.756-122.364 -55.341  0.00  0.00    -0.082 Cl
ATOM     24  C   UNL d   1     -42.019-123.488 -54.866  0.00  0.00     0.012 A 
ATOM     25  C   UNL d   1     -41.476-123.817 -54.347  0.00  0.00     0.001 A 
ATOM     26  C   UNL d   1     -41.123-123.348 -53.775  0.00  0.00     0.000 A 
ATOM     27  C   UNL d   1     -41.311-122.547 -53.719  0.00  0.00     0.006 A 
ENDBRANCH  19  21
ENDBRANCH   2  18
TORSDOF 4
ENDMDL
MODEL 2
REMARK VINA RESULT:      -0.4      2.309      5.335
REMARK  4 active torsions:
REMARK  status: ('A' for Active; 'I' for Inactive)
REMARK    1  A    between atoms: C_12  and  C_2 
REMARK       I    between atoms: C_3  and  N_8 
REMARK    2  A    between atoms: C_5  and  C_3 
REMARK    3  A    between atoms: C_9  and  C_4 
REMARK    4  A    between atoms: N_8  and  C_13 
ROOT
ATOM      1  C   UNL d   1     -41.372-123.111 -52.619  0.00  0.00     0.018 A 
ATOM      2  C   UNL d   1     -41.232-123.083 -50.976  0.00  0.00     0.085 A 
ATOM      3  C   UNL d   1     -41.214-122.402 -52.229  0.00  0.00     0.003 A 
ATOM      4  C   UNL d   1     -41.462-123.817 -52.188  0.00  0.00     0.003 A 
ATOM      5  C   UNL d   1     -41.390-123.797 -51.359  0.00  0.00     0.019 A 
ATOM      6  C   UNL d   1     -41.144-122.386 -51.414  0.00  0.00     0.019 A 
ENDROOT
BRANCH   1   7
ATOM      7  C   UNL d   1     -41.443-123.126 -53.449  0.00  0.00     0.088 A 
ATOM      8  N   UNL d   1     -41.802-122.556 -53.915  0.00  0.00    -0.239 NA
ATOM      9  C   UNL d   1     -41.747-122.791 -54.699  0.00  0.00     0.111 A 
ATOM     10  S   UNL d   1     -41.349-123.516 -54.720  0.00  0.00    -0.066 SA
ATOM     11  C   UNL d   1     -41.164-123.718 -53.948  0.00  0.00     0.056 A 
BRANCH   9  12
ATOM     12  C   UNL d   1     -42.037-122.379 -55.357  0.00  0.00     0.024 A 
ATOM     13  C   UNL d   1     -41.517-121.969 -55.849  0.00  0.00     0.002 A 
ATOM     14  C   UNL d   1     -41.815-121.555 -56.510  0.00  0.00     0.000 A 
ATOM     15  C   UNL d   1     -42.625-121.557 -56.668  0.00  0.00     0.000 A 
ATOM     16  C   UNL d   1     -43.150-121.972 -56.170  0.00  0.00     0.000 A 
ATOM     17  C   UNL d   1     -42.856-122.380 -55.519  0.00  0.00     0.002 A 
ENDBRANCH   9  12
ENDBRANCH   1   7
BRANCH   2  18
ATOM     18  N   UNL d   1     -41.160-123.065 -50.149  0.00  0.00    -0.208 NA
ATOM     19  C   UNL d   1     -41.802-122.839 -49.684  0.00  0.00     0.280 C 
ATOM     20  O   UNL d   1     -41.732-122.821 -48.857  0.00  0.00    -0.265 OA
BRANCH  19  21
ATOM     21  C   UNL d   1     -42.527-122.625 -50.040  0.00  0.00     0.069 A 
ATOM     22  C   UNL d   1     -43.194-123.073 -49.886  0.00  0.00     0.062 A 
ATOM     23 CL   UNL d   1     -43.157-123.728 -49.386  0.00  0.00    -0.082 Cl
ATOM     24  C   UNL d   1     -43.908-122.864 -50.236  0.00  0.00     0.012 A 
ATOM     25  C   UNL d   1     -43.951-122.213 -50.734  0.00  0.00     0.001 A 
ATOM     26  C   UNL d   1     -43.278-121.770 -50.882  0.00  0.00     0.000 A 
ATOM     27  C   UNL d   1     -42.559-121.975 -50.535  0.00  0.00     0.006 A 
ENDBRANCH  19  21
ENDBRANCH   2  18
TORSDOF 4
ENDMDL
