MODEL 1
REMARK VINA RESULT:      64.9      0.000      0.000
REMARK  5 active torsions:
REMARK  status: ('A' for Active; 'I' for Inactive)
REMARK    1  A    between atoms: C_9  and  N_1 
REMARK    2  A    between atoms: C_2  and  C_9 
REMARK    3  A    between atoms: S_14  and  C_5 
REMARK    4  A    between atoms: C_12  and  C_16 
REMARK       I    between atoms: N_13  and  C_12 
REMARK    5  A    between atoms: C_16  and  S_14 
ROOT
ATOM      1  C   UNL d   1     -50.128  26.354  33.853  0.00  0.00     0.189 A 
ATOM      2  N   UNL d   1     -50.207  27.126  34.119  0.00  0.00    -0.265 N 
ATOM      3  C   UNL d   1     -49.602  27.270  34.661  0.00  0.00     0.202 A 
ATOM      4  N   UNL d   1     -49.478  26.021  34.226  0.00  0.00    -0.126 NA
ATOM      5  N   UNL d   1     -49.150  26.586  34.727  0.00  0.00    -0.121 NA
ATOM      6  C   UNL d   1     -50.784  27.673  33.895  0.00  0.00     0.103 C 
ENDROOT
BRANCH   1   7
ATOM      7  C   UNL d   1     -50.657  26.056  33.306  0.00  0.00     0.123 C 
BRANCH   7   8
ATOM      8  N   UNL d   1     -50.864  25.255  33.318  0.00  0.00    -0.265 N 
ATOM      9  C   UNL d   1     -50.336  24.615  33.318  0.00  0.00     0.296 A 
ATOM     10  S   UNL d   1     -50.784  23.924  33.332  0.00  0.00    -0.025 SA
ATOM     11  O   UNL d   1     -49.514  24.667  33.307  0.00  0.00    -0.259 OA
ATOM     12  C   UNL d   1     -51.589  24.143  33.341  0.00  0.00     0.050 A 
ATOM     13  C   UNL d   1     -51.631  24.966  33.332  0.00  0.00     0.074 A 
ATOM     14  C   UNL d   1     -52.283  23.690  33.355  0.00  0.00     0.008 A 
ATOM     15  C   UNL d   1     -52.372  25.341  33.337  0.00  0.00     0.018 A 
ATOM     16  C   UNL d   1     -53.067  24.893  33.351  0.00  0.00     0.002 A 
ATOM     17  C   UNL d   1     -53.013  24.063  33.360  0.00  0.00     0.001 A 
ENDBRANCH   7   8
ENDBRANCH   1   7
BRANCH   3  18
ATOM     18  S   UNL d   1     -49.471  27.977  35.066  0.00  0.00    -0.043 SA
BRANCH  18  19
ATOM     19  C   UNL d   1     -48.752  28.377  34.993  0.00  0.00     0.099 C 
BRANCH  19  20
ATOM     20  C   UNL d   1     -48.399  28.727  35.654  0.00  0.00     0.271 C 
ATOM     21  N   UNL d   1     -48.003  29.445  35.579  0.00  0.00    -0.272 N 
ATOM     22  C   UNL d   1     -47.695  29.695  36.298  0.00  0.00     0.083 A 
ATOM     23  C   UNL d   1     -47.957  29.817  34.842  0.00  0.00     0.083 A 
ATOM     24  C   UNL d   1     -47.263  30.378  36.466  0.00  0.00     0.019 A 
ATOM     25  C   UNL d   1     -47.035  30.977  35.957  0.00  0.00     0.002 A 
ATOM     26  C   UNL d   1     -47.189  31.037  35.130  0.00  0.00     0.002 A 
ATOM     27  C   UNL d   1     -47.590  30.535  34.639  0.00  0.00     0.019 A 
ATOM     28  O   UNL d   1     -48.444  28.359  36.384  0.00  0.00    -0.266 OA
ENDBRANCH  19  20
ENDBRANCH  18  19
ENDBRANCH   3  18
TORSDOF 5
ENDMDL
MODEL 2
REMARK VINA RESULT:      66.6      1.314      1.842
REMARK  5 active torsions:
REMARK  status: ('A' for Active; 'I' for Inactive)
REMARK    1  A    between atoms: C_9  and  N_1 
REMARK    2  A    between atoms: C_2  and  C_9 
REMARK    3  A    between atoms: S_14  and  C_5 
REMARK    4  A    between atoms: C_12  and  C_16 
REMARK       I    between atoms: N_13  and  C_12 
REMARK    5  A    between atoms: C_16  and  S_14 
ROOT
ATOM      1  C   UNL d   1     -49.449  27.242  34.140  0.00  0.00     0.189 A 
ATOM      2  N   UNL d   1     -48.754  27.678  34.134  0.00  0.00    -0.265 N 
ATOM      3  C   UNL d   1     -48.716  28.106  34.837  0.00  0.00     0.202 A 
ATOM      4  N   UNL d   1     -49.841  27.399  34.844  0.00  0.00    -0.126 NA
ATOM      5  N   UNL d   1     -49.389  27.934  35.277  0.00  0.00    -0.121 NA
ATOM      6  C   UNL d   1     -48.183  27.694  33.537  0.00  0.00     0.103 C 
ENDROOT
BRANCH   1   7
ATOM      7  C   UNL d   1     -49.634  26.760  33.507  0.00  0.00     0.123 C 
BRANCH   7   8
ATOM      8  N   UNL d   1     -50.391  26.435  33.437  0.00  0.00    -0.265 N 
ATOM      9  C   UNL d   1     -51.100  26.861  33.374  0.00  0.00     0.296 A 
ATOM     10  S   UNL d   1     -51.714  26.313  33.316  0.00  0.00    -0.025 SA
ATOM     11  O   UNL d   1     -51.174  27.681  33.372  0.00  0.00    -0.259 OA
ATOM     12  C   UNL d   1     -51.377  25.550  33.342  0.00  0.00     0.050 A 
ATOM     13  C   UNL d   1     -50.561  25.633  33.417  0.00  0.00     0.074 A 
ATOM     14  C   UNL d   1     -51.718  24.796  33.307  0.00  0.00     0.008 A 
ATOM     15  C   UNL d   1     -50.080  24.956  33.456  0.00  0.00     0.018 A 
ATOM     16  C   UNL d   1     -50.416  24.202  33.422  0.00  0.00     0.002 A 
ATOM     17  C   UNL d   1     -51.242  24.131  33.346  0.00  0.00     0.001 A 
ENDBRANCH   7   8
ENDBRANCH   1   7
BRANCH   3  18
ATOM     18  S   UNL d   1     -48.110  28.619  35.062  0.00  0.00    -0.043 SA
BRANCH  18  19
ATOM     19  C   UNL d   1     -48.123  29.412  34.832  0.00  0.00     0.099 C 
BRANCH  19  20
ATOM     20  C   UNL d   1     -47.688  29.977  35.251  0.00  0.00     0.271 C 
ATOM     21  N   UNL d   1     -47.713  30.768  35.028  0.00  0.00    -0.272 N 
ATOM     22  C   UNL d   1     -47.244  31.233  35.515  0.00  0.00     0.083 A 
ATOM     23  C   UNL d   1     -48.175  31.001  34.382  0.00  0.00     0.083 A 
ATOM     24  C   UNL d   1     -47.114  32.048  35.483  0.00  0.00     0.019 A 
ATOM     25  C   UNL d   1     -47.422  32.595  34.958  0.00  0.00     0.002 A 
ATOM     26  C   UNL d   1     -47.951  32.452  34.317  0.00  0.00     0.002 A 
ATOM     27  C   UNL d   1     -48.282  31.760  34.062  0.00  0.00     0.019 A 
ATOM     28  O   UNL d   1     -47.230  29.747  35.891  0.00  0.00    -0.266 OA
ENDBRANCH  19  20
ENDBRANCH  18  19
ENDBRANCH   3  18
TORSDOF 5
ENDMDL
