MODEL 1
REMARK VINA RESULT:     125.6      0.000      0.000
REMARK  3 active torsions:
REMARK  status: ('A' for Active; 'I' for Inactive)
REMARK    1  A    between atoms: N_2  and  S_1 
REMARK    2  A    between atoms: C_3  and  S_1 
REMARK    3  A    between atoms: C_5  and  N_4 
ROOT
ATOM      1  N   UNL d   1      60.312  38.083  53.292  0.00  0.00    -0.226 N 
ATOM      2  N   UNL d   1      59.220  38.784  54.297  0.00  0.00    -0.301 N 
ATOM      3  C   UNL d   1      59.630  37.676  53.508  0.00  0.00     0.111 A 
ATOM      4  C   UNL d   1      60.445  38.841  53.580  0.00  0.00     0.111 A 
ATOM      5  C   UNL d   1      59.081  38.029  54.013  0.00  0.00     0.100 A 
ATOM      6  C   UNL d   1      59.897  39.194  54.085  0.00  0.00     0.100 A 
ENDROOT
BRANCH   1   7
ATOM      7  S   UNL d   1      60.861  37.730  52.787  0.00  0.00     0.271 S 
ATOM      8  O   UNL d   1      60.975  38.453  52.406  0.00  0.00    -0.200 OA
ATOM      9  O   UNL d   1      60.747  37.007  53.167  0.00  0.00    -0.200 OA
BRANCH   7  10
ATOM     10  C   UNL d   1      61.410  37.378  52.282  0.00  0.00     0.104 A 
ATOM     11  C   UNL d   1      61.974  36.860  52.582  0.00  0.00     0.015 A 
ATOM     12  C   UNL d   1      62.523  36.507  52.077  0.00  0.00     0.028 A 
ATOM     13  C   UNL d   1      63.090  35.988  52.382  0.00  0.00     0.002 C 
ATOM     14  C   UNL d   1      62.507  36.672  51.271  0.00  0.00     0.140 A 
ATOM     15  C   UNL d   1      61.943  37.190  50.970  0.00  0.00     0.030 A 
ATOM     16  F   UNL d   1      63.056  36.320  50.766  0.00  0.00    -0.204 F 
ATOM     17  C   UNL d   1      61.394  37.542  51.475  0.00  0.00     0.015 A 
ENDBRANCH   7  10
ENDBRANCH   1   7
BRANCH   2  18
ATOM     18  C   UNL d   1      58.671  39.136  54.802  0.00  0.00     0.064 A 
ATOM     19  C   UNL d   1      58.910  39.421  55.537  0.00  0.00     0.016 A 
ATOM     20  C   UNL d   1      58.361  39.773  56.042  0.00  0.00     0.001 A 
ATOM     21  C   UNL d   1      59.701  39.353  55.769  0.00  0.00     0.002 C 
ATOM     22  C   UNL d   1      57.573  39.842  55.813  0.00  0.00     0.000 A 
ATOM     23  C   UNL d   1      57.335  39.558  55.078  0.00  0.00     0.002 A 
ATOM     24  C   UNL d   1      57.025  40.194  56.317  0.00  0.00     0.000 C 
ATOM     25  C   UNL d   1      57.884  39.205  54.573  0.00  0.00     0.018 A 
ENDBRANCH   2  18
TORSDOF 3
ENDMDL
MODEL 2
REMARK VINA RESULT:     128.1      2.015      5.281
REMARK  3 active torsions:
REMARK  status: ('A' for Active; 'I' for Inactive)
REMARK    1  A    between atoms: N_2  and  S_1 
REMARK    2  A    between atoms: C_3  and  S_1 
REMARK    3  A    between atoms: C_5  and  N_4 
ROOT
ATOM      1  N   UNL d   1      59.972  38.295  53.687  0.00  0.00    -0.226 N 
ATOM      2  N   UNL d   1      61.030  37.542  52.684  0.00  0.00    -0.301 N 
ATOM      3  C   UNL d   1      60.077  37.481  53.736  0.00  0.00     0.111 A 
ATOM      4  C   UNL d   1      60.397  38.731  53.134  0.00  0.00     0.111 A 
ATOM      5  C   UNL d   1      60.609  37.102  53.232  0.00  0.00     0.100 A 
ATOM      6  C   UNL d   1      60.929  38.352  52.630  0.00  0.00     0.100 A 
ENDROOT
BRANCH   1   7
ATOM      7  S   UNL d   1      59.440  38.674  54.191  0.00  0.00     0.271 S 
ATOM      8  O   UNL d   1      59.721  39.407  53.937  0.00  0.00    -0.200 OA
ATOM      9  O   UNL d   1      59.159  37.941  54.445  0.00  0.00    -0.200 OA
BRANCH   7  10
ATOM     10  C   UNL d   1      58.908  39.053  54.695  0.00  0.00     0.104 A 
ATOM     11  C   UNL d   1      59.181  39.592  55.254  0.00  0.00     0.015 A 
ATOM     12  C   UNL d   1      58.649  39.971  55.758  0.00  0.00     0.028 A 
ATOM     13  C   UNL d   1      58.927  40.513  56.318  0.00  0.00     0.002 C 
ATOM     14  C   UNL d   1      57.844  39.811  55.703  0.00  0.00     0.140 A 
ATOM     15  C   UNL d   1      57.570  39.272  55.145  0.00  0.00     0.030 A 
ATOM     16  F   UNL d   1      57.312  40.190  56.207  0.00  0.00    -0.204 F 
ATOM     17  C   UNL d   1      58.102  38.893  54.641  0.00  0.00     0.015 A 
ENDBRANCH   7  10
ENDBRANCH   1   7
BRANCH   2  18
ATOM     18  C   UNL d   1      61.562  37.163  52.180  0.00  0.00     0.064 A 
ATOM     19  C   UNL d   1      61.785  37.519  51.472  0.00  0.00     0.016 A 
ATOM     20  C   UNL d   1      62.317  37.140  50.968  0.00  0.00     0.001 A 
ATOM     21  C   UNL d   1      61.476  38.258  51.266  0.00  0.00     0.002 C 
ATOM     22  C   UNL d   1      62.626  36.404  51.171  0.00  0.00     0.000 A 
ATOM     23  C   UNL d   1      62.402  36.048  51.879  0.00  0.00     0.002 A 
ATOM     24  C   UNL d   1      63.157  36.026  50.668  0.00  0.00     0.000 C 
ATOM     25  C   UNL d   1      61.871  36.427  52.383  0.00  0.00     0.018 A 
ENDBRANCH   2  18
TORSDOF 3
ENDMDL
