MODEL 1
REMARK VINA RESULT:      49.8      0.000      0.000
REMARK  7 active torsions:
REMARK  status: ('A' for Active; 'I' for Inactive)
REMARK    1  A    between atoms: C_6  and  N_2 
REMARK    2  A    between atoms: C_7  and  C_3 
REMARK    3  A    between atoms: C_8  and  C_6 
REMARK    4  A    between atoms: O_13  and  C_7 
REMARK    5  A    between atoms: C_14  and  C_8 
REMARK    6  A    between atoms: C_9  and  O_12 
REMARK    7  A    between atoms: O_12  and  C_14 
ROOT
ATOM      1  N   UNL d   1      60.875  47.857  52.071  0.00  0.00    -0.225 NA
ATOM      2  N   UNL d   1      60.674  48.662  50.987  0.00  0.00    -0.287 N 
ATOM      3  C   UNL d   1      60.701  48.646  51.830  0.00  0.00     0.172 A 
ATOM      4  C   UNL d   1      60.829  47.895  50.701  0.00  0.00     0.083 A 
ATOM      5  C   UNL d   1      60.953  47.397  51.372  0.00  0.00     0.099 A 
ATOM      6  C   UNL d   1      60.875  47.574  49.940  0.00  0.00     0.019 A 
ATOM      7  C   UNL d   1      61.120  46.592  51.264  0.00  0.00     0.021 A 
ATOM      8  C   UNL d   1      61.044  46.763  49.838  0.00  0.00     0.002 A 
ATOM      9  C   UNL d   1      61.166  46.274  50.498  0.00  0.00     0.002 A 
ENDROOT
BRANCH   2  10
ATOM     10  C   UNL d   1      60.507  49.409  50.672  0.00  0.00     0.084 C 
BRANCH  10  11
ATOM     11  C   UNL d   1      60.016  49.469  50.012  0.00  0.00     0.046 C 
BRANCH  11  12
ATOM     12  C   UNL d   1      59.241  49.705  50.104  0.00  0.00     0.124 C 
BRANCH  12  13
ATOM     13  O   UNL d   1      58.729  49.675  49.462  0.00  0.00    -0.305 OA
BRANCH  13  14
ATOM     14  C   UNL d   1      57.916  49.664  49.587  0.00  0.00     0.100 A 
ATOM     15  C   UNL d   1      57.411  49.657  48.949  0.00  0.00     0.025 A 
ATOM     16  C   UNL d   1      56.609  49.646  49.069  0.00  0.00     0.002 A 
ATOM     17  C   UNL d   1      56.302  49.641  49.842  0.00  0.00     0.000 A 
ATOM     18  C   UNL d   1      56.822  49.648  50.478  0.00  0.00     0.002 A 
ATOM     19  C   UNL d   1      57.628  49.659  50.345  0.00  0.00     0.025 A 
ENDBRANCH  13  14
ENDBRANCH  12  13
ENDBRANCH  11  12
ENDBRANCH  10  11
ENDBRANCH   2  10
BRANCH   3  20
ATOM     20  C   UNL d   1      60.607  49.156  52.351  0.00  0.00     0.154 C 
BRANCH  20  21
ATOM     21  O   UNL d   1      61.203  49.493  52.801  0.00  0.00    -0.323 OA
ATOM     22  C   UNL d   1      62.028  49.426  52.792  0.00  0.00     0.182 C 
ENDBRANCH  20  21
ENDBRANCH   3  20
TORSDOF 7
ENDMDL
