MODEL 1
REMARK VINA RESULT:      10.1      0.000      0.000
REMARK  3 active torsions:
REMARK  status: ('A' for Active; 'I' for Inactive)
REMARK    1  A    between atoms: C_2  and  S_1 
REMARK    2  A    between atoms: N_3  and  S_1 
REMARK    3  A    between atoms: N_4  and  C_6 
ROOT
ATOM      1  C   UNL d   1      45.535 -13.690  44.052  0.00  0.00     0.116 A 
ATOM      2  C   UNL d   1      45.007 -13.410  43.470  0.00  0.00     0.037 A 
ATOM      3  C   UNL d   1      45.011 -12.615  43.277  0.00  0.00     0.127 A 
ATOM      4  C   UNL d   1      46.060 -13.167  44.431  0.00  0.00     0.070 A 
ATOM      5  C   UNL d   1      45.550 -12.080  43.667  0.00  0.00     0.024 A 
ATOM      6  C   UNL d   1      46.057 -12.367  44.230  0.00  0.00     0.014 A 
ATOM      7 CL   UNL d   1      46.523 -13.469  44.955  0.00  0.00    -0.082 Cl
ENDROOT
BRANCH   1   8
ATOM      8  S   UNL d   1      45.529 -14.514  44.250  0.00  0.00     0.273 S 
ATOM      9  O   UNL d   1      46.249 -14.621  43.850  0.00  0.00    -0.200 OA
ATOM     10  O   UNL d   1      44.790 -14.414  44.663  0.00  0.00    -0.200 OA
BRANCH   8  11
ATOM     11  N   UNL d   1      45.512 -15.306  44.448  0.00  0.00    -0.210 N 
ATOM     12  C   UNL d   1      44.906 -15.721  44.912  0.00  0.00     0.193 A 
ATOM     13  N   UNL d   1      45.151 -16.522  44.954  0.00  0.00    -0.222 NA
ATOM     14  C   UNL d   1      45.881 -16.597  44.532  0.00  0.00     0.120 A 
ATOM     15  C   UNL d   1      46.072 -15.851  44.240  0.00  0.00     0.114 A 
ENDBRANCH   8  11
ENDBRANCH   1   8
BRANCH   3  16
ATOM     16  N   UNL d   1      44.492 -12.347  42.707  0.00  0.00    -0.114 N 
ATOM     17  O   UNL d   1      44.686 -12.124  41.959  0.00  0.00    -0.532 OA
ATOM     18  O   UNL d   1      43.682 -12.272  42.838  0.00  0.00    -0.532 OA
ENDBRANCH   3  16
TORSDOF 3
ENDMDL
