MODEL 1
REMARK VINA RESULT:       2.2      0.000      0.000
REMARK  7 active torsions:
REMARK  status: ('A' for Active; 'I' for Inactive)
REMARK    1  A    between atoms: C_5  and  C_1 
REMARK    2  A    between atoms: N_6  and  C_2 
REMARK       I    between atoms: N_10  and  C_5 
REMARK    3  A    between atoms: C_20  and  N_6 
REMARK    4  A    between atoms: C_9  and  C_12 
REMARK    5  A    between atoms: C_22  and  N_10 
REMARK    6  A    between atoms: C_11  and  C_22 
REMARK    7  A    between atoms: O_30  and  C_25 
ROOT
ATOM      1  C   UNL d   1      33.056  20.719 -20.949  0.00  0.00     0.099 A 
ATOM      2  C   UNL d   1      33.123  21.330 -21.498  0.00  0.00     0.187 A 
ATOM      3  C   UNL d   1      32.968  20.908 -20.139  0.00  0.00     0.010 A 
ATOM      4  O   UNL d   1      33.105  22.115 -21.259  0.00  0.00    -0.289 OA
ATOM      5  C   UNL d   1      32.949  21.699 -19.893  0.00  0.00     0.025 A 
ATOM      6  C   UNL d   1      33.017  22.298 -20.443  0.00  0.00     0.102 A 
ATOM      7  C   UNL d   1      32.863  21.888 -19.095  0.00  0.00     0.026 A 
ATOM      8  C   UNL d   1      32.999  23.098 -20.206  0.00  0.00     0.027 A 
ATOM      9  C   UNL d   1      32.844  22.671 -18.852  0.00  0.00     0.094 A 
ATOM     10  C   UNL d   1      32.912  23.281 -19.402  0.00  0.00     0.026 A 
ENDROOT
BRANCH   2  11
ATOM     11  N   UNL d   1      33.211  21.135 -22.309  0.00  0.00    -0.222 NA
BRANCH  11  12
ATOM     12  C   UNL d   1      33.033  21.701 -22.881  0.00  0.00     0.084 A 
ATOM     13  C   UNL d   1      33.240  21.562 -23.667  0.00  0.00     0.019 A 
ATOM     14  C   UNL d   1      33.063  22.124 -24.231  0.00  0.00     0.008 A 
ATOM     15  C   UNL d   1      32.677  22.832 -24.026  0.00  0.00     0.065 A 
ATOM     16  C   UNL d   1      32.471  22.967 -23.237  0.00  0.00     0.008 A 
ATOM     17  C   UNL d   1      32.652  22.397 -22.670  0.00  0.00     0.019 A 
BRANCH  15  18
ATOM     18  C   UNL d   1      32.500  23.397 -24.599  0.00  0.00     0.211 C 
ATOM     19  O   UNL d   1      33.098  23.695 -25.092  0.00  0.00    -0.644 OA
ATOM     20  O   UNL d   1      31.726  23.678 -24.695  0.00  0.00    -0.644 OA
ENDBRANCH  15  18
ENDBRANCH  11  12
ENDBRANCH   2  11
BRANCH   1  21
ATOM     21  C   UNL d   1      33.074  19.931 -21.185  0.00  0.00     0.283 C 
ATOM     22  N   UNL d   1      32.923  19.730 -21.987  0.00  0.00    -0.204 NA
ATOM     23  O   UNL d   1      33.241  19.317 -20.642  0.00  0.00    -0.265 OA
BRANCH  22  24
ATOM     24  C   UNL d   1      32.940  18.936 -22.229  0.00  0.00     0.127 C 
BRANCH  24  25
ATOM     25  C   UNL d   1      32.624  18.714 -22.956  0.00  0.00     0.119 A 
ATOM     26  O   UNL d   1      31.891  18.841 -23.316  0.00  0.00    -0.304 OA
ATOM     27  C   UNL d   1      31.891  18.486 -24.052  0.00  0.00     0.123 A 
ATOM     28  C   UNL d   1      32.613  18.135 -24.165  0.00  0.00     0.029 A 
ATOM     29  C   UNL d   1      33.071  18.272 -23.491  0.00  0.00     0.028 A 
ENDBRANCH  24  25
ENDBRANCH  22  24
ENDBRANCH   1  21
BRANCH   9  30
ATOM     30  O   UNL d   1      32.757  22.851 -18.045  0.00  0.00    -0.328 OA
ATOM     31  C   UNL d   1      32.801  23.644 -17.786  0.00  0.00     0.181 C 
ENDBRANCH   9  30
TORSDOF 7
ENDMDL
