MODEL 1
REMARK VINA RESULT:      -8.7      0.000      0.000
REMARK  6 active torsions:
REMARK  status: ('A' for Active; 'I' for Inactive)
REMARK    1  A    between atoms: N_3  and  C_1 
REMARK    2  A    between atoms: S_2  and  C_9 
REMARK    3  A    between atoms: N_10  and  S_2 
REMARK       I    between atoms: C_8  and  N_3 
REMARK    4  A    between atoms: C_20  and  N_4 
REMARK    5  A    between atoms: C_13  and  C_8 
REMARK    6  A    between atoms: O_22  and  C_14 
ROOT
ATOM      1  N   UNL d   1      51.457  34.201  53.095  0.00  0.00    -0.184 NA
ATOM      2  C   UNL d   1      50.726  33.831  52.957  0.00  0.00     0.281 C 
ATOM      3  O   UNL d   1      50.666  33.011  53.009  0.00  0.00    -0.265 OA
ENDROOT
BRANCH   1   4
ATOM      4  C   UNL d   1      52.125  33.738  53.283  0.00  0.00     0.182 A 
ATOM      5  N   UNL d   1      52.731  33.959  53.784  0.00  0.00    -0.283 N 
ATOM      6  C   UNL d   1      53.280  33.347  53.821  0.00  0.00     0.094 A 
ATOM      7  C   UNL d   1      54.001  33.262  54.238  0.00  0.00     0.111 A 
ATOM      8  C   UNL d   1      53.016  32.739  53.341  0.00  0.00     0.050 A 
ATOM      9  C   UNL d   1      54.432  32.569  54.158  0.00  0.00     0.026 A 
ATOM     10  C   UNL d   1      54.173  31.956  53.678  0.00  0.00     0.003 A 
ATOM     11  C   UNL d   1      53.459  32.042  53.266  0.00  0.00     0.008 A 
ATOM     12  S   UNL d   1      52.300  32.973  53.003  0.00  0.00    -0.048 SA
BRANCH   5  13
ATOM     13  C   UNL d   1      52.790  34.674  54.189  0.00  0.00     0.082 C 
ATOM     14  C   UNL d   1      52.959  35.284  53.664  0.00  0.00     0.021 C 
ENDBRANCH   5  13
BRANCH   7  15
ATOM     15  O   UNL d   1      54.265  33.864  54.716  0.00  0.00    -0.327 OA
ATOM     16  C   UNL d   1      54.917  33.753  55.195  0.00  0.00     0.181 C 
ENDBRANCH   7  15
ENDBRANCH   1   4
BRANCH   2  17
ATOM     17  C   UNL d   1      50.061  34.287  52.770  0.00  0.00     0.058 A 
ATOM     18  C   UNL d   1      49.693  34.728  53.358  0.00  0.00     0.005 A 
ATOM     19  C   UNL d   1      49.030  35.184  53.177  0.00  0.00     0.013 A 
ATOM     20  C   UNL d   1      48.737  35.196  52.400  0.00  0.00     0.104 A 
ATOM     21  C   UNL d   1      49.116  34.745  51.811  0.00  0.00     0.013 A 
ATOM     22  C   UNL d   1      49.779  34.289  51.992  0.00  0.00     0.005 A 
BRANCH  20  23
ATOM     23  S   UNL d   1      48.075  35.650  52.215  0.00  0.00     0.271 S 
ATOM     24  O   UNL d   1      48.039  35.234  51.493  0.00  0.00    -0.200 OA
ATOM     25  O   UNL d   1      48.114  36.055  52.925  0.00  0.00    -0.200 OA
BRANCH  23  26
ATOM     26  N   UNL d   1      47.414  36.101  52.027  0.00  0.00    -0.226 N 
ATOM     27  C   UNL d   1      47.170  36.709  52.539  0.00  0.00     0.111 C 
ATOM     28  C   UNL d   1      46.986  35.967  51.345  0.00  0.00     0.111 C 
ENDBRANCH  23  26
ENDBRANCH  20  23
ENDBRANCH   2  17
TORSDOF 6
ENDMDL
MODEL 2
REMARK VINA RESULT:      -8.1      1.166      5.796
REMARK  6 active torsions:
REMARK  status: ('A' for Active; 'I' for Inactive)
REMARK    1  A    between atoms: N_3  and  C_1 
REMARK    2  A    between atoms: S_2  and  C_9 
REMARK    3  A    between atoms: N_10  and  S_2 
REMARK       I    between atoms: C_8  and  N_3 
REMARK    4  A    between atoms: C_20  and  N_4 
REMARK    5  A    between atoms: C_13  and  C_8 
REMARK    6  A    between atoms: O_22  and  C_14 
ROOT
ATOM      1  N   UNL d   1      49.483  35.035  52.970  0.00  0.00    -0.184 NA
ATOM      2  C   UNL d   1      49.920  34.472  52.541  0.00  0.00     0.281 C 
ATOM      3  O   UNL d   1      49.621  34.174  51.833  0.00  0.00    -0.265 OA
ENDROOT
BRANCH   1   4
ATOM      4  C   UNL d   1      48.745  35.292  52.679  0.00  0.00     0.182 A 
ATOM      5  N   UNL d   1      48.165  35.664  53.118  0.00  0.00    -0.283 N 
ATOM      6  C   UNL d   1      47.525  35.827  52.625  0.00  0.00     0.094 A 
ATOM      7  C   UNL d   1      46.786  36.194  52.767  0.00  0.00     0.111 A 
ATOM      8  C   UNL d   1      47.706  35.555  51.875  0.00  0.00     0.050 A 
ATOM      9  C   UNL d   1      46.254  36.276  52.148  0.00  0.00     0.026 A 
ATOM     10  C   UNL d   1      46.429  36.006  51.393  0.00  0.00     0.003 A 
ATOM     11  C   UNL d   1      47.161  35.642  51.256  0.00  0.00     0.008 A 
ATOM     12  S   UNL d   1      48.460  35.222  51.898  0.00  0.00    -0.048 SA
BRANCH   5  13
ATOM     13  C   UNL d   1      48.205  35.850  53.920  0.00  0.00     0.082 C 
ATOM     14  C   UNL d   1      48.704  36.493  54.036  0.00  0.00     0.021 C 
ENDBRANCH   5  13
BRANCH   7  15
ATOM     15  O   UNL d   1      46.604  36.465  53.511  0.00  0.00    -0.327 OA
ATOM     16  C   UNL d   1      45.845  36.709  53.686  0.00  0.00     0.181 C 
ENDBRANCH   7  15
ENDBRANCH   1   4
BRANCH   2  17
ATOM     17  C   UNL d   1      50.653  34.213  52.825  0.00  0.00     0.058 A 
ATOM     18  C   UNL d   1      50.691  33.535  53.288  0.00  0.00     0.005 A 
ATOM     19  C   UNL d   1      51.418  33.272  53.574  0.00  0.00     0.013 A 
ATOM     20  C   UNL d   1      52.110  33.695  53.394  0.00  0.00     0.104 A 
ATOM     21  C   UNL d   1      52.061  34.381  52.925  0.00  0.00     0.013 A 
ATOM     22  C   UNL d   1      51.333  34.644  52.638  0.00  0.00     0.005 A 
BRANCH  20  23
ATOM     23  S   UNL d   1      52.838  33.436  53.678  0.00  0.00     0.271 S 
ATOM     24  O   UNL d   1      52.875  32.933  53.014  0.00  0.00    -0.200 OA
ATOM     25  O   UNL d   1      52.799  33.931  54.328  0.00  0.00    -0.200 OA
BRANCH  23  26
ATOM     26  N   UNL d   1      53.566  33.174  53.958  0.00  0.00    -0.226 N 
ATOM     27  C   UNL d   1      53.865  33.475  54.673  0.00  0.00     0.111 C 
ATOM     28  C   UNL d   1      54.006  32.621  53.550  0.00  0.00     0.111 C 
ENDBRANCH  23  26
ENDBRANCH  20  23
ENDBRANCH   2  17
TORSDOF 6
ENDMDL
