MODEL 1
REMARK VINA RESULT:       8.3      0.000      0.000
REMARK  5 active torsions:
REMARK  status: ('A' for Active; 'I' for Inactive)
REMARK    1  A    between atoms: C_2  and  C_1 
REMARK    2  A    between atoms: O_4  and  C_2 
REMARK    3  A    between atoms: C_9  and  O_4 
REMARK    4  A    between atoms: C_5  and  C_9 
REMARK    5  A    between atoms: C_12  and  C_5 
ROOT
ATOM      1  C   UNL d   1      45.947 -17.266  44.213  0.00  0.00     0.168 C 
ENDROOT
BRANCH   1   2
ATOM      2  C   UNL d   1      46.265 -17.760  43.626  0.00  0.00     0.220 C 
ATOM      3  O   UNL d   1      46.463 -17.449  42.891  0.00  0.00    -0.284 OA
BRANCH   2   4
ATOM      4  C   UNL d   1      46.379 -18.561  43.788  0.00  0.00     0.041 A 
ATOM      5  C   UNL d   1      46.468 -18.805  44.574  0.00  0.00     0.003 A 
ATOM      6  C   UNL d   1      46.582 -19.601  44.739  0.00  0.00     0.000 A 
ATOM      7  C   UNL d   1      46.607 -20.151  44.127  0.00  0.00     0.000 A 
ATOM      8  C   UNL d   1      46.517 -19.899  43.342  0.00  0.00     0.000 A 
ATOM      9  C   UNL d   1      46.404 -19.102  43.179  0.00  0.00     0.003 A 
ENDBRANCH   2   4
ENDBRANCH   1   2
BRANCH   1  10
ATOM     10  O   UNL d   1      45.964 -16.452  44.115  0.00  0.00    -0.267 OA
BRANCH  10  11
ATOM     11  C   UNL d   1      45.450 -15.975  44.542  0.00  0.00     0.306 C 
ATOM     12  O   UNL d   1      44.813 -16.306  44.943  0.00  0.00    -0.258 OA
BRANCH  11  13
ATOM     13  C   UNL d   1      45.574 -15.157  44.569  0.00  0.00     0.093 A 
ATOM     14  S   UNL d   1      44.990 -14.581  44.652  0.00  0.00    -0.081 SA
ATOM     15  C   UNL d   1      45.354 -13.843  44.652  0.00  0.00     0.036 A 
ATOM     16  C   UNL d   1      46.168 -13.959  44.569  0.00  0.00     0.008 A 
ATOM     17  C   UNL d   1      46.304 -14.768  44.519  0.00  0.00     0.012 A 
ENDBRANCH  11  13
ENDBRANCH  10  11
ENDBRANCH   1  10
TORSDOF 5
ENDMDL
MODEL 2
REMARK VINA RESULT:       8.5      1.272      4.387
REMARK  5 active torsions:
REMARK  status: ('A' for Active; 'I' for Inactive)
REMARK    1  A    between atoms: C_2  and  C_1 
REMARK    2  A    between atoms: O_4  and  C_2 
REMARK    3  A    between atoms: C_9  and  O_4 
REMARK    4  A    between atoms: C_5  and  C_9 
REMARK    5  A    between atoms: C_12  and  C_5 
ROOT
ATOM      1  C   UNL d   1      45.897 -16.302  44.001  0.00  0.00     0.168 C 
ENDROOT
BRANCH   1   2
ATOM      2  C   UNL d   1      45.425 -15.811  44.477  0.00  0.00     0.220 C 
ATOM      3  O   UNL d   1      44.843 -16.141  44.955  0.00  0.00    -0.284 OA
BRANCH   2   4
ATOM      4  C   UNL d   1      45.547 -14.995  44.465  0.00  0.00     0.041 A 
ATOM      5  C   UNL d   1      45.001 -14.512  44.074  0.00  0.00     0.003 A 
ATOM      6  C   UNL d   1      45.119 -13.699  44.059  0.00  0.00     0.000 A 
ATOM      7  C   UNL d   1      45.775 -13.369  44.431  0.00  0.00     0.000 A 
ATOM      8  C   UNL d   1      46.318 -13.861  44.821  0.00  0.00     0.000 A 
ATOM      9  C   UNL d   1      46.198 -14.674  44.834  0.00  0.00     0.003 A 
ENDBRANCH   2   4
ENDBRANCH   1   2
BRANCH   1  10
ATOM     10  O   UNL d   1      45.948 -17.104  44.165  0.00  0.00    -0.267 OA
BRANCH  10  11
ATOM     11  C   UNL d   1      46.188 -17.629  43.581  0.00  0.00     0.306 C 
ATOM     12  O   UNL d   1      46.264 -17.377  42.802  0.00  0.00    -0.258 OA
BRANCH  11  13
ATOM     13  C   UNL d   1      46.355 -18.416  43.779  0.00  0.00     0.093 A 
ATOM     14  S   UNL d   1      46.506 -19.027  43.247  0.00  0.00    -0.081 SA
ATOM     15  C   UNL d   1      46.644 -19.715  43.677  0.00  0.00     0.036 A 
ATOM     16  C   UNL d   1      46.579 -19.532  44.481  0.00  0.00     0.008 A 
ATOM     17  C   UNL d   1      46.401 -18.731  44.543  0.00  0.00     0.012 A 
ENDBRANCH  11  13
ENDBRANCH  10  11
ENDBRANCH   1  10
TORSDOF 5
ENDMDL
