MODEL 1
REMARK VINA RESULT:      52.2      0.000      0.000
REMARK  4 active torsions:
REMARK  status: ('A' for Active; 'I' for Inactive)
REMARK    1  A    between atoms: C_11  and  C_4 
REMARK    2  A    between atoms: N_10  and  C_5 
REMARK    3  A    between atoms: C_15  and  N_10 
REMARK    4  A    between atoms: C_16  and  C_15 
ROOT
ATOM      1  N   UNL d   1      13.459  13.499  -3.178  0.00  0.00    -0.195 N 
ATOM      2  C   UNL d   1      13.510  13.759  -3.954  0.00  0.00     0.167 A 
ATOM      3  N   UNL d   1      13.640  14.132  -2.694  0.00  0.00    -0.163 NA
ATOM      4  C   UNL d   1      13.722  14.551  -3.944  0.00  0.00     0.055 A 
ATOM      5  C   UNL d   1      13.253  12.720  -3.022  0.00  0.00     0.167 A 
ATOM      6  C   UNL d   1      13.802  14.779  -3.177  0.00  0.00     0.104 A 
ATOM      7  N   UNL d   1      13.356  13.240  -4.577  0.00  0.00    -0.227 NA
ATOM      8  C   UNL d   1      13.097  12.194  -3.648  0.00  0.00     0.058 A 
ATOM      9  C   UNL d   1      13.148  12.450  -4.415  0.00  0.00     0.086 A 
ATOM     10  C   UNL d   1      14.011  15.538  -2.923  0.00  0.00     0.023 C 
ATOM     11  C   UNL d   1      12.990  11.916  -5.044  0.00  0.00     0.021 C 
ENDROOT
BRANCH   5  12
ATOM     12  N   UNL d   1      13.201  12.458  -2.237  0.00  0.00    -0.224 NA
BRANCH  12  13
ATOM     13  C   UNL d   1      13.602  11.779  -2.007  0.00  0.00     0.120 C 
BRANCH  13  14
ATOM     14  C   UNL d   1      14.169  11.821  -1.405  0.00  0.00     0.101 A 
ATOM     15  N   UNL d   1      14.975  11.901  -1.597  0.00  0.00    -0.242 NA
ATOM     16  C   UNL d   1      15.540  11.942  -0.998  0.00  0.00     0.099 A 
ATOM     17  C   UNL d   1      15.301  11.903  -0.204  0.00  0.00     0.021 A 
ATOM     18  C   UNL d   1      14.505  11.824  -0.014  0.00  0.00     0.003 A 
ATOM     19  C   UNL d   1      13.940  11.783  -0.613  0.00  0.00     0.021 A 
ENDBRANCH  13  14
ENDBRANCH  12  13
ENDBRANCH   5  12
BRANCH   4  20
ATOM     20  C   UNL d   1      13.855  15.098  -4.557  0.00  0.00     0.004 A 
ATOM     21  C   UNL d   1      13.251  15.285  -5.086  0.00  0.00     0.001 A 
ATOM     22  C   UNL d   1      13.379  15.828  -5.694  0.00  0.00     0.011 A 
ATOM     23  C   UNL d   1      14.120  16.184  -5.769  0.00  0.00     0.058 A 
ATOM     24  C   UNL d   1      14.729  15.996  -5.236  0.00  0.00     0.011 A 
ATOM     25 CL   UNL d   1      14.249  16.736  -6.389  0.00  0.00    -0.082 Cl
ATOM     26  C   UNL d   1      14.596  15.454  -4.631  0.00  0.00     0.001 A 
ENDBRANCH   4  20
TORSDOF 4
ENDMDL
MODEL 2
REMARK VINA RESULT:      54.5      1.945      3.750
REMARK  4 active torsions:
REMARK  status: ('A' for Active; 'I' for Inactive)
REMARK    1  A    between atoms: C_11  and  C_4 
REMARK    2  A    between atoms: N_10  and  C_5 
REMARK    3  A    between atoms: C_15  and  N_10 
REMARK    4  A    between atoms: C_16  and  C_15 
ROOT
ATOM      1  N   UNL d   1      14.034  13.538  -2.339  0.00  0.00    -0.195 N 
ATOM      2  C   UNL d   1      14.441  13.877  -1.713  0.00  0.00     0.167 A 
ATOM      3  N   UNL d   1      13.821  14.139  -2.849  0.00  0.00    -0.163 NA
ATOM      4  C   UNL d   1      14.476  14.686  -1.840  0.00  0.00     0.055 A 
ATOM      5  C   UNL d   1      13.916  12.725  -2.355  0.00  0.00     0.167 A 
ATOM      6  C   UNL d   1      14.099  14.846  -2.532  0.00  0.00     0.104 A 
ATOM      7  N   UNL d   1      14.730  13.405  -1.101  0.00  0.00    -0.227 NA
ATOM      8  C   UNL d   1      14.206  12.246  -1.740  0.00  0.00     0.058 A 
ATOM      9  C   UNL d   1      14.608  12.582  -1.120  0.00  0.00     0.086 A 
ATOM     10  C   UNL d   1      14.008  15.599  -2.864  0.00  0.00     0.023 C 
ATOM     11  C   UNL d   1      14.900  12.094  -0.501  0.00  0.00     0.021 C 
ENDROOT
BRANCH   5  12
ATOM     12  N   UNL d   1      13.505  12.382  -2.988  0.00  0.00    -0.224 NA
BRANCH  12  13
ATOM     13  C   UNL d   1      13.881  11.836  -3.471  0.00  0.00     0.120 C 
BRANCH  13  14
ATOM     14  C   UNL d   1      13.722  11.825  -4.284  0.00  0.00     0.101 A 
ATOM     15  N   UNL d   1      14.348  11.790  -4.831  0.00  0.00    -0.242 NA
ATOM     16  C   UNL d   1      14.189  11.780  -5.640  0.00  0.00     0.099 A 
ATOM     17  C   UNL d   1      13.402  11.804  -5.905  0.00  0.00     0.021 A 
ATOM     18  C   UNL d   1      12.784  11.838  -5.364  0.00  0.00     0.003 A 
ATOM     19  C   UNL d   1      12.943  11.849  -4.556  0.00  0.00     0.021 A 
ENDBRANCH  13  14
ENDBRANCH  12  13
ENDBRANCH   5  12
BRANCH   4  20
ATOM     20  C   UNL d   1      14.814  15.304  -1.398  0.00  0.00     0.004 A 
ATOM     21  C   UNL d   1      15.160  15.151  -0.665  0.00  0.00     0.001 A 
ATOM     22  C   UNL d   1      15.496  15.762  -0.224  0.00  0.00     0.011 A 
ATOM     23  C   UNL d   1      15.483  16.531  -0.523  0.00  0.00     0.058 A 
ATOM     24  C   UNL d   1      15.135  16.686  -1.261  0.00  0.00     0.011 A 
ATOM     25 CL   UNL d   1      15.826  17.152  -0.073  0.00  0.00    -0.082 Cl
ATOM     26  C   UNL d   1      14.801  16.074  -1.697  0.00  0.00     0.001 A 
ENDBRANCH   4  20
TORSDOF 4
ENDMDL
MODEL 3
REMARK VINA RESULT:      54.8      2.111      3.455
REMARK  4 active torsions:
REMARK  status: ('A' for Active; 'I' for Inactive)
REMARK    1  A    between atoms: C_11  and  C_4 
REMARK    2  A    between atoms: N_10  and  C_5 
REMARK    3  A    between atoms: C_15  and  N_10 
REMARK    4  A    between atoms: C_16  and  C_15 
ROOT
ATOM      1  N   UNL d   1      14.114  13.967  -2.043  0.00  0.00    -0.195 N 
ATOM      2  C   UNL d   1      14.076  13.301  -2.521  0.00  0.00     0.167 A 
ATOM      3  N   UNL d   1      13.799  14.591  -2.466  0.00  0.00    -0.163 NA
ATOM      4  C   UNL d   1      13.738  13.519  -3.235  0.00  0.00     0.055 A 
ATOM      5  C   UNL d   1      14.431  13.909  -1.289  0.00  0.00     0.167 A 
ATOM      6  C   UNL d   1      13.569  14.304  -3.203  0.00  0.00     0.104 A 
ATOM      7  N   UNL d   1      14.355  12.575  -2.245  0.00  0.00    -0.227 NA
ATOM      8  C   UNL d   1      14.714  13.179  -1.007  0.00  0.00     0.058 A 
ATOM      9  C   UNL d   1      14.676  12.520  -1.479  0.00  0.00     0.086 A 
ATOM     10  C   UNL d   1      13.221  14.745  -3.812  0.00  0.00     0.023 C 
ATOM     11  C   UNL d   1      14.962  11.785  -1.191  0.00  0.00     0.021 C 
ENDROOT
BRANCH   5  12
ATOM     12  N   UNL d   1      14.469  14.582  -0.806  0.00  0.00    -0.224 NA
BRANCH  12  13
ATOM     13  C   UNL d   1      15.186  14.808  -0.477  0.00  0.00     0.120 C 
BRANCH  13  14
ATOM     14  C   UNL d   1      15.429  15.598  -0.522  0.00  0.00     0.101 A 
ATOM     15  N   UNL d   1      16.216  15.804  -0.342  0.00  0.00    -0.242 NA
ATOM     16  C   UNL d   1      16.457  16.591  -0.386  0.00  0.00     0.099 A 
ATOM     17  C   UNL d   1      15.913  17.177  -0.611  0.00  0.00     0.021 A 
ATOM     18  C   UNL d   1      15.136  16.973  -0.788  0.00  0.00     0.003 A 
ATOM     19  C   UNL d   1      14.894  16.187  -0.744  0.00  0.00     0.021 A 
ENDBRANCH  13  14
ENDBRANCH  12  13
ENDBRANCH   5  12
BRANCH   4  20
ATOM     20  C   UNL d   1      13.562  13.084  -3.922  0.00  0.00     0.004 A 
ATOM     21  C   UNL d   1      13.805  13.356  -4.661  0.00  0.00     0.001 A 
ATOM     22  C   UNL d   1      13.632  12.928  -5.344  0.00  0.00     0.011 A 
ATOM     23  C   UNL d   1      13.211  12.220  -5.282  0.00  0.00     0.058 A 
ATOM     24  C   UNL d   1      12.967  11.945  -4.538  0.00  0.00     0.011 A 
ATOM     25 CL   UNL d   1      13.036  11.784  -5.979  0.00  0.00    -0.082 Cl
ATOM     26  C   UNL d   1      13.141  12.376  -3.860  0.00  0.00     0.001 A 
ENDBRANCH   4  20
TORSDOF 4
ENDMDL
