MODEL 1
REMARK VINA RESULT:      -3.7      0.000      0.000
REMARK  4 active torsions:
REMARK  status: ('A' for Active; 'I' for Inactive)
REMARK    1  A    between atoms: C_2  and  C_1 
REMARK    2  A    between atoms: N_12  and  C_6 
REMARK    3  A    between atoms: C_16  and  N_12 
REMARK    4  A    between atoms: O_25  and  C_17 
ROOT
ATOM      1  C   UNL d   1      32.740  18.474 -23.442  0.00  0.00     0.082 A 
ATOM      2  C   UNL d   1      32.923  18.995 -24.058  0.00  0.00     0.302 A 
ATOM      3  C   UNL d   1      32.723  18.747 -22.651  0.00  0.00     0.009 A 
ATOM      4  O   UNL d   1      33.091  19.791 -23.898  0.00  0.00    -0.273 OA
ATOM      5  C   UNL d   1      32.891  19.542 -22.498  0.00  0.00     0.025 A 
ATOM      6  C   UNL d   1      33.076  20.068 -23.119  0.00  0.00     0.103 A 
ATOM      7  O   UNL d   1      32.939  18.720 -24.839  0.00  0.00    -0.259 OA
ATOM      8  C   UNL d   1      32.875  19.814 -21.719  0.00  0.00     0.026 A 
ATOM      9  C   UNL d   1      33.241  20.857 -22.950  0.00  0.00     0.027 A 
ATOM     10  C   UNL d   1      33.042  20.607 -21.562  0.00  0.00     0.094 A 
ATOM     11  C   UNL d   1      33.224  21.126 -22.174  0.00  0.00     0.026 A 
ENDROOT
BRANCH   1  12
ATOM     12  C   UNL d   1      32.574  17.685 -23.605  0.00  0.00     0.095 A 
ATOM     13  N   UNL d   1      31.899  17.398 -23.964  0.00  0.00    -0.221 NA
ATOM     14  C   UNL d   1      31.964  16.581 -24.018  0.00  0.00     0.194 A 
ATOM     15  S   UNL d   1      32.684  16.363 -23.691  0.00  0.00    -0.046 SA
ATOM     16  C   UNL d   1      33.068  17.051 -23.432  0.00  0.00     0.058 A 
BRANCH  14  17
ATOM     17  N   UNL d   1      31.404  16.075 -24.344  0.00  0.00    -0.221 NA
BRANCH  17  18
ATOM     18  C   UNL d   1      30.670  15.991 -23.972  0.00  0.00     0.084 A 
ATOM     19  C   UNL d   1      30.008  16.370 -24.292  0.00  0.00     0.022 A 
ATOM     20  C   UNL d   1      29.278  16.293 -23.931  0.00  0.00     0.044 A 
ATOM     21  C   UNL d   1      29.211  15.833 -23.246  0.00  0.00     0.196 A 
ATOM     22  C   UNL d   1      29.876  15.455 -22.930  0.00  0.00     0.044 A 
ATOM     23  O   UNL d   1      28.474  15.754 -22.880  0.00  0.00    -0.287 OA
ATOM     24  C   UNL d   1      30.603  15.539 -23.299  0.00  0.00     0.022 A 
ENDBRANCH  17  18
ENDBRANCH  14  17
ENDBRANCH   1  12
BRANCH  10  25
ATOM     25  O   UNL d   1      33.026  20.876 -20.786  0.00  0.00    -0.328 OA
ATOM     26  C   UNL d   1      33.140  21.675 -20.625  0.00  0.00     0.181 C 
ENDBRANCH  10  25
TORSDOF 4
ENDMDL
MODEL 2
REMARK VINA RESULT:      -2.9      1.509      5.044
REMARK  4 active torsions:
REMARK  status: ('A' for Active; 'I' for Inactive)
REMARK    1  A    between atoms: C_2  and  C_1 
REMARK    2  A    between atoms: N_12  and  C_6 
REMARK    3  A    between atoms: C_16  and  N_12 
REMARK    4  A    between atoms: O_25  and  C_17 
ROOT
ATOM      1  C   UNL d   1      32.028  17.837 -23.821  0.00  0.00     0.082 A 
ATOM      2  C   UNL d   1      32.415  17.156 -24.086  0.00  0.00     0.302 A 
ATOM      3  C   UNL d   1      31.194  17.892 -23.867  0.00  0.00     0.009 A 
ATOM      4  O   UNL d   1      31.981  16.522 -24.400  0.00  0.00    -0.273 OA
ATOM      5  C   UNL d   1      30.767  17.257 -24.181  0.00  0.00     0.025 A 
ATOM      6  C   UNL d   1      31.157  16.569 -24.449  0.00  0.00     0.103 A 
ATOM      7  O   UNL d   1      33.240  17.106 -24.038  0.00  0.00    -0.259 OA
ATOM      8  C   UNL d   1      29.945  17.309 -24.228  0.00  0.00     0.026 A 
ATOM      9  C   UNL d   1      30.718  15.946 -24.759  0.00  0.00     0.027 A 
ATOM     10  C   UNL d   1      29.515  16.677 -24.541  0.00  0.00     0.094 A 
ATOM     11  C   UNL d   1      29.900  15.999 -24.805  0.00  0.00     0.026 A 
ENDROOT
BRANCH   1  12
ATOM     12  C   UNL d   1      32.462  18.462 -23.510  0.00  0.00     0.095 A 
ATOM     13  N   UNL d   1      32.541  18.649 -22.719  0.00  0.00    -0.221 NA
ATOM     14  C   UNL d   1      33.021  19.313 -22.658  0.00  0.00     0.194 A 
ATOM     15  S   UNL d   1      33.240  19.537 -23.417  0.00  0.00    -0.046 SA
ATOM     16  C   UNL d   1      32.892  19.007 -23.952  0.00  0.00     0.058 A 
BRANCH  14  17
ATOM     17  N   UNL d   1      33.241  19.685 -21.958  0.00  0.00    -0.221 NA
BRANCH  17  18
ATOM     18  C   UNL d   1      32.910  20.419 -21.769  0.00  0.00     0.084 A 
ATOM     19  C   UNL d   1      32.262  20.451 -21.256  0.00  0.00     0.022 A 
ATOM     20  C   UNL d   1      31.928  21.173 -21.063  0.00  0.00     0.044 A 
ATOM     21  C   UNL d   1      32.246  21.866 -21.386  0.00  0.00     0.196 A 
ATOM     22  C   UNL d   1      32.894  21.829 -21.899  0.00  0.00     0.044 A 
ATOM     23  O   UNL d   1      31.910  22.596 -21.192  0.00  0.00    -0.287 OA
ATOM     24  C   UNL d   1      33.221  21.100 -22.086  0.00  0.00     0.022 A 
ENDBRANCH  17  18
ENDBRANCH  14  17
ENDBRANCH   1  12
BRANCH  10  25
ATOM     25  O   UNL d   1      28.697  16.730 -24.587  0.00  0.00    -0.328 OA
ATOM     26  C   UNL d   1      28.229  16.103 -24.332  0.00  0.00     0.181 C 
ENDBRANCH  10  25
TORSDOF 4
ENDMDL
MODEL 3
REMARK VINA RESULT:      -2.6      1.321      2.225
REMARK  4 active torsions:
REMARK  status: ('A' for Active; 'I' for Inactive)
REMARK    1  A    between atoms: C_2  and  C_1 
REMARK    2  A    between atoms: N_12  and  C_6 
REMARK    3  A    between atoms: C_16  and  N_12 
REMARK    4  A    between atoms: O_25  and  C_17 
ROOT
ATOM      1  C   UNL d   1      33.061  20.337 -22.421  0.00  0.00     0.082 A 
ATOM      2  C   UNL d   1      33.149  20.951 -22.969  0.00  0.00     0.302 A 
ATOM      3  C   UNL d   1      32.968  20.511 -21.608  0.00  0.00     0.009 A 
ATOM      4  O   UNL d   1      33.144  21.741 -22.718  0.00  0.00    -0.273 OA
ATOM      5  C   UNL d   1      32.964  21.301 -21.364  0.00  0.00     0.025 A 
ATOM      6  C   UNL d   1      33.052  21.920 -21.916  0.00  0.00     0.103 A 
ATOM      7  O   UNL d   1      33.241  20.774 -23.773  0.00  0.00    -0.259 OA
ATOM      8  C   UNL d   1      32.872  21.474 -20.562  0.00  0.00     0.026 A 
ATOM      9  C   UNL d   1      33.046  22.702 -21.658  0.00  0.00     0.027 A 
ATOM     10  C   UNL d   1      32.867  22.262 -20.314  0.00  0.00     0.094 A 
ATOM     11  C   UNL d   1      32.954  22.872 -20.859  0.00  0.00     0.026 A 
ENDROOT
BRANCH   1  12
ATOM     12  C   UNL d   1      33.066  19.555 -22.674  0.00  0.00     0.095 A 
ATOM     13  N   UNL d   1      32.901  19.291 -23.429  0.00  0.00    -0.221 NA
ATOM     14  C   UNL d   1      32.970  18.473 -23.436  0.00  0.00     0.194 A 
ATOM     15  S   UNL d   1      33.180  18.230 -22.681  0.00  0.00    -0.046 SA
ATOM     16  C   UNL d   1      33.241  18.905 -22.202  0.00  0.00     0.058 A 
BRANCH  14  17
ATOM     17  N   UNL d   1      32.850  17.985 -24.088  0.00  0.00    -0.221 NA
BRANCH  17  18
ATOM     18  C   UNL d   1      32.147  17.553 -24.145  0.00  0.00     0.084 A 
ATOM     19  C   UNL d   1      32.078  16.836 -23.739  0.00  0.00     0.022 A 
ATOM     20  C   UNL d   1      31.386  16.402 -23.789  0.00  0.00     0.044 A 
ATOM     21  C   UNL d   1      30.761  16.689 -24.251  0.00  0.00     0.196 A 
ATOM     22  C   UNL d   1      30.835  17.406 -24.656  0.00  0.00     0.044 A 
ATOM     23  O   UNL d   1      30.061  16.251 -24.303  0.00  0.00    -0.287 OA
ATOM     24  C   UNL d   1      31.532  17.834 -24.598  0.00  0.00     0.022 A 
ENDBRANCH  17  18
ENDBRANCH  14  17
ENDBRANCH   1  12
BRANCH  10  25
ATOM     25  O   UNL d   1      32.776  22.433 -19.517  0.00  0.00    -0.328 OA
ATOM     26  C   UNL d   1      33.191  23.058 -19.179  0.00  0.00     0.181 C 
ENDBRANCH  10  25
TORSDOF 4
ENDMDL
MODEL 4
REMARK VINA RESULT:      -1.8      1.201      5.056
REMARK  4 active torsions:
REMARK  status: ('A' for Active; 'I' for Inactive)
REMARK    1  A    between atoms: C_2  and  C_1 
REMARK    2  A    between atoms: N_12  and  C_6 
REMARK    3  A    between atoms: C_16  and  N_12 
REMARK    4  A    between atoms: O_25  and  C_17 
ROOT
ATOM      1  C   UNL d   1      31.258  16.781 -24.091  0.00  0.00     0.082 A 
ATOM      2  C   UNL d   1      31.330  16.200 -24.675  0.00  0.00     0.302 A 
ATOM      3  C   UNL d   1      30.513  16.936 -23.743  0.00  0.00     0.009 A 
ATOM      4  O   UNL d   1      30.667  15.767 -24.922  0.00  0.00    -0.273 OA
ATOM      5  C   UNL d   1      29.855  16.502 -23.993  0.00  0.00     0.025 A 
ATOM      6  C   UNL d   1      29.928  15.915 -24.583  0.00  0.00     0.103 A 
ATOM      7  O   UNL d   1      32.070  16.050 -25.016  0.00  0.00    -0.259 OA
ATOM      8  C   UNL d   1      29.119  16.653 -23.651  0.00  0.00     0.026 A 
ATOM      9  C   UNL d   1      29.264  15.491 -24.821  0.00  0.00     0.027 A 
ATOM     10  C   UNL d   1      28.460  16.221 -23.898  0.00  0.00     0.094 A 
ATOM     11  C   UNL d   1      28.532  15.643 -24.479  0.00  0.00     0.026 A 
ENDROOT
BRANCH   1  12
ATOM     12  C   UNL d   1      31.918  17.207 -23.850  0.00  0.00     0.095 A 
ATOM     13  N   UNL d   1      32.134  17.950 -24.110  0.00  0.00    -0.221 NA
ATOM     14  C   UNL d   1      32.827  18.166 -23.726  0.00  0.00     0.194 A 
ATOM     15  S   UNL d   1      33.041  17.551 -23.226  0.00  0.00    -0.046 SA
ATOM     16  C   UNL d   1      32.474  16.951 -23.301  0.00  0.00     0.058 A 
BRANCH  14  17
ATOM     17  N   UNL d   1      33.233  18.874 -23.828  0.00  0.00    -0.221 NA
BRANCH  17  18
ATOM     18  C   UNL d   1      33.233  19.432 -23.218  0.00  0.00     0.084 A 
ATOM     19  C   UNL d   1      33.226  20.238 -23.405  0.00  0.00     0.022 A 
ATOM     20  C   UNL d   1      33.225  20.797 -22.808  0.00  0.00     0.044 A 
ATOM     21  C   UNL d   1      33.233  20.546 -22.018  0.00  0.00     0.196 A 
ATOM     22  C   UNL d   1      33.240  19.739 -21.836  0.00  0.00     0.044 A 
ATOM     23  O   UNL d   1      33.232  21.110 -21.414  0.00  0.00    -0.287 OA
ATOM     24  C   UNL d   1      33.241  19.187 -22.442  0.00  0.00     0.022 A 
ENDBRANCH  17  18
ENDBRANCH  14  17
ENDBRANCH   1  12
BRANCH  10  25
ATOM     25  O   UNL d   1      27.728  16.373 -23.558  0.00  0.00    -0.328 OA
ATOM     26  C   UNL d   1      27.234  15.749 -23.347  0.00  0.00     0.181 C 
ENDBRANCH  10  25
TORSDOF 4
ENDMDL
MODEL 5
REMARK VINA RESULT:      -1.2      1.668      5.173
REMARK  4 active torsions:
REMARK  status: ('A' for Active; 'I' for Inactive)
REMARK    1  A    between atoms: C_2  and  C_1 
REMARK    2  A    between atoms: N_12  and  C_6 
REMARK    3  A    between atoms: C_16  and  N_12 
REMARK    4  A    between atoms: O_25  and  C_17 
ROOT
ATOM      1  C   UNL d   1      32.557  18.734 -23.444  0.00  0.00     0.082 A 
ATOM      2  C   UNL d   1      32.763  18.787 -24.243  0.00  0.00     0.302 A 
ATOM      3  C   UNL d   1      32.105  18.085 -23.169  0.00  0.00     0.009 A 
ATOM      4  O   UNL d   1      32.526  18.199 -24.778  0.00  0.00    -0.273 OA
ATOM      5  C   UNL d   1      31.871  17.502 -23.706  0.00  0.00     0.025 A 
ATOM      6  C   UNL d   1      32.079  17.556 -24.513  0.00  0.00     0.103 A 
ATOM      7  O   UNL d   1      33.211  19.430 -24.510  0.00  0.00    -0.259 OA
ATOM      8  C   UNL d   1      31.426  16.862 -23.438  0.00  0.00     0.026 A 
ATOM      9  C   UNL d   1      31.839  16.967 -25.037  0.00  0.00     0.027 A 
ATOM     10  C   UNL d   1      31.190  16.278 -23.972  0.00  0.00     0.094 A 
ATOM     11  C   UNL d   1      31.395  16.330 -24.767  0.00  0.00     0.026 A 
ENDROOT
BRANCH   1  12
ATOM     12  C   UNL d   1      32.795  19.318 -22.917  0.00  0.00     0.095 A 
ATOM     13  N   UNL d   1      32.844  20.118 -23.074  0.00  0.00    -0.221 NA
ATOM     14  C   UNL d   1      33.105  20.498 -22.394  0.00  0.00     0.194 A 
ATOM     15  S   UNL d   1      33.217  19.929 -21.814  0.00  0.00    -0.046 SA
ATOM     16  C   UNL d   1      33.024  19.190 -22.138  0.00  0.00     0.058 A 
BRANCH  14  17
ATOM     17  N   UNL d   1      33.230  21.307 -22.313  0.00  0.00    -0.221 NA
BRANCH  17  18
ATOM     18  C   UNL d   1      32.950  21.694 -21.638  0.00  0.00     0.084 A 
ATOM     19  C   UNL d   1      32.395  22.302 -21.721  0.00  0.00     0.022 A 
ATOM     20  C   UNL d   1      32.112  22.690 -21.059  0.00  0.00     0.044 A 
ATOM     21  C   UNL d   1      32.387  22.468 -20.310  0.00  0.00     0.196 A 
ATOM     22  C   UNL d   1      32.942  21.859 -20.232  0.00  0.00     0.044 A 
ATOM     23  O   UNL d   1      32.102  22.859 -19.640  0.00  0.00    -0.287 OA
ATOM     24  C   UNL d   1      33.219  21.477 -20.902  0.00  0.00     0.022 A 
ENDBRANCH  17  18
ENDBRANCH  14  17
ENDBRANCH   1  12
BRANCH  10  25
ATOM     25  O   UNL d   1      30.746  15.641 -23.703  0.00  0.00    -0.328 OA
ATOM     26  C   UNL d   1      29.935  15.619 -23.835  0.00  0.00     0.181 C 
ENDBRANCH  10  25
TORSDOF 4
ENDMDL
