MODEL 1
REMARK VINA RESULT:      -7.6      0.000      0.000
REMARK  5 active torsions:
REMARK  status: ('A' for Active; 'I' for Inactive)
REMARK    1  A    between atoms: C_6  and  C_1 
REMARK    2  A    between atoms: C_14  and  N_3 
REMARK    3  A    between atoms: O_9  and  C_6 
REMARK    4  A    between atoms: C_15  and  O_9 
REMARK    5  A    between atoms: C_16  and  C_14 
ROOT
ATOM      1  C   UNL d   1     -47.335  13.733  22.914  0.00  0.00     0.120 A 
ATOM      2  C   UNL d   1     -47.621  14.491  22.752  0.00  0.00     0.177 A 
ATOM      3  N   UNL d   1     -48.443  14.466  22.807  0.00  0.00    -0.273 N 
ATOM      4  C   UNL d   1     -48.668  13.699  23.001  0.00  0.00     0.167 A 
ATOM      5  C   UNL d   1     -47.985  13.249  23.067  0.00  0.00     0.124 A 
ATOM      6  N   UNL d   1     -49.405  13.362  23.125  0.00  0.00    -0.225 NA
ATOM      7  N   UNL d   1     -48.041  12.453  23.258  0.00  0.00    -0.241 NA
ATOM      8  C   UNL d   1     -49.461  12.565  23.316  0.00  0.00     0.101 A 
ATOM      9  C   UNL d   1     -48.780  12.107  23.383  0.00  0.00     0.099 A 
ATOM     10  N   UNL d   1     -47.171  15.159  22.568  0.00  0.00    -0.128 N 
ATOM     11  C   UNL d   1     -50.198  12.229  23.439  0.00  0.00     0.021 A 
ATOM     12  C   UNL d   1     -48.840  11.313  23.574  0.00  0.00     0.021 A 
ATOM     13  C   UNL d   1     -50.256  11.421  23.633  0.00  0.00     0.002 A 
ATOM     14  C   UNL d   1     -49.576  10.976  23.698  0.00  0.00     0.002 A 
ENDROOT
BRANCH   1  15
ATOM     15  C   UNL d   1     -46.539  13.511  22.919  0.00  0.00     0.300 C 
ATOM     16  O   UNL d   1     -46.115  13.537  23.623  0.00  0.00    -0.259 OA
BRANCH  15  17
ATOM     17  O   UNL d   1     -46.168  13.264  22.222  0.00  0.00    -0.303 OA
BRANCH  17  18
ATOM     18  C   UNL d   1     -45.409  12.972  22.253  0.00  0.00     0.102 C 
ATOM     19  C   UNL d   1     -45.118  13.653  21.887  0.00  0.00     0.030 C 
ATOM     20  C   UNL d   1     -45.688  12.284  22.619  0.00  0.00     0.030 C 
ATOM     21  C   UNL d   1     -44.628  12.663  22.289  0.00  0.00     0.030 C 
ENDBRANCH  17  18
ENDBRANCH  15  17
ENDBRANCH   1  15
BRANCH   3  22
ATOM     22  C   UNL d   1     -48.956  15.098  22.688  0.00  0.00     0.083 C 
BRANCH  22  23
ATOM     23  C   UNL d   1     -49.285  15.482  23.341  0.00  0.00     0.019 C 
ATOM     24  C   UNL d   1     -49.980  15.922  23.249  0.00  0.00     0.002 C 
ENDBRANCH  22  23
ENDBRANCH   3  22
TORSDOF 5
ENDMDL
MODEL 2
REMARK VINA RESULT:      -6.9      0.700      2.620
REMARK  5 active torsions:
REMARK  status: ('A' for Active; 'I' for Inactive)
REMARK    1  A    between atoms: C_6  and  C_1 
REMARK    2  A    between atoms: C_14  and  N_3 
REMARK    3  A    between atoms: O_9  and  C_6 
REMARK    4  A    between atoms: C_15  and  O_9 
REMARK    5  A    between atoms: C_16  and  C_14 
ROOT
ATOM      1  C   UNL d   1     -47.170  12.855  23.154  0.00  0.00     0.120 A 
ATOM      2  C   UNL d   1     -47.541  12.159  23.399  0.00  0.00     0.177 A 
ATOM      3  N   UNL d   1     -48.348  12.316  23.468  0.00  0.00    -0.273 N 
ATOM      4  C   UNL d   1     -48.478  13.103  23.266  0.00  0.00     0.167 A 
ATOM      5  C   UNL d   1     -47.752  13.434  23.072  0.00  0.00     0.124 A 
ATOM      6  N   UNL d   1     -49.164  13.552  23.235  0.00  0.00    -0.225 NA
ATOM      7  N   UNL d   1     -47.713  14.222  22.847  0.00  0.00    -0.241 NA
ATOM      8  C   UNL d   1     -49.124  14.340  23.009  0.00  0.00     0.101 A 
ATOM      9  C   UNL d   1     -48.399  14.678  22.814  0.00  0.00     0.099 A 
ATOM     10  N   UNL d   1     -47.177  11.433  23.552  0.00  0.00    -0.128 N 
ATOM     11  C   UNL d   1     -49.810  14.788  22.979  0.00  0.00     0.021 A 
ATOM     12  C   UNL d   1     -48.364  15.465  22.589  0.00  0.00     0.021 A 
ATOM     13  C   UNL d   1     -49.772  15.587  22.751  0.00  0.00     0.002 A 
ATOM     14  C   UNL d   1     -49.049  15.914  22.559  0.00  0.00     0.002 A 
ENDROOT
BRANCH   1  15
ATOM     15  C   UNL d   1     -46.360  12.944  23.016  0.00  0.00     0.300 C 
ATOM     16  O   UNL d   1     -45.896  13.338  23.568  0.00  0.00    -0.259 OA
BRANCH  15  17
ATOM     17  O   UNL d   1     -46.015  12.640  22.328  0.00  0.00    -0.303 OA
BRANCH  17  18
ATOM     18  C   UNL d   1     -45.222  12.762  22.188  0.00  0.00     0.102 C 
ATOM     19  C   UNL d   1     -45.385  13.482  21.817  0.00  0.00     0.030 C 
ATOM     20  C   UNL d   1     -45.047  12.043  22.558  0.00  0.00     0.030 C 
ATOM     21  C   UNL d   1     -44.403  12.879  22.049  0.00  0.00     0.030 C 
ENDBRANCH  17  18
ENDBRANCH  15  17
ENDBRANCH   1  15
BRANCH   3  22
ATOM     22  C   UNL d   1     -48.928  11.780  23.698  0.00  0.00     0.083 C 
BRANCH  22  23
ATOM     23  C   UNL d   1     -49.416  11.440  23.125  0.00  0.00     0.019 C 
ATOM     24  C   UNL d   1     -50.110  11.053  23.358  0.00  0.00     0.002 C 
ENDBRANCH  22  23
ENDBRANCH   3  22
TORSDOF 5
ENDMDL
MODEL 3
REMARK VINA RESULT:      -6.9      1.630      4.323
REMARK  5 active torsions:
REMARK  status: ('A' for Active; 'I' for Inactive)
REMARK    1  A    between atoms: C_6  and  C_1 
REMARK    2  A    between atoms: C_14  and  N_3 
REMARK    3  A    between atoms: O_9  and  C_6 
REMARK    4  A    between atoms: C_15  and  O_9 
REMARK    5  A    between atoms: C_16  and  C_14 
ROOT
ATOM      1  C   UNL d   1     -48.090  12.038  23.194  0.00  0.00     0.120 A 
ATOM      2  C   UNL d   1     -47.568  11.452  23.451  0.00  0.00     0.177 A 
ATOM      3  N   UNL d   1     -46.812  11.782  23.473  0.00  0.00    -0.273 N 
ATOM      4  C   UNL d   1     -46.864  12.568  23.231  0.00  0.00     0.167 A 
ATOM      5  C   UNL d   1     -47.652  12.723  23.060  0.00  0.00     0.124 A 
ATOM      6  N   UNL d   1     -46.295  13.152  23.148  0.00  0.00    -0.225 NA
ATOM      7  N   UNL d   1     -47.871  13.471  22.803  0.00  0.00    -0.241 NA
ATOM      8  C   UNL d   1     -46.514  13.900  22.891  0.00  0.00     0.101 A 
ATOM      9  C   UNL d   1     -47.302  14.063  22.717  0.00  0.00     0.099 A 
ATOM     10  N   UNL d   1     -47.758  10.674  23.652  0.00  0.00    -0.128 N 
ATOM     11  C   UNL d   1     -45.944  14.483  22.808  0.00  0.00     0.021 A 
ATOM     12  C   UNL d   1     -47.517  14.811  22.461  0.00  0.00     0.021 A 
ATOM     13  C   UNL d   1     -46.164  15.242  22.548  0.00  0.00     0.002 A 
ATOM     14  C   UNL d   1     -46.948  15.395  22.378  0.00  0.00     0.002 A 
ENDROOT
BRANCH   1  15
ATOM     15  C   UNL d   1     -48.905  11.943  23.093  0.00  0.00     0.300 C 
ATOM     16  O   UNL d   1     -49.189  11.556  22.425  0.00  0.00    -0.259 OA
BRANCH  15  17
ATOM     17  O   UNL d   1     -49.435  12.234  23.658  0.00  0.00    -0.303 OA
BRANCH  17  18
ATOM     18  C   UNL d   1     -50.236  12.140  23.545  0.00  0.00     0.102 C 
ATOM     19  C   UNL d   1     -50.175  11.330  23.697  0.00  0.00     0.030 C 
ATOM     20  C   UNL d   1     -50.309  12.949  23.391  0.00  0.00     0.030 C 
ATOM     21  C   UNL d   1     -51.062  12.051  23.426  0.00  0.00     0.030 C 
ENDBRANCH  17  18
ENDBRANCH  15  17
ENDBRANCH   1  15
BRANCH   3  22
ATOM     22  C   UNL d   1     -46.121  11.397  23.697  0.00  0.00     0.083 C 
BRANCH  22  23
ATOM     23  C   UNL d   1     -45.674  11.002  23.126  0.00  0.00     0.019 C 
ATOM     24  C   UNL d   1     -44.925  10.709  23.325  0.00  0.00     0.002 C 
ENDBRANCH  22  23
ENDBRANCH   3  22
TORSDOF 5
ENDMDL
MODEL 4
REMARK VINA RESULT:      -6.4      8.407     10.010
REMARK  5 active torsions:
REMARK  status: ('A' for Active; 'I' for Inactive)
REMARK    1  A    between atoms: C_6  and  C_1 
REMARK    2  A    between atoms: C_14  and  N_3 
REMARK    3  A    between atoms: O_9  and  C_6 
REMARK    4  A    between atoms: C_15  and  O_9 
REMARK    5  A    between atoms: C_16  and  C_14 
ROOT
ATOM      1  C   UNL d   1     -39.072  14.309  19.350  0.00  0.00     0.120 A 
ATOM      2  C   UNL d   1     -38.527  13.766  19.049  0.00  0.00     0.177 A 
ATOM      3  N   UNL d   1     -38.668  13.692  18.240  0.00  0.00    -0.273 N 
ATOM      4  C   UNL d   1     -39.296  14.185  18.039  0.00  0.00     0.167 A 
ATOM      5  C   UNL d   1     -39.544  14.564  18.724  0.00  0.00     0.124 A 
ATOM      6  N   UNL d   1     -39.667  14.332  17.322  0.00  0.00    -0.225 NA
ATOM      7  N   UNL d   1     -40.169  15.095  18.690  0.00  0.00    -0.241 NA
ATOM      8  C   UNL d   1     -40.292  14.862  17.289  0.00  0.00     0.101 A 
ATOM      9  C   UNL d   1     -40.546  15.246  17.972  0.00  0.00     0.099 A 
ATOM     10  N   UNL d   1     -37.943  13.365  19.474  0.00  0.00    -0.128 N 
ATOM     11  C   UNL d   1     -40.662  15.008  16.573  0.00  0.00     0.021 A 
ATOM     12  C   UNL d   1     -41.170  15.775  17.935  0.00  0.00     0.021 A 
ATOM     13  C   UNL d   1     -41.297  15.546  16.537  0.00  0.00     0.002 A 
ATOM     14  C   UNL d   1     -41.541  15.922  17.219  0.00  0.00     0.002 A 
ENDROOT
BRANCH   1  15
ATOM     15  C   UNL d   1     -39.126  14.546  20.140  0.00  0.00     0.300 C 
ATOM     16  O   UNL d   1     -38.794  15.261  20.373  0.00  0.00    -0.259 OA
BRANCH  15  17
ATOM     17  O   UNL d   1     -39.512  14.069  20.696  0.00  0.00    -0.303 OA
BRANCH  17  18
ATOM     18  C   UNL d   1     -39.529  14.297  21.478  0.00  0.00     0.102 C 
ATOM     19  C   UNL d   1     -40.302  14.577  21.393  0.00  0.00     0.030 C 
ATOM     20  C   UNL d   1     -38.755  14.020  21.575  0.00  0.00     0.030 C 
ATOM     21  C   UNL d   1     -39.538  14.529  22.285  0.00  0.00     0.030 C 
ENDBRANCH  17  18
ENDBRANCH  15  17
ENDBRANCH   1  15
BRANCH   3  22
ATOM     22  C   UNL d   1     -38.255  13.210  17.717  0.00  0.00     0.083 C 
BRANCH  22  23
ATOM     23  C   UNL d   1     -38.416  12.400  17.700  0.00  0.00     0.019 C 
ATOM     24  C   UNL d   1     -37.948  11.900  17.234  0.00  0.00     0.002 C 
ENDBRANCH  22  23
ENDBRANCH   3  22
TORSDOF 5
ENDMDL
MODEL 5
REMARK VINA RESULT:      -6.2      8.982     10.289
REMARK  5 active torsions:
REMARK  status: ('A' for Active; 'I' for Inactive)
REMARK    1  A    between atoms: C_6  and  C_1 
REMARK    2  A    between atoms: C_14  and  N_3 
REMARK    3  A    between atoms: O_9  and  C_6 
REMARK    4  A    between atoms: C_15  and  O_9 
REMARK    5  A    between atoms: C_16  and  C_14 
ROOT
ATOM      1  C   UNL d   1     -39.222  14.326  18.232  0.00  0.00     0.120 A 
ATOM      2  C   UNL d   1     -38.812  13.727  17.840  0.00  0.00     0.177 A 
ATOM      3  N   UNL d   1     -38.420  13.276  18.408  0.00  0.00    -0.273 N 
ATOM      4  C   UNL d   1     -38.585  13.593  19.150  0.00  0.00     0.167 A 
ATOM      5  C   UNL d   1     -39.079  14.240  19.040  0.00  0.00     0.124 A 
ATOM      6  N   UNL d   1     -38.346  13.372  19.903  0.00  0.00    -0.225 NA
ATOM      7  N   UNL d   1     -39.336  14.669  19.691  0.00  0.00    -0.241 NA
ATOM      8  C   UNL d   1     -38.604  13.801  20.553  0.00  0.00     0.101 A 
ATOM      9  C   UNL d   1     -39.099  14.451  20.450  0.00  0.00     0.099 A 
ATOM     10  N   UNL d   1     -38.793  13.594  17.024  0.00  0.00    -0.128 N 
ATOM     11  C   UNL d   1     -38.365  13.580  21.305  0.00  0.00     0.021 A 
ATOM     12  C   UNL d   1     -39.354  14.877  21.102  0.00  0.00     0.021 A 
ATOM     13  C   UNL d   1     -38.625  14.014  21.966  0.00  0.00     0.002 A 
ATOM     14  C   UNL d   1     -39.116  14.656  21.854  0.00  0.00     0.002 A 
ENDROOT
BRANCH   1  15
ATOM     15  C   UNL d   1     -39.689  14.904  17.871  0.00  0.00     0.300 C 
ATOM     16  O   UNL d   1     -39.392  15.665  17.776  0.00  0.00    -0.259 OA
BRANCH  15  17
ATOM     17  O   UNL d   1     -40.452  14.722  17.606  0.00  0.00    -0.303 OA
BRANCH  17  18
ATOM     18  C   UNL d   1     -40.923  15.313  17.302  0.00  0.00     0.102 C 
ATOM     19  C   UNL d   1     -41.292  15.413  18.035  0.00  0.00     0.030 C 
ATOM     20  C   UNL d   1     -40.562  15.221  16.563  0.00  0.00     0.030 C 
ATOM     21  C   UNL d   1     -41.405  15.921  16.980  0.00  0.00     0.030 C 
ENDBRANCH  17  18
ENDBRANCH  15  17
ENDBRANCH   1  15
BRANCH   3  22
ATOM     22  C   UNL d   1     -37.945  12.621  18.265  0.00  0.00     0.083 C 
BRANCH  22  23
ATOM     23  C   UNL d   1     -38.232  12.007  17.793  0.00  0.00     0.019 C 
ATOM     24  C   UNL d   1     -37.942  11.239  17.900  0.00  0.00     0.002 C 
ENDBRANCH  22  23
ENDBRANCH   3  22
TORSDOF 5
ENDMDL
MODEL 6
REMARK VINA RESULT:      -6.2      1.232      3.279
REMARK  5 active torsions:
REMARK  status: ('A' for Active; 'I' for Inactive)
REMARK    1  A    between atoms: C_6  and  C_1 
REMARK    2  A    between atoms: C_14  and  N_3 
REMARK    3  A    between atoms: O_9  and  C_6 
REMARK    4  A    between atoms: C_15  and  O_9 
REMARK    5  A    between atoms: C_16  and  C_14 
ROOT
ATOM      1  C   UNL d   1     -48.161  14.263  22.842  0.00  0.00     0.120 A 
ATOM      2  C   UNL d   1     -47.377  14.503  22.745  0.00  0.00     0.177 A 
ATOM      3  N   UNL d   1     -46.896  13.845  22.872  0.00  0.00    -0.273 N 
ATOM      4  C   UNL d   1     -47.378  13.200  23.046  0.00  0.00     0.167 A 
ATOM      5  C   UNL d   1     -48.157  13.460  23.027  0.00  0.00     0.124 A 
ATOM      6  N   UNL d   1     -47.201  12.418  23.217  0.00  0.00    -0.225 NA
ATOM      7  N   UNL d   1     -48.764  12.929  23.181  0.00  0.00    -0.241 NA
ATOM      8  C   UNL d   1     -47.808  11.888  23.371  0.00  0.00     0.101 A 
ATOM      9  C   UNL d   1     -48.592  12.141  23.353  0.00  0.00     0.099 A 
ATOM     10  N   UNL d   1     -47.113  15.263  22.557  0.00  0.00    -0.128 N 
ATOM     11  C   UNL d   1     -47.631  11.107  23.541  0.00  0.00     0.021 A 
ATOM     12  C   UNL d   1     -49.195  11.609  23.508  0.00  0.00     0.021 A 
ATOM     13  C   UNL d   1     -48.246  10.568  23.698  0.00  0.00     0.002 A 
ATOM     14  C   UNL d   1     -49.019  10.827  23.679  0.00  0.00     0.002 A 
ENDROOT
BRANCH   1  15
ATOM     15  C   UNL d   1     -48.825  14.750  22.765  0.00  0.00     0.300 C 
ATOM     16  O   UNL d   1     -48.929  15.188  22.077  0.00  0.00    -0.259 OA
BRANCH  15  17
ATOM     17  O   UNL d   1     -49.384  14.797  23.374  0.00  0.00    -0.303 OA
BRANCH  17  18
ATOM     18  C   UNL d   1     -49.986  15.342  23.324  0.00  0.00     0.102 C 
ATOM     19  C   UNL d   1     -50.482  14.782  22.973  0.00  0.00     0.030 C 
ATOM     20  C   UNL d   1     -49.500  15.912  23.675  0.00  0.00     0.030 C 
ATOM     21  C   UNL d   1     -50.603  15.911  23.277  0.00  0.00     0.030 C 
ENDBRANCH  17  18
ENDBRANCH  15  17
ENDBRANCH   1  15
BRANCH   3  22
ATOM     22  C   UNL d   1     -46.075  13.830  22.832  0.00  0.00     0.083 C 
BRANCH  22  23
ATOM     23  C   UNL d   1     -45.706  13.434  22.208  0.00  0.00     0.019 C 
ATOM     24  C   UNL d   1     -44.931  13.636  21.998  0.00  0.00     0.002 C 
ENDBRANCH  22  23
ENDBRANCH   3  22
TORSDOF 5
ENDMDL
MODEL 7
REMARK VINA RESULT:      -5.8      1.642      3.412
REMARK  5 active torsions:
REMARK  status: ('A' for Active; 'I' for Inactive)
REMARK    1  A    between atoms: C_6  and  C_1 
REMARK    2  A    between atoms: C_14  and  N_3 
REMARK    3  A    between atoms: O_9  and  C_6 
REMARK    4  A    between atoms: C_15  and  O_9 
REMARK    5  A    between atoms: C_16  and  C_14 
ROOT
ATOM      1  C   UNL d   1     -48.295  13.187  22.988  0.00  0.00     0.120 A 
ATOM      2  C   UNL d   1     -47.959  13.935  22.892  0.00  0.00     0.177 A 
ATOM      3  N   UNL d   1     -47.144  13.859  22.987  0.00  0.00    -0.273 N 
ATOM      4  C   UNL d   1     -46.972  13.068  23.140  0.00  0.00     0.167 A 
ATOM      5  C   UNL d   1     -47.683  12.656  23.141  0.00  0.00     0.124 A 
ATOM      6  N   UNL d   1     -46.263  12.681  23.278  0.00  0.00    -0.225 NA
ATOM      7  N   UNL d   1     -47.681  11.847  23.281  0.00  0.00    -0.241 NA
ATOM      8  C   UNL d   1     -46.262  11.872  23.417  0.00  0.00     0.101 A 
ATOM      9  C   UNL d   1     -46.971  11.452  23.419  0.00  0.00     0.099 A 
ATOM     10  N   UNL d   1     -48.361  14.639  22.731  0.00  0.00    -0.128 N 
ATOM     11  C   UNL d   1     -45.553  11.485  23.555  0.00  0.00     0.021 A 
ATOM     12  C   UNL d   1     -46.965  10.645  23.559  0.00  0.00     0.021 A 
ATOM     13  C   UNL d   1     -45.550  10.665  23.697  0.00  0.00     0.002 A 
ATOM     14  C   UNL d   1     -46.257  10.257  23.697  0.00  0.00     0.002 A 
ENDROOT
BRANCH   1  15
ATOM     15  C   UNL d   1     -49.101  13.012  22.938  0.00  0.00     0.300 C 
ATOM     16  O   UNL d   1     -49.587  13.147  23.587  0.00  0.00    -0.259 OA
BRANCH  15  17
ATOM     17  O   UNL d   1     -49.421  12.703  22.240  0.00  0.00    -0.303 OA
BRANCH  17  18
ATOM     18  C   UNL d   1     -50.229  12.652  22.156  0.00  0.00     0.102 C 
ATOM     19  C   UNL d   1     -50.275  12.128  22.794  0.00  0.00     0.030 C 
ATOM     20  C   UNL d   1     -50.196  13.177  21.517  0.00  0.00     0.030 C 
ATOM     21  C   UNL d   1     -51.062  12.605  22.064  0.00  0.00     0.030 C 
ENDBRANCH  17  18
ENDBRANCH  15  17
ENDBRANCH   1  15
BRANCH   3  22
ATOM     22  C   UNL d   1     -46.591  14.466  22.937  0.00  0.00     0.083 C 
BRANCH  22  23
ATOM     23  C   UNL d   1     -46.245  14.641  22.207  0.00  0.00     0.019 C 
ATOM     24  C   UNL d   1     -45.651  15.216  22.164  0.00  0.00     0.002 C 
ENDBRANCH  22  23
ENDBRANCH   3  22
TORSDOF 5
ENDMDL
MODEL 8
REMARK VINA RESULT:      -5.1      7.857      9.615
REMARK  5 active torsions:
REMARK  status: ('A' for Active; 'I' for Inactive)
REMARK    1  A    between atoms: C_6  and  C_1 
REMARK    2  A    between atoms: C_14  and  N_3 
REMARK    3  A    between atoms: O_9  and  C_6 
REMARK    4  A    between atoms: C_15  and  O_9 
REMARK    5  A    between atoms: C_16  and  C_14 
ROOT
ATOM      1  C   UNL d   1     -39.196  13.840  19.032  0.00  0.00     0.120 A 
ATOM      2  C   UNL d   1     -38.588  13.537  19.500  0.00  0.00     0.177 A 
ATOM      3  N   UNL d   1     -38.714  13.795  20.273  0.00  0.00    -0.273 N 
ATOM      4  C   UNL d   1     -39.396  14.255  20.286  0.00  0.00     0.167 A 
ATOM      5  C   UNL d   1     -39.692  14.282  19.520  0.00  0.00     0.124 A 
ATOM      6  N   UNL d   1     -39.778  14.648  20.896  0.00  0.00    -0.225 NA
ATOM      7  N   UNL d   1     -40.377  14.707  19.365  0.00  0.00    -0.241 NA
ATOM      8  C   UNL d   1     -40.463  15.073  20.740  0.00  0.00     0.101 A 
ATOM      9  C   UNL d   1     -40.765  15.104  19.975  0.00  0.00     0.099 A 
ATOM     10  N   UNL d   1     -37.961  13.060  19.249  0.00  0.00    -0.128 N 
ATOM     11  C   UNL d   1     -40.844  15.465  21.351  0.00  0.00     0.021 A 
ATOM     12  C   UNL d   1     -41.449  15.529  19.824  0.00  0.00     0.021 A 
ATOM     13  C   UNL d   1     -41.539  15.896  21.195  0.00  0.00     0.002 A 
ATOM     14  C   UNL d   1     -41.831  15.922  20.433  0.00  0.00     0.002 A 
ENDROOT
BRANCH   1  15
ATOM     15  C   UNL d   1     -39.283  13.717  18.219  0.00  0.00     0.300 C 
ATOM     16  O   UNL d   1     -39.613  13.014  17.948  0.00  0.00    -0.259 OA
BRANCH  15  17
ATOM     17  O   UNL d   1     -39.041  14.295  17.678  0.00  0.00    -0.303 OA
BRANCH  17  18
ATOM     18  C   UNL d   1     -39.000  14.112  16.886  0.00  0.00     0.102 C 
ATOM     19  C   UNL d   1     -39.821  14.170  16.817  0.00  0.00     0.030 C 
ATOM     20  C   UNL d   1     -38.177  14.050  16.943  0.00  0.00     0.030 C 
ATOM     21  C   UNL d   1     -38.949  13.922  16.070  0.00  0.00     0.030 C 
ENDBRANCH  17  18
ENDBRANCH  15  17
ENDBRANCH   1  15
BRANCH   3  22
ATOM     22  C   UNL d   1     -38.242  13.624  20.925  0.00  0.00     0.083 C 
BRANCH  22  23
ATOM     23  C   UNL d   1     -38.180  12.843  21.187  0.00  0.00     0.019 C 
ATOM     24  C   UNL d   1     -37.941  12.691  21.965  0.00  0.00     0.002 C 
ENDBRANCH  22  23
ENDBRANCH   3  22
TORSDOF 5
ENDMDL
MODEL 9
REMARK VINA RESULT:      -4.9      7.535      9.444
REMARK  5 active torsions:
REMARK  status: ('A' for Active; 'I' for Inactive)
REMARK    1  A    between atoms: C_6  and  C_1 
REMARK    2  A    between atoms: C_14  and  N_3 
REMARK    3  A    between atoms: O_9  and  C_6 
REMARK    4  A    between atoms: C_15  and  O_9 
REMARK    5  A    between atoms: C_16  and  C_14 
ROOT
ATOM      1  C   UNL d   1     -39.161  14.490  20.932  0.00  0.00     0.120 A 
ATOM      2  C   UNL d   1     -39.812  14.990  21.025  0.00  0.00     0.177 A 
ATOM      3  N   UNL d   1     -40.169  15.075  20.286  0.00  0.00    -0.273 N 
ATOM      4  C   UNL d   1     -39.745  14.631  19.739  0.00  0.00     0.167 A 
ATOM      5  C   UNL d   1     -39.124  14.271  20.138  0.00  0.00     0.124 A 
ATOM      6  N   UNL d   1     -39.849  14.514  18.934  0.00  0.00    -0.225 NA
ATOM      7  N   UNL d   1     -38.603  13.789  19.727  0.00  0.00    -0.241 NA
ATOM      8  C   UNL d   1     -39.327  14.032  18.523  0.00  0.00     0.101 A 
ATOM      9  C   UNL d   1     -38.703  13.667  18.917  0.00  0.00     0.099 A 
ATOM     10  N   UNL d   1     -40.066  15.346  21.726  0.00  0.00    -0.128 N 
ATOM     11  C   UNL d   1     -39.432  13.915  17.719  0.00  0.00     0.021 A 
ATOM     12  C   UNL d   1     -38.184  13.187  18.503  0.00  0.00     0.021 A 
ATOM     13  C   UNL d   1     -38.904  13.426  17.300  0.00  0.00     0.002 A 
ATOM     14  C   UNL d   1     -38.288  13.069  17.698  0.00  0.00     0.002 A 
ENDROOT
BRANCH   1  15
ATOM     15  C   UNL d   1     -38.646  14.256  21.535  0.00  0.00     0.300 C 
ATOM     16  O   UNL d   1     -37.985  14.714  21.704  0.00  0.00    -0.259 OA
BRANCH  15  17
ATOM     17  O   UNL d   1     -38.793  13.566  21.968  0.00  0.00    -0.303 OA
BRANCH  17  18
ATOM     18  C   UNL d   1     -38.377  13.426  22.654  0.00  0.00     0.102 C 
ATOM     19  C   UNL d   1     -38.807  14.011  23.050  0.00  0.00     0.030 C 
ATOM     20  C   UNL d   1     -37.940  12.838  22.269  0.00  0.00     0.030 C 
ATOM     21  C   UNL d   1     -37.943  13.275  23.357  0.00  0.00     0.030 C 
ENDBRANCH  17  18
ENDBRANCH  15  17
ENDBRANCH   1  15
BRANCH   3  22
ATOM     22  C   UNL d   1     -40.837  15.526  20.121  0.00  0.00     0.083 C 
BRANCH  22  23
ATOM     23  C   UNL d   1     -41.390  15.667  20.718  0.00  0.00     0.019 C 
ATOM     24  C   UNL d   1     -42.152  15.922  20.517  0.00  0.00     0.002 C 
ENDBRANCH  22  23
ENDBRANCH   3  22
TORSDOF 5
ENDMDL
