MODEL 1
REMARK VINA RESULT:       9.5      0.000      0.000
REMARK  7 active torsions:
REMARK  status: ('A' for Active; 'I' for Inactive)
REMARK    1  A    between atoms: N_4  and  C_1 
REMARK    2  A    between atoms: C_9  and  C_2 
REMARK    3  A    between atoms: C_7  and  N_4 
REMARK    4  A    between atoms: N_8  and  C_7 
REMARK       I    between atoms: C_10  and  N_8 
REMARK    5  A    between atoms: C_15  and  C_10 
REMARK    6  A    between atoms: C_18  and  C_15 
REMARK    7  A    between atoms: C_19  and  C_18 
ROOT
ATOM      1  C   UNL d   1      45.879 -17.102  44.039  0.00  0.00     0.224 C 
ATOM      2  S   UNL d   1      45.202 -17.430  44.381  0.00  0.00    -0.037 SA
ENDROOT
BRANCH   1   3
ATOM      3  N   UNL d   1      46.323 -17.527  43.517  0.00  0.00    -0.211 NA
BRANCH   3   4
ATOM      4  C   UNL d   1      46.396 -18.335  43.607  0.00  0.00     0.118 A 
ATOM      5  C   UNL d   1      46.494 -18.887  43.001  0.00  0.00     0.084 A 
ATOM      6  C   UNL d   1      46.540 -19.611  43.333  0.00  0.00     0.013 A 
ATOM      7  C   UNL d   1      46.641 -20.330  42.920  0.00  0.00     0.001 C 
ATOM      8  C   UNL d   1      46.477 -19.546  44.114  0.00  0.00     0.031 A 
ATOM      9  S   UNL d   1      46.387 -18.764  44.301  0.00  0.00    -0.068 SA
ATOM     10  C   UNL d   1      46.501 -20.188  44.639  0.00  0.00     0.007 C 
BRANCH   5  11
ATOM     11  C   UNL d   1      46.536 -18.711  42.187  0.00  0.00     0.299 C 
ATOM     12  O   UNL d   1      46.538 -19.321  41.630  0.00  0.00    -0.264 OA
ATOM     13  N   UNL d   1      46.577 -17.919  41.925  0.00  0.00    -0.102 N 
ENDBRANCH   5  11
ENDBRANCH   3   4
ENDBRANCH   1   3
BRANCH   1  14
ATOM     14  N   UNL d   1      46.109 -16.336  44.228  0.00  0.00    -0.179 NA
ATOM     15  C   UNL d   1      45.602 -15.822  44.583  0.00  0.00     0.281 C 
ATOM     16  O   UNL d   1      44.846 -16.053  44.761  0.00  0.00    -0.265 OA
BRANCH  15  17
ATOM     17  C   UNL d   1      45.835 -15.041  44.775  0.00  0.00     0.063 C 
BRANCH  17  18
ATOM     18  C   UNL d   1      45.286 -14.452  44.814  0.00  0.00     0.005 C 
BRANCH  18  19
ATOM     19  C   UNL d   1      45.467 -13.722  44.477  0.00  0.00     0.000 A 
ATOM     20  C   UNL d   1      46.073 -13.243  44.785  0.00  0.00     0.000 A 
ATOM     21  C   UNL d   1      46.241 -12.526  44.444  0.00  0.00     0.000 A 
ATOM     22  C   UNL d   1      45.808 -12.262  43.779  0.00  0.00     0.000 A 
ATOM     23  C   UNL d   1      45.212 -12.737  43.478  0.00  0.00     0.000 A 
ATOM     24  C   UNL d   1      45.049 -13.469  43.837  0.00  0.00     0.000 A 
ENDBRANCH  18  19
ENDBRANCH  17  18
ENDBRANCH  15  17
ENDBRANCH   1  14
TORSDOF 7
ENDMDL
