MODEL 1
REMARK VINA RESULT:      96.8      0.000      0.000
REMARK  3 active torsions:
REMARK  status: ('A' for Active; 'I' for Inactive)
REMARK    1  A    between atoms: C_2  and  C_1 
REMARK       I    between atoms: N_6  and  C_2 
REMARK    2  A    between atoms: C_7  and  N_6 
REMARK    3  A    between atoms: C_18  and  N_6 
ROOT
ATOM      1  C   UNL d   1     -56.925 -99.504 -43.132  0.00  0.00     0.270 C 
ATOM      2  N   UNL d   1     -58.124 -99.212 -43.309  0.00  0.00    -0.274 N 
ATOM      3  O   UNL d   1     -56.734 -99.522 -42.358  0.00  0.00    -0.266 OA
ENDROOT
BRANCH   2   4
ATOM      4  C   UNL d   1     -58.358 -99.183 -44.057  0.00  0.00     0.079 A 
ATOM      5  C   UNL d   1     -57.925 -98.959 -44.668  0.00  0.00     0.116 A 
ATOM      6  S   UNL d   1     -58.367 -99.011 -45.309  0.00  0.00     0.213 S 
ATOM      7  O   UNL d   1     -58.809 -99.063 -45.949  0.00  0.00    -0.217 OA
ATOM      8  O   UNL d   1     -57.679 -98.756 -45.560  0.00  0.00    -0.217 OA
ATOM      9  C   UNL d   1     -59.071 -99.266 -45.089  0.00  0.00     0.100 A 
ATOM     10  C   UNL d   1     -59.066 -99.372 -44.321  0.00  0.00     0.030 A 
ENDBRANCH   2   4
BRANCH   2  11
ATOM     11  C   UNL d   1     -58.632 -99.060 -42.683  0.00  0.00     0.067 A 
ATOM     12  C   UNL d   1     -58.322 -98.930 -41.942  0.00  0.00     0.018 A 
ATOM     13  C   UNL d   1     -58.837 -98.775 -41.301  0.00  0.00     0.002 A 
ATOM     14  C   UNL d   1     -59.649 -98.755 -41.421  0.00  0.00     0.000 A 
ATOM     15  C   UNL d   1     -59.959 -98.888 -42.171  0.00  0.00     0.002 A 
ATOM     16  C   UNL d   1     -59.459 -99.040 -42.806  0.00  0.00     0.018 A 
ENDBRANCH   2  11
BRANCH   1  17
ATOM     17  C   UNL d   1     -56.397 -99.660 -43.744  0.00  0.00     0.120 A 
ATOM     18  C   UNL d   1     -55.944-100.367 -43.731  0.00  0.00     0.305 A 
ATOM     19  O   UNL d   1     -55.413-100.525 -44.346  0.00  0.00    -0.273 OA
ATOM     20  O   UNL d   1     -56.031-100.898 -43.107  0.00  0.00    -0.259 OA
ATOM     21  C   UNL d   1     -55.333 -99.986 -44.968  0.00  0.00     0.103 A 
ATOM     22  C   UNL d   1     -55.780 -99.290 -44.981  0.00  0.00     0.023 A 
ATOM     23  C   UNL d   1     -54.798-100.152 -45.581  0.00  0.00     0.025 A 
ATOM     24  C   UNL d   1     -56.308 -99.130 -44.371  0.00  0.00     0.012 A 
ATOM     25  C   UNL d   1     -55.693 -98.758 -45.605  0.00  0.00     0.002 A 
ATOM     26  C   UNL d   1     -55.162 -98.919 -46.218  0.00  0.00     0.000 A 
ATOM     27  C   UNL d   1     -54.715 -99.616 -46.205  0.00  0.00     0.002 A 
ENDBRANCH   1  17
TORSDOF 3
ENDMDL
