MODEL 1
REMARK VINA RESULT:      -7.5      0.000      0.000
REMARK  4 active torsions:
REMARK  status: ('A' for Active; 'I' for Inactive)
REMARK    1  A    between atoms: C_3  and  C_1 
REMARK    2  A    between atoms: C_8  and  C_3 
REMARK    3  A    between atoms: O_6  and  C_8 
REMARK    4  A    between atoms: C_7  and  O_6 
ROOT
ATOM      1  C   UNL d   1     -48.250  13.063  22.215  0.00  0.00     0.223 C 
ATOM      2  O   UNL d   1     -48.524  12.756  21.498  0.00  0.00    -0.284 OA
ENDROOT
BRANCH   1   3
ATOM      3  C   UNL d   1     -47.594  12.727  22.585  0.00  0.00     0.080 A 
ATOM      4  C   UNL d   1     -47.659  11.989  22.952  0.00  0.00     0.202 A 
ATOM      5  C   UNL d   1     -47.003  11.652  23.322  0.00  0.00     0.084 A 
ATOM      6  O   UNL d   1     -48.380  11.588  22.949  0.00  0.00    -0.286 OA
ATOM      7  C   UNL d   1     -46.281  12.061  23.321  0.00  0.00     0.199 A 
ATOM      8  C   UNL d   1     -46.217  12.792  22.958  0.00  0.00     0.042 A 
ATOM      9  O   UNL d   1     -45.613  11.718  23.698  0.00  0.00    -0.286 OA
ATOM     10  C   UNL d   1     -46.873  13.128  22.588  0.00  0.00     0.010 A 
ENDBRANCH   1   3
BRANCH   1  11
ATOM     11  C   UNL d   1     -48.639  13.712  22.562  0.00  0.00     0.165 C 
BRANCH  11  12
ATOM     12  O   UNL d   1     -49.424  13.878  22.356  0.00  0.00    -0.301 OA
BRANCH  12  13
ATOM     13  C   UNL d   1     -49.814  14.506  22.732  0.00  0.00     0.106 A 
ATOM     14  C   UNL d   1     -50.634  14.513  22.785  0.00  0.00     0.057 A 
ATOM     15 BR   UNL d   1     -51.064  13.888  22.458  0.00  0.00    -0.047 Br
ATOM     16  C   UNL d   1     -51.022  15.137  23.159  0.00  0.00     0.009 A 
ATOM     17  C   UNL d   1     -50.584  15.759  23.483  0.00  0.00     0.001 A 
ATOM     18  C   UNL d   1     -49.752  15.754  23.431  0.00  0.00     0.002 A 
ATOM     19  C   UNL d   1     -49.373  15.126  23.056  0.00  0.00     0.025 A 
ENDBRANCH  12  13
ENDBRANCH  11  12
ENDBRANCH   1  11
TORSDOF 4
ENDMDL
MODEL 2
REMARK VINA RESULT:      -7.5      1.173      1.739
REMARK  4 active torsions:
REMARK  status: ('A' for Active; 'I' for Inactive)
REMARK    1  A    between atoms: C_3  and  C_1 
REMARK    2  A    between atoms: C_8  and  C_3 
REMARK    3  A    between atoms: O_6  and  C_8 
REMARK    4  A    between atoms: C_7  and  O_6 
ROOT
ATOM      1  C   UNL d   1     -47.471  13.644  22.860  0.00  0.00     0.223 C 
ATOM      2  O   UNL d   1     -47.175  14.412  22.933  0.00  0.00    -0.284 OA
ENDROOT
BRANCH   1   3
ATOM      3  C   UNL d   1     -46.995  12.998  23.049  0.00  0.00     0.080 A 
ATOM      4  C   UNL d   1     -46.214  12.966  22.780  0.00  0.00     0.202 A 
ATOM      5  C   UNL d   1     -45.738  12.320  22.969  0.00  0.00     0.084 A 
ATOM      6  O   UNL d   1     -45.910  13.580  22.321  0.00  0.00    -0.286 OA
ATOM      7  C   UNL d   1     -46.049  11.706  23.431  0.00  0.00     0.199 A 
ATOM      8  C   UNL d   1     -46.823  11.737  23.698  0.00  0.00     0.042 A 
ATOM      9  O   UNL d   1     -45.564  11.048  23.624  0.00  0.00    -0.286 OA
ATOM     10  C   UNL d   1     -47.299  12.383  23.508  0.00  0.00     0.010 A 
ENDBRANCH   1   3
BRANCH   1  11
ATOM     11  C   UNL d   1     -48.251  13.525  22.594  0.00  0.00     0.165 C 
BRANCH  11  12
ATOM     12  O   UNL d   1     -48.776  14.166  22.563  0.00  0.00    -0.301 OA
BRANCH  12  13
ATOM     13  C   UNL d   1     -49.538  14.046  22.260  0.00  0.00     0.106 A 
ATOM     14  C   UNL d   1     -50.151  14.553  22.466  0.00  0.00     0.057 A 
ATOM     15 BR   UNL d   1     -49.998  15.183  22.978  0.00  0.00    -0.047 Br
ATOM     16  C   UNL d   1     -50.909  14.434  22.165  0.00  0.00     0.009 A 
ATOM     17  C   UNL d   1     -51.054  13.801  21.652  0.00  0.00     0.001 A 
ATOM     18  C   UNL d   1     -50.434  13.285  21.442  0.00  0.00     0.002 A 
ATOM     19  C   UNL d   1     -49.680  13.412  21.748  0.00  0.00     0.025 A 
ENDBRANCH  12  13
ENDBRANCH  11  12
ENDBRANCH   1  11
TORSDOF 4
ENDMDL
MODEL 3
REMARK VINA RESULT:      -7.4      1.471      4.166
REMARK  4 active torsions:
REMARK  status: ('A' for Active; 'I' for Inactive)
REMARK    1  A    between atoms: C_3  and  C_1 
REMARK    2  A    between atoms: C_8  and  C_3 
REMARK    3  A    between atoms: O_6  and  C_8 
REMARK    4  A    between atoms: C_7  and  O_6 
ROOT
ATOM      1  C   UNL d   1     -48.980  13.722  22.231  0.00  0.00     0.223 C 
ATOM      2  O   UNL d   1     -48.941  13.653  21.408  0.00  0.00    -0.284 OA
ENDROOT
BRANCH   1   3
ATOM      3  C   UNL d   1     -49.499  14.261  22.576  0.00  0.00     0.080 A 
ATOM      4  C   UNL d   1     -50.316  14.148  22.513  0.00  0.00     0.202 A 
ATOM      5  C   UNL d   1     -50.836  14.688  22.858  0.00  0.00     0.084 A 
ATOM      6  O   UNL d   1     -50.612  13.496  22.104  0.00  0.00    -0.286 OA
ATOM      7  C   UNL d   1     -50.532  15.341  23.267  0.00  0.00     0.199 A 
ATOM      8  C   UNL d   1     -49.723  15.453  23.330  0.00  0.00     0.042 A 
ATOM      9  O   UNL d   1     -51.062  15.891  23.619  0.00  0.00    -0.286 OA
ATOM     10  C   UNL d   1     -49.203  14.914  22.985  0.00  0.00     0.010 A 
ENDBRANCH   1   3
BRANCH   1  11
ATOM     11  C   UNL d   1     -48.493  13.246  22.709  0.00  0.00     0.165 C 
BRANCH  11  12
ATOM     12  O   UNL d   1     -47.732  13.044  22.448  0.00  0.00    -0.301 OA
BRANCH  12  13
ATOM     13  C   UNL d   1     -47.305  12.469  22.865  0.00  0.00     0.106 A 
ATOM     14  C   UNL d   1     -46.484  12.509  22.902  0.00  0.00     0.057 A 
ATOM     15 BR   UNL d   1     -46.093  13.127  22.519  0.00  0.00    -0.047 Br
ATOM     16  C   UNL d   1     -46.058  11.938  23.317  0.00  0.00     0.009 A 
ATOM     17  C   UNL d   1     -46.457  11.322  23.698  0.00  0.00     0.001 A 
ATOM     18  C   UNL d   1     -47.289  11.280  23.662  0.00  0.00     0.002 A 
ATOM     19  C   UNL d   1     -47.707  11.855  23.246  0.00  0.00     0.025 A 
ENDBRANCH  12  13
ENDBRANCH  11  12
ENDBRANCH   1  11
TORSDOF 4
ENDMDL
MODEL 4
REMARK VINA RESULT:      -6.9      1.540      4.166
REMARK  4 active torsions:
REMARK  status: ('A' for Active; 'I' for Inactive)
REMARK    1  A    between atoms: C_3  and  C_1 
REMARK    2  A    between atoms: C_8  and  C_3 
REMARK    3  A    between atoms: O_6  and  C_8 
REMARK    4  A    between atoms: C_7  and  O_6 
ROOT
ATOM      1  C   UNL d   1     -49.049  13.223  23.055  0.00  0.00     0.223 C 
ATOM      2  O   UNL d   1     -49.355  12.475  23.230  0.00  0.00    -0.284 OA
ENDROOT
BRANCH   1   3
ATOM      3  C   UNL d   1     -49.551  13.876  23.013  0.00  0.00     0.080 A 
ATOM      4  C   UNL d   1     -50.128  13.917  22.421  0.00  0.00     0.202 A 
ATOM      5  C   UNL d   1     -50.630  14.569  22.379  0.00  0.00     0.084 A 
ATOM      6  O   UNL d   1     -50.200  13.305  21.873  0.00  0.00    -0.286 OA
ATOM      7  C   UNL d   1     -50.552  15.180  22.934  0.00  0.00     0.199 A 
ATOM      8  C   UNL d   1     -49.981  15.140  23.520  0.00  0.00     0.042 A 
ATOM      9  O   UNL d   1     -51.064  15.845  22.890  0.00  0.00    -0.286 OA
ATOM     10  C   UNL d   1     -49.479  14.487  23.562  0.00  0.00     0.010 A 
ENDBRANCH   1   3
BRANCH   1  11
ATOM     11  C   UNL d   1     -48.233  13.315  22.922  0.00  0.00     0.165 C 
BRANCH  11  12
ATOM     12  O   UNL d   1     -47.711  12.707  23.136  0.00  0.00    -0.301 OA
BRANCH  12  13
ATOM     13  C   UNL d   1     -46.912  12.772  22.926  0.00  0.00     0.106 A 
ATOM     14  C   UNL d   1     -46.364  12.226  23.205  0.00  0.00     0.057 A 
ATOM     15 BR   UNL d   1     -46.620  11.615  23.698  0.00  0.00    -0.047 Br
ATOM     16  C   UNL d   1     -45.569  12.290  22.996  0.00  0.00     0.009 A 
ATOM     17  C   UNL d   1     -45.321  12.905  22.503  0.00  0.00     0.001 A 
ATOM     18  C   UNL d   1     -45.875  13.460  22.218  0.00  0.00     0.002 A 
ATOM     19  C   UNL d   1     -46.667  13.388  22.432  0.00  0.00     0.025 A 
ENDBRANCH  12  13
ENDBRANCH  11  12
ENDBRANCH   1  11
TORSDOF 4
ENDMDL
MODEL 5
REMARK VINA RESULT:      -6.8      1.993      2.639
REMARK  4 active torsions:
REMARK  status: ('A' for Active; 'I' for Inactive)
REMARK    1  A    between atoms: C_3  and  C_1 
REMARK    2  A    between atoms: C_8  and  C_3 
REMARK    3  A    between atoms: O_6  and  C_8 
REMARK    4  A    between atoms: C_7  and  O_6 
ROOT
ATOM      1  C   UNL d   1     -46.452  13.018  22.924  0.00  0.00     0.223 C 
ATOM      2  O   UNL d   1     -46.509  13.307  23.697  0.00  0.00    -0.284 OA
ENDROOT
BRANCH   1   3
ATOM      3  C   UNL d   1     -45.712  12.892  22.583  0.00  0.00     0.080 A 
ATOM      4  C   UNL d   1     -45.244  12.257  22.832  0.00  0.00     0.202 A 
ATOM      5  C   UNL d   1     -44.504  12.131  22.492  0.00  0.00     0.084 A 
ATOM      6  O   UNL d   1     -45.518  11.750  23.422  0.00  0.00    -0.286 OA
ATOM      7  C   UNL d   1     -44.235  12.644  21.899  0.00  0.00     0.199 A 
ATOM      8  C   UNL d   1     -44.698  13.273  21.652  0.00  0.00     0.042 A 
ATOM      9  O   UNL d   1     -43.481  12.515  21.552  0.00  0.00    -0.286 OA
ATOM     10  C   UNL d   1     -45.439  13.400  21.993  0.00  0.00     0.010 A 
ENDBRANCH   1   3
BRANCH   1  11
ATOM     11  C   UNL d   1     -47.145  12.857  22.492  0.00  0.00     0.165 C 
BRANCH  11  12
ATOM     12  O   UNL d   1     -47.871  12.801  22.887  0.00  0.00    -0.301 OA
BRANCH  12  13
ATOM     13  C   UNL d   1     -48.566  12.723  22.440  0.00  0.00     0.106 A 
ATOM     14  C   UNL d   1     -49.197  12.282  22.729  0.00  0.00     0.057 A 
ATOM     15 BR   UNL d   1     -49.130  11.917  23.467  0.00  0.00    -0.047 Br
ATOM     16  C   UNL d   1     -49.887  12.204  22.285  0.00  0.00     0.009 A 
ATOM     17  C   UNL d   1     -49.946  12.572  21.547  0.00  0.00     0.001 A 
ATOM     18  C   UNL d   1     -49.308  13.020  21.253  0.00  0.00     0.002 A 
ATOM     19  C   UNL d   1     -48.622  13.092  21.702  0.00  0.00     0.025 A 
ENDBRANCH  12  13
ENDBRANCH  11  12
ENDBRANCH   1  11
TORSDOF 4
ENDMDL
MODEL 6
REMARK VINA RESULT:      -6.3      8.836     10.154
REMARK  4 active torsions:
REMARK  status: ('A' for Active; 'I' for Inactive)
REMARK    1  A    between atoms: C_3  and  C_1 
REMARK    2  A    between atoms: C_8  and  C_3 
REMARK    3  A    between atoms: O_6  and  C_8 
REMARK    4  A    between atoms: C_7  and  O_6 
ROOT
ATOM      1  C   UNL d   1     -40.163  14.241  18.197  0.00  0.00     0.223 C 
ATOM      2  O   UNL d   1     -40.935  13.955  18.112  0.00  0.00    -0.284 OA
ENDROOT
BRANCH   1   3
ATOM      3  C   UNL d   1     -39.665  14.285  17.542  0.00  0.00     0.080 A 
ATOM      4  C   UNL d   1     -39.266  13.609  17.279  0.00  0.00     0.202 A 
ATOM      5  C   UNL d   1     -38.767  13.653  16.624  0.00  0.00     0.084 A 
ATOM      6  O   UNL d   1     -39.367  12.891  17.672  0.00  0.00    -0.286 OA
ATOM      7  C   UNL d   1     -38.670  14.378  16.233  0.00  0.00     0.199 A 
ATOM      8  C   UNL d   1     -39.065  15.047  16.494  0.00  0.00     0.042 A 
ATOM      9  O   UNL d   1     -38.162  14.423  15.566  0.00  0.00    -0.286 OA
ATOM     10  C   UNL d   1     -39.564  15.003  17.149  0.00  0.00     0.010 A 
ENDBRANCH   1   3
BRANCH   1  11
ATOM     11  C   UNL d   1     -39.893  14.483  18.946  0.00  0.00     0.165 C 
BRANCH  11  12
ATOM     12  O   UNL d   1     -40.436  14.749  19.512  0.00  0.00    -0.301 OA
BRANCH  12  13
ATOM     13  C   UNL d   1     -40.160  14.956  20.266  0.00  0.00     0.106 A 
ATOM     14  C   UNL d   1     -40.540  15.543  20.700  0.00  0.00     0.057 A 
ATOM     15 BR   UNL d   1     -41.198  15.922  20.375  0.00  0.00    -0.047 Br
ATOM     16  C   UNL d   1     -40.266  15.749  21.449  0.00  0.00     0.009 A 
ATOM     17  C   UNL d   1     -39.606  15.365  21.768  0.00  0.00     0.001 A 
ATOM     18  C   UNL d   1     -39.220  14.770  21.330  0.00  0.00     0.002 A 
ATOM     19  C   UNL d   1     -39.500  14.570  20.581  0.00  0.00     0.025 A 
ENDBRANCH  12  13
ENDBRANCH  11  12
ENDBRANCH   1  11
TORSDOF 4
ENDMDL
MODEL 7
REMARK VINA RESULT:      -5.5      8.700      9.671
REMARK  4 active torsions:
REMARK  status: ('A' for Active; 'I' for Inactive)
REMARK    1  A    between atoms: C_3  and  C_1 
REMARK    2  A    between atoms: C_8  and  C_3 
REMARK    3  A    between atoms: O_6  and  C_8 
REMARK    4  A    between atoms: C_7  and  O_6 
ROOT
ATOM      1  C   UNL d   1     -40.440  14.731  20.517  0.00  0.00     0.223 C 
ATOM      2  O   UNL d   1     -41.247  14.585  20.623  0.00  0.00    -0.284 OA
ENDROOT
BRANCH   1   3
ATOM      3  C   UNL d   1     -39.968  14.931  21.164  0.00  0.00     0.080 A 
ATOM      4  C   UNL d   1     -39.685  14.340  21.668  0.00  0.00     0.202 A 
ATOM      5  C   UNL d   1     -39.213  14.541  22.314  0.00  0.00     0.084 A 
ATOM      6  O   UNL d   1     -39.873  13.550  21.526  0.00  0.00    -0.286 OA
ATOM      7  C   UNL d   1     -39.027  15.337  22.452  0.00  0.00     0.199 A 
ATOM      8  C   UNL d   1     -39.308  15.922  21.952  0.00  0.00     0.042 A 
ATOM      9  O   UNL d   1     -38.546  15.540  23.110  0.00  0.00    -0.286 OA
ATOM     10  C   UNL d   1     -39.779  15.721  21.306  0.00  0.00     0.010 A 
ENDBRANCH   1   3
BRANCH   1  11
ATOM     11  C   UNL d   1     -40.106  14.675  19.757  0.00  0.00     0.165 C 
BRANCH  11  12
ATOM     12  O   UNL d   1     -40.575  14.827  19.091  0.00  0.00    -0.301 OA
BRANCH  12  13
ATOM     13  C   UNL d   1     -40.267  14.666  18.338  0.00  0.00     0.106 A 
ATOM     14  C   UNL d   1     -40.463  15.144  17.699  0.00  0.00     0.057 A 
ATOM     15 BR   UNL d   1     -40.971  15.785  17.816  0.00  0.00    -0.047 Br
ATOM     16  C   UNL d   1     -40.157  14.984  16.951  0.00  0.00     0.009 A 
ATOM     17  C   UNL d   1     -39.650  14.340  16.841  0.00  0.00     0.001 A 
ATOM     18  C   UNL d   1     -39.449  13.854  17.488  0.00  0.00     0.002 A 
ATOM     19  C   UNL d   1     -39.760  14.021  18.233  0.00  0.00     0.025 A 
ENDBRANCH  12  13
ENDBRANCH  11  12
ENDBRANCH   1  11
TORSDOF 4
ENDMDL
MODEL 8
REMARK VINA RESULT:      -5.4      9.543     10.374
REMARK  4 active torsions:
REMARK  status: ('A' for Active; 'I' for Inactive)
REMARK    1  A    between atoms: C_3  and  C_1 
REMARK    2  A    between atoms: C_8  and  C_3 
REMARK    3  A    between atoms: O_6  and  C_8 
REMARK    4  A    between atoms: C_7  and  O_6 
ROOT
ATOM      1  C   UNL d   1     -39.233  15.442  18.878  0.00  0.00     0.223 C 
ATOM      2  O   UNL d   1     -38.567  15.922  18.775  0.00  0.00    -0.284 OA
ENDROOT
BRANCH   1   3
ATOM      3  C   UNL d   1     -39.810  15.404  18.289  0.00  0.00     0.080 A 
ATOM      4  C   UNL d   1     -39.698  14.916  17.632  0.00  0.00     0.202 A 
ATOM      5  C   UNL d   1     -40.275  14.878  17.043  0.00  0.00     0.084 A 
ATOM      6  O   UNL d   1     -39.011  14.465  17.563  0.00  0.00    -0.286 OA
ATOM      7  C   UNL d   1     -40.964  15.333  17.118  0.00  0.00     0.199 A 
ATOM      8  C   UNL d   1     -41.074  15.817  17.769  0.00  0.00     0.042 A 
ATOM      9  O   UNL d   1     -41.551  15.294  16.518  0.00  0.00    -0.286 OA
ATOM     10  C   UNL d   1     -40.497  15.855  18.358  0.00  0.00     0.010 A 
ENDBRANCH   1   3
BRANCH   1  11
ATOM     11  C   UNL d   1     -39.319  14.999  19.577  0.00  0.00     0.165 C 
BRANCH  11  12
ATOM     12  O   UNL d   1     -39.038  15.305  20.294  0.00  0.00    -0.301 OA
BRANCH  12  13
ATOM     13  C   UNL d   1     -39.005  14.808  20.956  0.00  0.00     0.106 A 
ATOM     14  C   UNL d   1     -39.155  15.107  21.708  0.00  0.00     0.057 A 
ATOM     15 BR   UNL d   1     -39.339  15.908  21.793  0.00  0.00    -0.047 Br
ATOM     16  C   UNL d   1     -39.123  14.614  22.366  0.00  0.00     0.009 A 
ATOM     17  C   UNL d   1     -38.938  13.813  22.273  0.00  0.00     0.001 A 
ATOM     18  C   UNL d   1     -38.786  13.507  21.513  0.00  0.00     0.002 A 
ATOM     19  C   UNL d   1     -38.820  14.008  20.859  0.00  0.00     0.025 A 
ENDBRANCH  12  13
ENDBRANCH  11  12
ENDBRANCH   1  11
TORSDOF 4
ENDMDL
