MODEL 1
REMARK VINA RESULT:     -10.4      0.000      0.000
REMARK  2 active torsions:
REMARK  status: ('A' for Active; 'I' for Inactive)
REMARK    1  A    between atoms: C_13  and  C_6 
REMARK    2  A    between atoms: N_7  and  C_12 
ROOT
ATOM      1  C   UNL d   1      53.428  33.820  54.234  0.00  0.00     0.095 A 
ATOM      2  C   UNL d   1      53.275  32.603  53.531  0.00  0.00     0.095 A 
ATOM      3  C   UNL d   1      54.143  33.543  54.558  0.00  0.00     0.143 A 
ATOM      4  C   UNL d   1      53.990  32.326  53.855  0.00  0.00     0.143 A 
ATOM      5  S   UNL d   1      54.413  32.797  54.362  0.00  0.00    -0.044 SA
ATOM      6  C   UNL d   1      53.011  33.341  53.726  0.00  0.00     0.023 A 
ATOM      7  C   UNL d   1      52.840  32.118  53.009  0.00  0.00     0.103 C 
ATOM      8  C   UNL d   1      53.151  34.596  54.440  0.00  0.00     0.103 C 
ATOM      9  N   UNL d   1      52.857  35.366  54.632  0.00  0.00    -0.191 NA
ATOM     10  N   UNL d   1      52.388  31.637  52.479  0.00  0.00    -0.191 NA
ATOM     11  N   UNL d   1      54.271  31.563  53.658  0.00  0.00    -0.140 N 
ATOM     12  N   UNL d   1      54.583  34.041  55.089  0.00  0.00    -0.140 N 
ENDROOT
BRANCH   6  13
ATOM     13  C   UNL d   1      52.293  33.619  53.401  0.00  0.00     0.002 A 
ATOM     14  C   UNL d   1      51.578  33.451  53.760  0.00  0.00     0.002 A 
ATOM     15  C   UNL d   1      50.876  33.723  53.442  0.00  0.00     0.024 A 
ATOM     16  C   UNL d   1      50.872  34.170  52.756  0.00  0.00     0.127 A 
ATOM     17  C   UNL d   1      51.592  34.340  52.391  0.00  0.00     0.024 A 
ATOM     18  C   UNL d   1      52.293  34.068  52.710  0.00  0.00     0.002 A 
BRANCH  16  19
ATOM     19  N   UNL d   1      50.172  34.442  52.438  0.00  0.00    -0.114 N 
ATOM     20  O   UNL d   1      49.650  34.862  52.907  0.00  0.00    -0.532 OA
ATOM     21  O   UNL d   1      49.996  34.294  51.660  0.00  0.00    -0.532 OA
ENDBRANCH  16  19
ENDBRANCH   6  13
TORSDOF 2
ENDMDL
MODEL 2
REMARK VINA RESULT:      -8.5      1.668      2.701
REMARK  2 active torsions:
REMARK  status: ('A' for Active; 'I' for Inactive)
REMARK    1  A    between atoms: C_13  and  C_6 
REMARK    2  A    between atoms: N_7  and  C_12 
ROOT
ATOM      1  C   UNL d   1      52.317  32.496  53.365  0.00  0.00     0.095 A 
ATOM      2  C   UNL d   1      53.708  32.422  53.602  0.00  0.00     0.095 A 
ATOM      3  C   UNL d   1      52.314  31.697  53.132  0.00  0.00     0.143 A 
ATOM      4  C   UNL d   1      53.705  31.623  53.369  0.00  0.00     0.143 A 
ATOM      5  S   UNL d   1      53.012  31.272  53.138  0.00  0.00    -0.044 SA
ATOM      6  C   UNL d   1      53.017  32.840  53.595  0.00  0.00     0.023 A 
ATOM      7  C   UNL d   1      54.423  32.784  53.840  0.00  0.00     0.103 C 
ATOM      8  C   UNL d   1      51.589  32.933  53.357  0.00  0.00     0.103 C 
ATOM      9  N   UNL d   1      50.875  33.388  53.356  0.00  0.00    -0.191 NA
ATOM     10  N   UNL d   1      55.139  33.163  54.083  0.00  0.00    -0.191 NA
ATOM     11  N   UNL d   1      54.418  31.184  53.374  0.00  0.00    -0.140 N 
ATOM     12  N   UNL d   1      51.584  31.333  52.890  0.00  0.00    -0.140 N 
ENDROOT
BRANCH   6  13
ATOM     13  C   UNL d   1      53.019  33.641  53.829  0.00  0.00     0.002 A 
ATOM     14  C   UNL d   1      52.991  33.847  54.620  0.00  0.00     0.002 A 
ATOM     15  C   UNL d   1      52.993  34.632  54.849  0.00  0.00     0.024 A 
ATOM     16  C   UNL d   1      53.024  35.230  54.292  0.00  0.00     0.127 A 
ATOM     17  C   UNL d   1      53.053  35.027  53.493  0.00  0.00     0.024 A 
ATOM     18  C   UNL d   1      53.050  34.242  53.265  0.00  0.00     0.002 A 
BRANCH  16  19
ATOM     19  N   UNL d   1      53.026  36.014  54.520  0.00  0.00    -0.114 N 
ATOM     20  O   UNL d   1      53.619  36.511  54.256  0.00  0.00    -0.532 OA
ATOM     21  O   UNL d   1      52.442  36.295  55.007  0.00  0.00    -0.532 OA
ENDBRANCH  16  19
ENDBRANCH   6  13
TORSDOF 2
ENDMDL
MODEL 3
REMARK VINA RESULT:      -8.5      1.662      2.594
REMARK  2 active torsions:
REMARK  status: ('A' for Active; 'I' for Inactive)
REMARK    1  A    between atoms: C_13  and  C_6 
REMARK    2  A    between atoms: N_7  and  C_12 
ROOT
ATOM      1  C   UNL d   1      53.707  32.431  53.620  0.00  0.00     0.095 A 
ATOM      2  C   UNL d   1      52.319  32.509  53.365  0.00  0.00     0.095 A 
ATOM      3  C   UNL d   1      53.705  31.632  53.387  0.00  0.00     0.143 A 
ATOM      4  C   UNL d   1      52.317  31.710  53.132  0.00  0.00     0.143 A 
ATOM      5  S   UNL d   1      53.007  31.284  53.146  0.00  0.00    -0.044 SA
ATOM      6  C   UNL d   1      53.011  32.852  53.602  0.00  0.00     0.023 A 
ATOM      7  C   UNL d   1      51.609  32.949  53.350  0.00  0.00     0.103 C 
ATOM      8  C   UNL d   1      54.436  32.790  53.870  0.00  0.00     0.103 C 
ATOM      9  N   UNL d   1      55.150  33.166  54.122  0.00  0.00    -0.191 NA
ATOM     10  N   UNL d   1      50.897  33.406  53.340  0.00  0.00    -0.191 NA
ATOM     11  N   UNL d   1      51.604  31.348  52.884  0.00  0.00    -0.140 N 
ATOM     12  N   UNL d   1      54.431  31.189  53.404  0.00  0.00    -0.140 N 
ENDROOT
BRANCH   6  13
ATOM     13  C   UNL d   1      53.013  33.653  53.836  0.00  0.00     0.002 A 
ATOM     14  C   UNL d   1      52.981  33.859  54.627  0.00  0.00     0.002 A 
ATOM     15  C   UNL d   1      52.983  34.644  54.855  0.00  0.00     0.024 A 
ATOM     16  C   UNL d   1      53.017  35.242  54.298  0.00  0.00     0.127 A 
ATOM     17  C   UNL d   1      53.050  35.038  53.500  0.00  0.00     0.024 A 
ATOM     18  C   UNL d   1      53.048  34.254  53.272  0.00  0.00     0.002 A 
BRANCH  16  19
ATOM     19  N   UNL d   1      53.019  36.026  54.526  0.00  0.00    -0.114 N 
ATOM     20  O   UNL d   1      53.623  36.518  54.279  0.00  0.00    -0.532 OA
ATOM     21  O   UNL d   1      52.424  36.312  54.997  0.00  0.00    -0.532 OA
ENDBRANCH  16  19
ENDBRANCH   6  13
TORSDOF 2
ENDMDL
MODEL 4
REMARK VINA RESULT:      -8.2      2.166      3.178
REMARK  2 active torsions:
REMARK  status: ('A' for Active; 'I' for Inactive)
REMARK    1  A    between atoms: C_13  and  C_6 
REMARK    2  A    between atoms: N_7  and  C_12 
ROOT
ATOM      1  C   UNL d   1      53.439  33.701  54.472  0.00  0.00     0.095 A 
ATOM      2  C   UNL d   1      52.565  33.803  53.366  0.00  0.00     0.095 A 
ATOM      3  C   UNL d   1      53.352  34.516  54.616  0.00  0.00     0.143 A 
ATOM      4  C   UNL d   1      52.478  34.618  53.510  0.00  0.00     0.143 A 
ATOM      5  S   UNL d   1      52.871  34.963  54.130  0.00  0.00    -0.044 SA
ATOM      6  C   UNL d   1      53.042  33.364  53.848  0.00  0.00     0.023 A 
ATOM      7  C   UNL d   1      52.160  33.448  52.727  0.00  0.00     0.103 C 
ATOM      8  C   UNL d   1      53.941  33.240  54.979  0.00  0.00     0.103 C 
ATOM      9  N   UNL d   1      54.436  32.763  55.472  0.00  0.00    -0.191 NA
ATOM     10  N   UNL d   1      51.756  33.075  52.084  0.00  0.00    -0.191 NA
ATOM     11  N   UNL d   1      51.985  35.081  53.016  0.00  0.00    -0.140 N 
ATOM     12  N   UNL d   1      53.767  34.873  55.268  0.00  0.00    -0.140 N 
ENDROOT
BRANCH   6  13
ATOM     13  C   UNL d   1      53.129  32.546  53.703  0.00  0.00     0.002 A 
ATOM     14  C   UNL d   1      52.579  32.009  53.985  0.00  0.00     0.002 A 
ATOM     15  C   UNL d   1      52.664  31.209  53.843  0.00  0.00     0.024 A 
ATOM     16  C   UNL d   1      53.302  30.925  53.417  0.00  0.00     0.127 A 
ATOM     17  C   UNL d   1      53.858  31.463  53.132  0.00  0.00     0.024 A 
ATOM     18  C   UNL d   1      53.773  32.263  53.273  0.00  0.00     0.002 A 
BRANCH  16  19
ATOM     19  N   UNL d   1      53.387  30.126  53.276  0.00  0.00    -0.114 N 
ATOM     20  O   UNL d   1      53.787  29.660  53.815  0.00  0.00    -0.532 OA
ATOM     21  O   UNL d   1      53.076  29.798  52.602  0.00  0.00    -0.532 OA
ENDBRANCH  16  19
ENDBRANCH   6  13
TORSDOF 2
ENDMDL
MODEL 5
REMARK VINA RESULT:      -8.2      2.166      3.401
REMARK  2 active torsions:
REMARK  status: ('A' for Active; 'I' for Inactive)
REMARK    1  A    between atoms: C_13  and  C_6 
REMARK    2  A    between atoms: N_7  and  C_12 
ROOT
ATOM      1  C   UNL d   1      52.569  33.806  53.378  0.00  0.00     0.095 A 
ATOM      2  C   UNL d   1      53.447  33.698  54.480  0.00  0.00     0.095 A 
ATOM      3  C   UNL d   1      52.484  34.620  53.525  0.00  0.00     0.143 A 
ATOM      4  C   UNL d   1      53.361  34.513  54.627  0.00  0.00     0.143 A 
ATOM      5  S   UNL d   1      52.884  34.962  54.150  0.00  0.00    -0.044 SA
ATOM      6  C   UNL d   1      53.051  33.363  53.862  0.00  0.00     0.023 A 
ATOM      7  C   UNL d   1      53.939  33.236  54.972  0.00  0.00     0.103 C 
ATOM      8  C   UNL d   1      52.152  33.455  52.726  0.00  0.00     0.103 C 
ATOM      9  N   UNL d   1      51.746  33.085  52.083  0.00  0.00    -0.191 NA
ATOM     10  N   UNL d   1      54.434  32.756  55.462  0.00  0.00    -0.191 NA
ATOM     11  N   UNL d   1      53.769  34.868  55.267  0.00  0.00    -0.140 N 
ATOM     12  N   UNL d   1      51.981  35.086  53.021  0.00  0.00    -0.140 N 
ENDROOT
BRANCH   6  13
ATOM     13  C   UNL d   1      53.136  32.546  53.714  0.00  0.00     0.002 A 
ATOM     14  C   UNL d   1      52.586  32.009  53.996  0.00  0.00     0.002 A 
ATOM     15  C   UNL d   1      52.670  31.209  53.852  0.00  0.00     0.024 A 
ATOM     16  C   UNL d   1      53.306  30.926  53.421  0.00  0.00     0.127 A 
ATOM     17  C   UNL d   1      53.862  31.463  53.136  0.00  0.00     0.024 A 
ATOM     18  C   UNL d   1      53.778  32.263  53.280  0.00  0.00     0.002 A 
BRANCH  16  19
ATOM     19  N   UNL d   1      53.389  30.127  53.277  0.00  0.00    -0.114 N 
ATOM     20  O   UNL d   1      53.779  29.656  53.820  0.00  0.00    -0.532 OA
ATOM     21  O   UNL d   1      53.086  29.804  52.597  0.00  0.00    -0.532 OA
ENDBRANCH  16  19
ENDBRANCH   6  13
TORSDOF 2
ENDMDL
MODEL 6
REMARK VINA RESULT:      -7.9      2.374      3.823
REMARK  2 active torsions:
REMARK  status: ('A' for Active; 'I' for Inactive)
REMARK    1  A    between atoms: C_13  and  C_6 
REMARK    2  A    between atoms: N_7  and  C_12 
ROOT
ATOM      1  C   UNL d   1      52.865  32.097  53.357  0.00  0.00     0.095 A 
ATOM      2  C   UNL d   1      52.389  33.419  53.212  0.00  0.00     0.095 A 
ATOM      3  C   UNL d   1      52.245  31.821  52.876  0.00  0.00     0.143 A 
ATOM      4  C   UNL d   1      51.769  33.143  52.730  0.00  0.00     0.143 A 
ATOM      5  S   UNL d   1      51.705  32.351  52.569  0.00  0.00    -0.044 SA
ATOM      6  C   UNL d   1      52.922  32.893  53.514  0.00  0.00     0.023 A 
ATOM      7  C   UNL d   1      52.455  34.236  53.378  0.00  0.00     0.103 C 
ATOM      8  C   UNL d   1      53.425  31.541  53.674  0.00  0.00     0.103 C 
ATOM      9  N   UNL d   1      53.993  31.005  54.000  0.00  0.00    -0.191 NA
ATOM     10  N   UNL d   1      52.534  35.059  53.554  0.00  0.00    -0.191 NA
ATOM     11  N   UNL d   1      51.213  33.683  52.413  0.00  0.00    -0.140 N 
ATOM     12  N   UNL d   1      52.183  30.988  52.709  0.00  0.00    -0.140 N 
ENDROOT
BRANCH   6  13
ATOM     13  C   UNL d   1      53.544  33.170  53.997  0.00  0.00     0.002 A 
ATOM     14  C   UNL d   1      53.431  33.286  54.799  0.00  0.00     0.002 A 
ATOM     15  C   UNL d   1      54.040  33.557  55.272  0.00  0.00     0.024 A 
ATOM     16  C   UNL d   1      54.777  33.719  54.955  0.00  0.00     0.127 A 
ATOM     17  C   UNL d   1      54.894  33.602  54.147  0.00  0.00     0.024 A 
ATOM     18  C   UNL d   1      54.285  33.331  53.674  0.00  0.00     0.002 A 
BRANCH  16  19
ATOM     19  N   UNL d   1      55.385  33.989  55.427  0.00  0.00    -0.114 N 
ATOM     20  O   UNL d   1      55.433  33.745  56.205  0.00  0.00    -0.532 OA
ATOM     21  O   UNL d   1      55.939  34.498  55.122  0.00  0.00    -0.532 OA
ENDBRANCH  16  19
ENDBRANCH   6  13
TORSDOF 2
ENDMDL
