MODEL 1
REMARK VINA RESULT:      -2.7      0.000      0.000
REMARK  3 active torsions:
REMARK  status: ('A' for Active; 'I' for Inactive)
REMARK    1  A    between atoms: S_9  and  C_2 
REMARK    2  A    between atoms: C_8  and  C_3 
REMARK    3  A    between atoms: C_10  and  S_9 
ROOT
ATOM      1  N   UNL d   1      28.010  15.477 -23.624  0.00  0.00    -0.195 NA
ATOM      2  C   UNL d   1      28.795  15.683 -23.486  0.00  0.00     0.086 C 
ATOM      3  C   UNL d   1      29.579  15.889 -23.342  0.00  0.00     0.169 C 
ENDROOT
BRANCH   3   4
ATOM      4  S   UNL d   1      30.088  15.994 -23.971  0.00  0.00    -0.072 SA
BRANCH   4   5
ATOM      5  C   UNL d   1      30.841  16.300 -23.854  0.00  0.00     0.137 A 
ATOM      6  N   UNL d   1      31.073  17.092 -23.931  0.00  0.00    -0.232 NA
ATOM      7  C   UNL d   1      31.871  17.141 -23.763  0.00  0.00     0.089 A 
ATOM      8  C   UNL d   1      32.141  16.390 -23.581  0.00  0.00     0.057 A 
ATOM      9  S   UNL d   1      31.511  15.868 -23.636  0.00  0.00    -0.060 SA
BRANCH   7  10
ATOM     10  C   UNL d   1      32.327  17.829 -23.774  0.00  0.00     0.018 A 
ATOM     11  C   UNL d   1      32.468  18.199 -24.494  0.00  0.00     0.002 A 
ATOM     12  C   UNL d   1      32.925  18.887 -24.506  0.00  0.00     0.000 A 
ATOM     13  C   UNL d   1      33.234  19.199 -23.805  0.00  0.00     0.000 A 
ATOM     14  C   UNL d   1      33.081  18.811 -23.086  0.00  0.00     0.000 A 
ATOM     15  C   UNL d   1      32.625  18.124 -23.079  0.00  0.00     0.002 A 
ENDBRANCH   7  10
ENDBRANCH   4   5
ENDBRANCH   3   4
TORSDOF 3
ENDMDL
MODEL 2
REMARK VINA RESULT:      -2.5      3.211      4.627
REMARK  3 active torsions:
REMARK  status: ('A' for Active; 'I' for Inactive)
REMARK    1  A    between atoms: S_9  and  C_2 
REMARK    2  A    between atoms: C_8  and  C_3 
REMARK    3  A    between atoms: C_10  and  S_9 
ROOT
ATOM      1  N   UNL d   1      32.089  22.932 -20.616  0.00  0.00    -0.195 NA
ATOM      2  C   UNL d   1      32.236  22.145 -20.806  0.00  0.00     0.086 C 
ATOM      3  C   UNL d   1      32.378  21.355 -20.992  0.00  0.00     0.169 C 
ENDROOT
BRANCH   3   4
ATOM      4  S   UNL d   1      32.970  21.168 -21.522  0.00  0.00    -0.072 SA
BRANCH   4   5
ATOM      5  C   UNL d   1      33.033  20.409 -21.829  0.00  0.00     0.137 A 
ATOM      6  N   UNL d   1      32.902  20.179 -22.614  0.00  0.00    -0.232 NA
ATOM      7  C   UNL d   1      33.027  19.374 -22.668  0.00  0.00     0.089 A 
ATOM      8  C   UNL d   1      33.236  19.098 -21.926  0.00  0.00     0.057 A 
ATOM      9  S   UNL d   1      33.241  19.731 -21.406  0.00  0.00    -0.060 SA
BRANCH   7  10
ATOM     10  C   UNL d   1      32.957  18.917 -23.352  0.00  0.00     0.018 A 
ATOM     11  C   UNL d   1      32.636  18.163 -23.293  0.00  0.00     0.002 A 
ATOM     12  C   UNL d   1      32.565  17.705 -23.976  0.00  0.00     0.000 A 
ATOM     13  C   UNL d   1      32.813  18.000 -24.708  0.00  0.00     0.000 A 
ATOM     14  C   UNL d   1      33.135  18.765 -24.749  0.00  0.00     0.000 A 
ATOM     15  C   UNL d   1      33.204  19.218 -24.063  0.00  0.00     0.002 A 
ENDBRANCH   7  10
ENDBRANCH   4   5
ENDBRANCH   3   4
TORSDOF 3
ENDMDL
MODEL 3
REMARK VINA RESULT:      -2.2      5.822      7.241
REMARK  3 active torsions:
REMARK  status: ('A' for Active; 'I' for Inactive)
REMARK    1  A    between atoms: S_9  and  C_2 
REMARK    2  A    between atoms: C_8  and  C_3 
REMARK    3  A    between atoms: C_10  and  S_9 
ROOT
ATOM      1  N   UNL d   1      32.523  23.639 -16.898  0.00  0.00    -0.195 NA
ATOM      2  C   UNL d   1      32.812  23.563 -17.665  0.00  0.00     0.086 C 
ATOM      3  C   UNL d   1      33.108  23.486 -18.429  0.00  0.00     0.169 C 
ENDROOT
BRANCH   3   4
ATOM      4  S   UNL d   1      32.598  23.540 -19.064  0.00  0.00    -0.072 SA
BRANCH   4   5
ATOM      5  C   UNL d   1      32.812  23.245 -19.799  0.00  0.00     0.137 A 
ATOM      6  N   UNL d   1      32.787  22.453 -20.043  0.00  0.00    -0.232 NA
ATOM      7  C   UNL d   1      33.050  22.416 -20.815  0.00  0.00     0.089 A 
ATOM      8  C   UNL d   1      33.240  23.174 -21.058  0.00  0.00     0.057 A 
ATOM      9  S   UNL d   1      33.095  23.688 -20.436  0.00  0.00    -0.060 SA
BRANCH   7  10
ATOM     10  C   UNL d   1      33.114  21.732 -21.273  0.00  0.00     0.018 A 
ATOM     11  C   UNL d   1      33.119  21.001 -20.896  0.00  0.00     0.002 A 
ATOM     12  C   UNL d   1      33.183  20.317 -21.354  0.00  0.00     0.000 A 
ATOM     13  C   UNL d   1      33.241  20.365 -22.177  0.00  0.00     0.000 A 
ATOM     14  C   UNL d   1      33.234  21.112 -22.542  0.00  0.00     0.000 A 
ATOM     15  C   UNL d   1      33.170  21.794 -22.080  0.00  0.00     0.002 A 
ENDBRANCH   7  10
ENDBRANCH   4   5
ENDBRANCH   3   4
TORSDOF 3
ENDMDL
MODEL 4
REMARK VINA RESULT:      -1.4      6.841      7.526
REMARK  3 active torsions:
REMARK  status: ('A' for Active; 'I' for Inactive)
REMARK    1  A    between atoms: S_9  and  C_2 
REMARK    2  A    between atoms: C_8  and  C_3 
REMARK    3  A    between atoms: C_10  and  S_9 
ROOT
ATOM      1  N   UNL d   1      32.310  23.476 -16.888  0.00  0.00    -0.195 NA
ATOM      2  C   UNL d   1      32.577  23.313 -17.649  0.00  0.00     0.086 C 
ATOM      3  C   UNL d   1      32.848  23.147 -18.408  0.00  0.00     0.169 C 
ENDROOT
BRANCH   3   4
ATOM      4  S   UNL d   1      32.492  23.506 -19.049  0.00  0.00    -0.072 SA
BRANCH   4   5
ATOM      5  C   UNL d   1      32.655  23.255 -19.814  0.00  0.00     0.137 A 
ATOM      6  N   UNL d   1      32.421  23.624 -20.518  0.00  0.00    -0.232 NA
ATOM      7  C   UNL d   1      32.706  23.183 -21.144  0.00  0.00     0.089 A 
ATOM      8  C   UNL d   1      33.115  22.543 -20.840  0.00  0.00     0.057 A 
ATOM      9  S   UNL d   1      33.087  22.582 -20.022  0.00  0.00    -0.060 SA
BRANCH   7  10
ATOM     10  C   UNL d   1      32.599  23.353 -21.944  0.00  0.00     0.018 A 
ATOM     11  C   UNL d   1      31.844  23.530 -22.215  0.00  0.00     0.002 A 
ATOM     12  C   UNL d   1      31.737  23.700 -23.015  0.00  0.00     0.000 A 
ATOM     13  C   UNL d   1      32.379  23.692 -23.537  0.00  0.00     0.000 A 
ATOM     14  C   UNL d   1      33.135  23.510 -23.246  0.00  0.00     0.000 A 
ATOM     15  C   UNL d   1      33.238  23.341 -22.445  0.00  0.00     0.002 A 
ENDBRANCH   7  10
ENDBRANCH   4   5
ENDBRANCH   3   4
TORSDOF 3
ENDMDL
MODEL 5
REMARK VINA RESULT:      -1.0      1.445      4.150
REMARK  3 active torsions:
REMARK  status: ('A' for Active; 'I' for Inactive)
REMARK    1  A    between atoms: S_9  and  C_2 
REMARK    2  A    between atoms: C_8  and  C_3 
REMARK    3  A    between atoms: C_10  and  S_9 
ROOT
ATOM      1  N   UNL d   1      33.234  19.460 -24.993  0.00  0.00    -0.195 NA
ATOM      2  C   UNL d   1      32.797  18.762 -24.982  0.00  0.00     0.086 C 
ATOM      3  C   UNL d   1      32.365  18.061 -24.974  0.00  0.00     0.169 C 
ENDROOT
BRANCH   3   4
ATOM      4  S   UNL d   1      31.614  18.057 -24.656  0.00  0.00    -0.072 SA
BRANCH   4   5
ATOM      5  C   UNL d   1      31.186  17.358 -24.602  0.00  0.00     0.137 A 
ATOM      6  N   UNL d   1      30.443  17.257 -24.248  0.00  0.00    -0.232 NA
ATOM      7  C   UNL d   1      30.230  16.473 -24.322  0.00  0.00     0.089 A 
ATOM      8  C   UNL d   1      30.830  16.081 -24.719  0.00  0.00     0.057 A 
ATOM      9  S   UNL d   1      31.421  16.622 -24.893  0.00  0.00    -0.060 SA
BRANCH   7  10
ATOM     10  C   UNL d   1      29.531  16.132 -24.047  0.00  0.00     0.018 A 
ATOM     11  C   UNL d   1      29.475  15.931 -23.251  0.00  0.00     0.002 A 
ATOM     12  C   UNL d   1      28.776  15.590 -22.975  0.00  0.00     0.000 A 
ATOM     13  C   UNL d   1      28.142  15.452 -23.488  0.00  0.00     0.000 A 
ATOM     14  C   UNL d   1      28.217  15.662 -24.289  0.00  0.00     0.000 A 
ATOM     15  C   UNL d   1      28.917  16.002 -24.561  0.00  0.00     0.002 A 
ENDBRANCH   7  10
ENDBRANCH   4   5
ENDBRANCH   3   4
TORSDOF 3
ENDMDL
MODEL 6
REMARK VINA RESULT:      -0.7      2.148      2.590
REMARK  3 active torsions:
REMARK  status: ('A' for Active; 'I' for Inactive)
REMARK    1  A    between atoms: S_9  and  C_2 
REMARK    2  A    between atoms: C_8  and  C_3 
REMARK    3  A    between atoms: C_10  and  S_9 
ROOT
ATOM      1  N   UNL d   1      28.342  18.790 -25.040  0.00  0.00    -0.195 NA
ATOM      2  C   UNL d   1      28.500  18.085 -24.645  0.00  0.00     0.086 C 
ATOM      3  C   UNL d   1      28.656  17.383 -24.244  0.00  0.00     0.169 C 
ENDROOT
BRANCH   3   4
ATOM      4  S   UNL d   1      29.042  16.777 -24.632  0.00  0.00    -0.072 SA
BRANCH   4   5
ATOM      5  C   UNL d   1      29.623  16.340 -24.251  0.00  0.00     0.137 A 
ATOM      6  N   UNL d   1      30.443  16.418 -24.344  0.00  0.00    -0.232 NA
ATOM      7  C   UNL d   1      30.808  15.872 -23.858  0.00  0.00     0.089 A 
ATOM      8  C   UNL d   1      30.226  15.453 -23.463  0.00  0.00     0.057 A 
ATOM      9  S   UNL d   1      29.495  15.737 -23.701  0.00  0.00    -0.060 SA
BRANCH   7  10
ATOM     10  C   UNL d   1      31.622  15.760 -23.779  0.00  0.00     0.018 A 
ATOM     11  C   UNL d   1      31.929  15.600 -23.034  0.00  0.00     0.002 A 
ATOM     12  C   UNL d   1      32.743  15.488 -22.953  0.00  0.00     0.000 A 
ATOM     13  C   UNL d   1      33.241  15.536 -23.612  0.00  0.00     0.000 A 
ATOM     14  C   UNL d   1      32.913  15.699 -24.358  0.00  0.00     0.000 A 
ATOM     15  C   UNL d   1      32.099  15.810 -24.433  0.00  0.00     0.002 A 
ENDBRANCH   7  10
ENDBRANCH   4   5
ENDBRANCH   3   4
TORSDOF 3
ENDMDL
MODEL 7
REMARK VINA RESULT:      -0.6      6.037      7.410
REMARK  3 active torsions:
REMARK  status: ('A' for Active; 'I' for Inactive)
REMARK    1  A    between atoms: S_9  and  C_2 
REMARK    2  A    between atoms: C_8  and  C_3 
REMARK    3  A    between atoms: C_10  and  S_9 
ROOT
ATOM      1  N   UNL d   1      32.687  22.952 -23.997  0.00  0.00    -0.195 NA
ATOM      2  C   UNL d   1      32.618  22.657 -23.231  0.00  0.00     0.086 C 
ATOM      3  C   UNL d   1      32.544  22.358 -22.468  0.00  0.00     0.169 C 
ENDROOT
BRANCH   3   4
ATOM      4  S   UNL d   1      32.957  22.709 -21.858  0.00  0.00    -0.072 SA
BRANCH   4   5
ATOM      5  C   UNL d   1      32.745  22.574 -21.076  0.00  0.00     0.137 A 
ATOM      6  N   UNL d   1      32.836  23.097 -20.440  0.00  0.00    -0.232 NA
ATOM      7  C   UNL d   1      32.550  22.732 -19.767  0.00  0.00     0.089 A 
ATOM      8  C   UNL d   1      32.281  21.988 -19.975  0.00  0.00     0.057 A 
ATOM      9  S   UNL d   1      32.399  21.886 -20.780  0.00  0.00    -0.060 SA
BRANCH   7  10
ATOM     10  C   UNL d   1      32.535  23.057 -19.009  0.00  0.00     0.018 A 
ATOM     11  C   UNL d   1      33.230  23.073 -18.570  0.00  0.00     0.002 A 
ATOM     12  C   UNL d   1      33.216  23.398 -17.812  0.00  0.00     0.000 A 
ATOM     13  C   UNL d   1      32.514  23.702 -17.497  0.00  0.00     0.000 A 
ATOM     14  C   UNL d   1      31.820  23.677 -17.955  0.00  0.00     0.000 A 
ATOM     15  C   UNL d   1      31.840  23.352 -18.713  0.00  0.00     0.002 A 
ENDBRANCH   7  10
ENDBRANCH   4   5
ENDBRANCH   3   4
TORSDOF 3
ENDMDL
MODEL 8
REMARK VINA RESULT:      -0.6      3.560      4.786
REMARK  3 active torsions:
REMARK  status: ('A' for Active; 'I' for Inactive)
REMARK    1  A    between atoms: S_9  and  C_2 
REMARK    2  A    between atoms: C_8  and  C_3 
REMARK    3  A    between atoms: C_10  and  S_9 
ROOT
ATOM      1  N   UNL d   1      31.557  18.651 -24.626  0.00  0.00    -0.195 NA
ATOM      2  C   UNL d   1      32.013  18.819 -23.962  0.00  0.00     0.086 C 
ATOM      3  C   UNL d   1      32.468  18.981 -23.295  0.00  0.00     0.169 C 
ENDROOT
BRANCH   3   4
ATOM      4  S   UNL d   1      32.887  19.681 -23.256  0.00  0.00    -0.072 SA
BRANCH   4   5
ATOM      5  C   UNL d   1      33.005  20.059 -22.537  0.00  0.00     0.137 A 
ATOM      6  N   UNL d   1      32.990  20.876 -22.397  0.00  0.00    -0.232 NA
ATOM      7  C   UNL d   1      33.135  21.001 -21.603  0.00  0.00     0.089 A 
ATOM      8  C   UNL d   1      33.240  20.273 -21.244  0.00  0.00     0.057 A 
ATOM      9  S   UNL d   1      33.160  19.689 -21.815  0.00  0.00    -0.060 SA
BRANCH   7  10
ATOM     10  C   UNL d   1      33.170  21.734 -21.227  0.00  0.00     0.018 A 
ATOM     11  C   UNL d   1      33.195  21.757 -20.405  0.00  0.00     0.002 A 
ATOM     12  C   UNL d   1      33.230  22.491 -20.028  0.00  0.00     0.000 A 
ATOM     13  C   UNL d   1      33.239  23.191 -20.468  0.00  0.00     0.000 A 
ATOM     14  C   UNL d   1      33.214  23.149 -21.298  0.00  0.00     0.000 A 
ATOM     15  C   UNL d   1      33.179  22.413 -21.671  0.00  0.00     0.002 A 
ENDBRANCH   7  10
ENDBRANCH   4   5
ENDBRANCH   3   4
TORSDOF 3
ENDMDL
