MODEL 1
REMARK VINA RESULT:      75.7      0.000      0.000
REMARK  4 active torsions:
REMARK  status: ('A' for Active; 'I' for Inactive)
REMARK    1  A    between atoms: N_2  and  S_1 
REMARK    2  A    between atoms: C_6  and  S_1 
REMARK    3  A    between atoms: C_3  and  C_11 
REMARK       I    between atoms: N_4  and  C_3 
REMARK    4  A    between atoms: C_17  and  N_5 
ROOT
ATOM      1  C   UNL d   1      13.690  15.783  -5.136  0.00  0.00     0.104 A 
ATOM      2  C   UNL d   1      13.431  14.183  -4.709  0.00  0.00     0.057 A 
ATOM      3  C   UNL d   1      14.192  15.169  -5.434  0.00  0.00     0.013 A 
ATOM      4  C   UNL d   1      13.085  15.559  -4.640  0.00  0.00     0.013 A 
ATOM      5  C   UNL d   1      14.070  14.386  -5.229  0.00  0.00     0.005 A 
ATOM      6  C   UNL d   1      12.964  14.770  -4.434  0.00  0.00     0.005 A 
ENDROOT
BRANCH   2   7
ATOM      7  C   UNL d   1      13.325  13.422  -4.519  0.00  0.00     0.265 C 
ATOM      8  N   UNL d   1      13.560  13.190  -3.782  0.00  0.00    -0.269 N 
ATOM      9  C   UNL d   1      13.452  12.407  -3.584  0.00  0.00     0.102 A 
ATOM     10  C   UNL d   1      13.901  13.704  -3.228  0.00  0.00     0.102 A 
ATOM     11  C   UNL d   1      13.677  12.119  -2.841  0.00  0.00     0.100 A 
ATOM     12  N   UNL d   1      14.010  12.635  -2.308  0.00  0.00    -0.301 N 
ATOM     13  C   UNL d   1      14.128  13.415  -2.478  0.00  0.00     0.100 A 
ATOM     14  O   UNL d   1      12.987  12.885  -5.052  0.00  0.00    -0.267 OA
BRANCH  12  15
ATOM     15  C   UNL d   1      14.233  12.347  -1.570  0.00  0.00     0.064 A 
ATOM     16  C   UNL d   1      14.986  12.059  -1.417  0.00  0.00     0.018 A 
ATOM     17  C   UNL d   1      15.202  11.779  -0.700  0.00  0.00     0.002 A 
ATOM     18  C   UNL d   1      14.631  11.782  -0.079  0.00  0.00     0.000 A 
ATOM     19  C   UNL d   1      13.906  12.062  -0.234  0.00  0.00     0.002 A 
ATOM     20  C   UNL d   1      13.684  12.349  -0.971  0.00  0.00     0.018 A 
ENDBRANCH  12  15
ENDBRANCH   2   7
BRANCH   1  21
ATOM     21  S   UNL d   1      13.812  16.552  -5.340  0.00  0.00     0.271 S 
ATOM     22  O   UNL d   1      14.380  16.619  -4.770  0.00  0.00    -0.200 OA
ATOM     23  O   UNL d   1      13.212  16.487  -5.945  0.00  0.00    -0.200 OA
BRANCH  21  24
ATOM     24  N   UNL d   1      13.940  17.348  -5.550  0.00  0.00    -0.229 N 
ATOM     25  C   UNL d   1      13.327  17.767  -5.856  0.00  0.00     0.092 A 
ATOM     26  C   UNL d   1      13.441  18.560  -6.069  0.00  0.00     0.018 A 
ATOM     27  C   UNL d   1      12.841  19.037  -6.389  0.00  0.00     0.002 C 
ATOM     28  C   UNL d   1      14.193  18.913  -5.964  0.00  0.00     0.003 A 
ATOM     29  C   UNL d   1      14.830  18.472  -5.645  0.00  0.00     0.018 A 
ATOM     30  C   UNL d   1      14.698  17.702  -5.443  0.00  0.00     0.092 A 
ATOM     31  C   UNL d   1      15.584  18.804  -5.532  0.00  0.00     0.002 C 
ENDBRANCH  21  24
ENDBRANCH   1  21
TORSDOF 4
ENDMDL
