MODEL 1
REMARK VINA RESULT:      -5.4      0.000      0.000
REMARK  3 active torsions:
REMARK  status: ('A' for Active; 'I' for Inactive)
REMARK    1  A    between atoms: S_5  and  C_1 
REMARK    2  A    between atoms: C_11  and  S_5 
REMARK    3  A    between atoms: C_9  and  C_11 
ROOT
ATOM      1  C   UNL d   1      56.029  -0.871  32.712  0.00  0.00     0.068 A 
ATOM      2  C   UNL d   1      55.724  -0.160  32.996  0.00  0.00     0.068 A 
ATOM      3  C   UNL d   1      56.607  -0.866  32.127  0.00  0.00     0.013 A 
ATOM      4  C   UNL d   1      56.000   0.556  32.692  0.00  0.00     0.012 A 
ATOM      5  C   UNL d   1      56.878  -0.156  31.828  0.00  0.00     0.007 A 
ATOM      6 CL   UNL d   1      55.754  -1.593  33.015  0.00  0.00    -0.082 Cl
ATOM      7 CL   UNL d   1      55.143  -0.157  33.584  0.00  0.00    -0.082 Cl
ATOM      8  C   UNL d   1      56.578   0.560  32.107  0.00  0.00     0.001 A 
ENDROOT
BRANCH   5   9
ATOM      9  C   UNL d   1      57.459  -0.151  31.240  0.00  0.00     0.038 C 
BRANCH   9  10
ATOM     10  S   UNL d   1      57.610   0.471  30.708  0.00  0.00    -0.048 SA
BRANCH  10  11
ATOM     11  C   UNL d   1      58.164   0.364  30.093  0.00  0.00     0.194 A 
ATOM     12  N   UNL d   1      58.983   0.441  30.157  0.00  0.00    -0.218 NA
ATOM     13  C   UNL d   1      59.317   0.287  29.414  0.00  0.00     0.122 A 
ATOM     14  C   UNL d   1      58.697   0.113  28.888  0.00  0.00     0.122 A 
ATOM     15  N   UNL d   1      57.988   0.161  29.309  0.00  0.00    -0.218 NA
ENDBRANCH  10  11
ENDBRANCH   9  10
ENDBRANCH   5   9
TORSDOF 3
ENDMDL
MODEL 2
REMARK VINA RESULT:      -3.6      2.555      3.930
REMARK  3 active torsions:
REMARK  status: ('A' for Active; 'I' for Inactive)
REMARK    1  A    between atoms: S_5  and  C_1 
REMARK    2  A    between atoms: C_11  and  S_5 
REMARK    3  A    between atoms: C_9  and  C_11 
ROOT
ATOM      1  C   UNL d   1      58.512  -0.723  29.746  0.00  0.00     0.068 A 
ATOM      2  C   UNL d   1      58.729   0.049  29.559  0.00  0.00     0.068 A 
ATOM      3  C   UNL d   1      57.943  -0.862  30.323  0.00  0.00     0.013 A 
ATOM      4  C   UNL d   1      58.375   0.682  29.952  0.00  0.00     0.012 A 
ATOM      5  C   UNL d   1      57.594  -0.233  30.710  0.00  0.00     0.007 A 
ATOM      6 CL   UNL d   1      58.866  -1.362  29.353  0.00  0.00    -0.082 Cl
ATOM      7 CL   UNL d   1      59.301   0.197  28.980  0.00  0.00    -0.082 Cl
ATOM      8  C   UNL d   1      57.806   0.543  30.529  0.00  0.00     0.001 A 
ENDROOT
BRANCH   5   9
ATOM      9  C   UNL d   1      57.022  -0.373  31.291  0.00  0.00     0.038 C 
BRANCH   9  10
ATOM     10  S   UNL d   1      56.990  -0.013  32.041  0.00  0.00    -0.048 SA
BRANCH  10  11
ATOM     11  C   UNL d   1      56.363  -0.197  32.561  0.00  0.00     0.194 A 
ATOM     12  N   UNL d   1      56.119  -0.954  32.780  0.00  0.00    -0.218 NA
ATOM     13  C   UNL d   1      55.480  -0.879  33.304  0.00  0.00     0.122 A 
ATOM     14  C   UNL d   1      55.331  -0.069  33.408  0.00  0.00     0.122 A 
ATOM     15  N   UNL d   1      55.876   0.350  32.949  0.00  0.00    -0.218 NA
ENDBRANCH  10  11
ENDBRANCH   9  10
ENDBRANCH   5   9
TORSDOF 3
ENDMDL
MODEL 3
REMARK VINA RESULT:      -3.6      2.640      3.972
REMARK  3 active torsions:
REMARK  status: ('A' for Active; 'I' for Inactive)
REMARK    1  A    between atoms: S_5  and  C_1 
REMARK    2  A    between atoms: C_11  and  S_5 
REMARK    3  A    between atoms: C_9  and  C_11 
ROOT
ATOM      1  C   UNL d   1      57.516  -0.772  30.867  0.00  0.00     0.068 A 
ATOM      2  C   UNL d   1      57.942  -0.108  30.630  0.00  0.00     0.068 A 
ATOM      3  C   UNL d   1      57.029  -0.735  31.528  0.00  0.00     0.013 A 
ATOM      4  C   UNL d   1      57.879   0.595  31.059  0.00  0.00     0.012 A 
ATOM      5  C   UNL d   1      56.969  -0.038  31.950  0.00  0.00     0.007 A 
ATOM      6 CL   UNL d   1      57.577  -1.480  30.438  0.00  0.00    -0.082 Cl
ATOM      7 CL   UNL d   1      58.434  -0.138  29.966  0.00  0.00    -0.082 Cl
ATOM      8  C   UNL d   1      57.392   0.632  31.720  0.00  0.00     0.001 A 
ENDROOT
BRANCH   5   9
ATOM      9  C   UNL d   1      56.479   0.000  32.615  0.00  0.00     0.038 C 
BRANCH   9  10
ATOM     10  S   UNL d   1      56.067   0.673  32.881  0.00  0.00    -0.048 SA
BRANCH  10  11
ATOM     11  C   UNL d   1      55.605   0.628  33.575  0.00  0.00     0.194 A 
ATOM     12  N   UNL d   1      55.885   0.682  34.349  0.00  0.00    -0.218 NA
ATOM     13  C   UNL d   1      55.238   0.609  34.864  0.00  0.00     0.122 A 
ATOM     14  C   UNL d   1      54.556   0.510  34.402  0.00  0.00     0.122 A 
ATOM     15  N   UNL d   1      54.784   0.521  33.607  0.00  0.00    -0.218 NA
ENDBRANCH  10  11
ENDBRANCH   9  10
ENDBRANCH   5   9
TORSDOF 3
ENDMDL
MODEL 4
REMARK VINA RESULT:      -2.6     10.051     10.507
REMARK  3 active torsions:
REMARK  status: ('A' for Active; 'I' for Inactive)
REMARK    1  A    between atoms: S_5  and  C_1 
REMARK    2  A    between atoms: C_11  and  S_5 
REMARK    3  A    between atoms: C_9  and  C_11 
ROOT
ATOM      1  C   UNL d   1      57.959  -9.816  31.844  0.00  0.00     0.068 A 
ATOM      2  C   UNL d   1      58.549  -9.817  31.269  0.00  0.00     0.068 A 
ATOM      3  C   UNL d   1      58.160  -9.816  32.641  0.00  0.00     0.013 A 
ATOM      4  C   UNL d   1      59.342  -9.817  31.496  0.00  0.00     0.012 A 
ATOM      5  C   UNL d   1      58.946  -9.816  32.862  0.00  0.00     0.007 A 
ATOM      6 CL   UNL d   1      57.160  -9.816  31.619  0.00  0.00    -0.082 Cl
ATOM      7 CL   UNL d   1      58.355  -9.818  30.466  0.00  0.00    -0.082 Cl
ATOM      8  C   UNL d   1      59.543  -9.817  32.294  0.00  0.00     0.001 A 
ENDROOT
BRANCH   5   9
ATOM      9  C   UNL d   1      59.149  -9.815  33.664  0.00  0.00     0.038 C 
BRANCH   9  10
ATOM     10  S   UNL d   1      59.600  -9.234  34.053  0.00  0.00    -0.048 SA
BRANCH  10  11
ATOM     11  C   UNL d   1      59.712  -9.281  34.879  0.00  0.00     0.194 A 
ATOM     12  N   UNL d   1      60.376  -9.586  35.263  0.00  0.00    -0.218 NA
ATOM     13  C   UNL d   1      60.252  -9.524  36.081  0.00  0.00     0.122 A 
ATOM     14  C   UNL d   1      59.506  -9.179  36.200  0.00  0.00     0.122 A 
ATOM     15  N   UNL d   1      59.175  -9.030  35.458  0.00  0.00    -0.218 NA
ENDBRANCH  10  11
ENDBRANCH   9  10
ENDBRANCH   5   9
TORSDOF 3
ENDMDL
