MODEL 1
REMARK VINA RESULT:      99.3      0.000      0.000
REMARK  6 active torsions:
REMARK  status: ('A' for Active; 'I' for Inactive)
REMARK    1  A    between atoms: C_9  and  N_1 
REMARK    2  A    between atoms: N_2  and  C_8 
REMARK       I    between atoms: C_3  and  N_5 
REMARK    3  A    between atoms: C_12  and  C_3 
REMARK    4  A    between atoms: C_4  and  C_11 
REMARK       I    between atoms: N_6  and  C_4 
REMARK    5  A    between atoms: N_5  and  C_7 
REMARK    6  A    between atoms: C_10  and  N_6 
ROOT
ATOM      1  C   UNL d   1     -55.052-100.017 -40.683  0.00  0.00     0.121 A 
ATOM      2  C   UNL d   1     -54.908-100.780 -40.406  0.00  0.00     0.105 A 
ATOM      3  N   UNL d   1     -55.299 -99.528 -39.367  0.00  0.00    -0.241 NA
ATOM      4  C   UNL d   1     -54.964-100.913 -39.572  0.00  0.00     0.042 A 
ATOM      5  C   UNL d   1     -55.247 -99.387 -40.187  0.00  0.00     0.120 A 
ATOM      6  C   UNL d   1     -55.155-100.294 -39.079  0.00  0.00     0.101 A 
ENDROOT
BRANCH   1   7
ATOM      7  N   UNL d   1     -54.995 -99.887 -41.520  0.00  0.00    -0.205 NA
ATOM      8  C   UNL d   1     -55.560 -99.387 -41.906  0.00  0.00     0.279 C 
ATOM      9  O   UNL d   1     -56.170 -99.028 -41.441  0.00  0.00    -0.265 OA
BRANCH   8  10
ATOM     10  C   UNL d   1     -55.510 -99.255 -42.722  0.00  0.00     0.059 A 
ATOM     11  C   UNL d   1     -56.201 -99.167 -43.167  0.00  0.00     0.028 A 
ATOM     12  C   UNL d   1     -56.147 -99.039 -43.964  0.00  0.00     0.127 A 
ATOM     13  C   UNL d   1     -55.426 -98.996 -44.330  0.00  0.00     0.024 A 
ATOM     14  C   UNL d   1     -54.728 -99.082 -43.903  0.00  0.00     0.002 A 
ATOM     15  C   UNL d   1     -54.771 -99.214 -43.081  0.00  0.00     0.005 A 
BRANCH  12  16
ATOM     16  N   UNL d   1     -56.809 -98.949 -44.417  0.00  0.00    -0.114 N 
ATOM     17  O   UNL d   1     -57.569 -98.772 -44.135  0.00  0.00    -0.532 OA
ATOM     18  O   UNL d   1     -56.816 -99.024 -45.230  0.00  0.00    -0.532 OA
ENDBRANCH  12  16
ENDBRANCH   8  10
ENDBRANCH   1   7
BRANCH   2  19
ATOM     19  N   UNL d   1     -54.713-101.410 -40.908  0.00  0.00    -0.206 NA
ATOM     20  C   UNL d   1     -54.943-102.183 -40.729  0.00  0.00     0.279 C 
ATOM     21  O   UNL d   1     -54.753-102.799 -41.218  0.00  0.00    -0.265 OA
BRANCH  20  22
ATOM     22  C   UNL d   1     -55.387-102.330 -40.019  0.00  0.00     0.059 A 
ATOM     23  C   UNL d   1     -55.025-102.222 -39.286  0.00  0.00     0.028 A 
ATOM     24  C   UNL d   1     -55.452-102.364 -38.601  0.00  0.00     0.127 A 
ATOM     25  C   UNL d   1     -56.210-102.603 -38.644  0.00  0.00     0.024 A 
ATOM     26  C   UNL d   1     -56.594-102.718 -39.382  0.00  0.00     0.002 A 
ATOM     27  C   UNL d   1     -56.164-102.576 -40.080  0.00  0.00     0.005 A 
BRANCH  24  28
ATOM     28  N   UNL d   1     -55.116-102.264 -37.867  0.00  0.00    -0.114 N 
ATOM     29  O   UNL d   1     -54.740-102.868 -37.429  0.00  0.00    -0.532 OA
ATOM     30  O   UNL d   1     -55.102-101.557 -37.463  0.00  0.00    -0.532 OA
ENDBRANCH  24  28
ENDBRANCH  20  22
ENDBRANCH   2  19
TORSDOF 6
ENDMDL
