MODEL 1
REMARK VINA RESULT:      -3.2      0.000      0.000
REMARK  6 active torsions:
REMARK  status: ('A' for Active; 'I' for Inactive)
REMARK    1  A    between atoms: C_11  and  C_2 
REMARK    2  A    between atoms: S_9  and  C_7 
REMARK    3  A    between atoms: C_13  and  S_9 
REMARK    4  A    between atoms: C_10  and  C_13 
REMARK    5  A    between atoms: O_18  and  C_10 
REMARK    6  A    between atoms: C_23  and  O_18 
ROOT
ATOM      1  N   UNL d   1      31.592  16.778 -24.426  0.00  0.00    -0.191 N 
ATOM      2  C   UNL d   1      30.964  16.262 -24.527  0.00  0.00     0.187 A 
ATOM      3  N   UNL d   1      31.246  15.599 -24.920  0.00  0.00    -0.127 NA
ATOM      4  C   UNL d   1      32.268  16.448 -24.751  0.00  0.00     0.187 A 
ATOM      5  N   UNL d   1      31.638  17.535 -24.067  0.00  0.00    -0.156 NA
ATOM      6  N   UNL d   1      32.052  15.706 -25.062  0.00  0.00    -0.127 NA
ATOM      7  C   UNL d   1      32.357  17.940 -24.043  0.00  0.00     0.131 A 
ATOM      8  C   UNL d   1      32.987  16.853 -24.727  0.00  0.00     0.043 A 
ATOM      9  C   UNL d   1      33.031  17.598 -24.374  0.00  0.00     0.031 A 
ENDROOT
BRANCH   7  10
ATOM     10  S   UNL d   1      32.401  18.685 -23.689  0.00  0.00    -0.061 SA
BRANCH  10  11
ATOM     11  C   UNL d   1      32.915  18.810 -23.059  0.00  0.00     0.094 C 
ATOM     12  C   UNL d   1      33.238  18.170 -22.664  0.00  0.00     0.013 C 
BRANCH  11  13
ATOM     13  C   UNL d   1      33.101  19.570 -22.829  0.00  0.00     0.306 C 
ATOM     14  O   UNL d   1      33.241  20.153 -23.397  0.00  0.00    -0.258 OA
BRANCH  13  15
ATOM     15  O   UNL d   1      33.154  19.769 -22.028  0.00  0.00    -0.271 OA
BRANCH  15  16
ATOM     16  C   UNL d   1      33.024  20.532 -21.787  0.00  0.00     0.126 C 
ATOM     17  C   UNL d   1      32.880  20.675 -21.000  0.00  0.00     0.029 C 
ENDBRANCH  15  16
ENDBRANCH  13  15
ENDBRANCH  11  13
ENDBRANCH  10  11
ENDBRANCH   7  10
BRANCH   2  18
ATOM     18  C   UNL d   1      30.191  16.378 -24.283  0.00  0.00     0.038 A 
ATOM     19  C   UNL d   1      29.954  16.105 -23.539  0.00  0.00     0.005 A 
ATOM     20  C   UNL d   1      29.172  16.220 -23.288  0.00  0.00     0.030 A 
ATOM     21  C   UNL d   1      28.637  16.607 -23.782  0.00  0.00     0.140 A 
ATOM     22  C   UNL d   1      28.874  16.881 -24.526  0.00  0.00     0.030 A 
ATOM     23  F   UNL d   1      27.860  16.723 -23.535  0.00  0.00    -0.204 F 
ATOM     24  C   UNL d   1      29.655  16.762 -24.770  0.00  0.00     0.005 A 
ENDBRANCH   2  18
TORSDOF 6
ENDMDL
MODEL 2
REMARK VINA RESULT:      -1.1      2.319      4.429
REMARK  6 active torsions:
REMARK  status: ('A' for Active; 'I' for Inactive)
REMARK    1  A    between atoms: C_11  and  C_2 
REMARK    2  A    between atoms: S_9  and  C_7 
REMARK    3  A    between atoms: C_13  and  S_9 
REMARK    4  A    between atoms: C_10  and  C_13 
REMARK    5  A    between atoms: O_18  and  C_10 
REMARK    6  A    between atoms: C_23  and  O_18 
ROOT
ATOM      1  N   UNL d   1      32.628  18.525 -23.895  0.00  0.00    -0.191 N 
ATOM      2  C   UNL d   1      32.922  19.249 -23.648  0.00  0.00     0.187 A 
ATOM      3  N   UNL d   1      33.240  19.627 -24.302  0.00  0.00    -0.127 NA
ATOM      4  C   UNL d   1      32.757  18.443 -24.700  0.00  0.00     0.187 A 
ATOM      5  N   UNL d   1      32.245  17.907 -23.476  0.00  0.00    -0.156 NA
ATOM      6  N   UNL d   1      33.142  19.135 -24.958  0.00  0.00    -0.127 NA
ATOM      7  C   UNL d   1      32.002  17.225 -23.873  0.00  0.00     0.131 A 
ATOM      8  C   UNL d   1      32.515  17.761 -25.097  0.00  0.00     0.043 A 
ATOM      9  C   UNL d   1      32.138  17.153 -24.683  0.00  0.00     0.031 A 
ENDROOT
BRANCH   7  10
ATOM     10  S   UNL d   1      31.625  16.618 -23.459  0.00  0.00    -0.061 SA
BRANCH  10  11
ATOM     11  C   UNL d   1      30.993  16.218 -23.804  0.00  0.00     0.094 C 
ATOM     12  C   UNL d   1      31.101  15.815 -24.507  0.00  0.00     0.013 C 
BRANCH  11  13
ATOM     13  C   UNL d   1      30.262  16.226 -23.444  0.00  0.00     0.306 C 
ATOM     14  O   UNL d   1      30.204  16.212 -22.620  0.00  0.00    -0.258 OA
BRANCH  13  15
ATOM     15  O   UNL d   1      29.568  16.247 -23.894  0.00  0.00    -0.271 OA
BRANCH  15  16
ATOM     16  C   UNL d   1      28.858  16.048 -23.560  0.00  0.00     0.126 C 
ATOM     17  C   UNL d   1      28.185  16.429 -23.812  0.00  0.00     0.029 C 
ENDBRANCH  15  16
ENDBRANCH  13  15
ENDBRANCH  11  13
ENDBRANCH  10  11
ENDBRANCH   7  10
BRANCH   2  18
ATOM     18  C   UNL d   1      32.905  19.549 -22.885  0.00  0.00     0.038 A 
ATOM     19  C   UNL d   1      32.545  20.281 -22.745  0.00  0.00     0.005 A 
ATOM     20  C   UNL d   1      32.526  20.589 -21.975  0.00  0.00     0.030 A 
ATOM     21  C   UNL d   1      32.866  20.163 -21.356  0.00  0.00     0.140 A 
ATOM     22  C   UNL d   1      33.225  19.431 -21.497  0.00  0.00     0.030 A 
ATOM     23  F   UNL d   1      32.848  20.466 -20.590  0.00  0.00    -0.204 F 
ATOM     24  C   UNL d   1      33.241  19.130 -22.267  0.00  0.00     0.005 A 
ENDBRANCH   2  18
TORSDOF 6
ENDMDL
MODEL 3
REMARK VINA RESULT:      -0.9      2.355      4.070
REMARK  6 active torsions:
REMARK  status: ('A' for Active; 'I' for Inactive)
REMARK    1  A    between atoms: C_11  and  C_2 
REMARK    2  A    between atoms: S_9  and  C_7 
REMARK    3  A    between atoms: C_13  and  S_9 
REMARK    4  A    between atoms: C_10  and  C_13 
REMARK    5  A    between atoms: O_18  and  C_10 
REMARK    6  A    between atoms: C_23  and  O_18 
ROOT
ATOM      1  N   UNL d   1      31.999  16.577 -24.267  0.00  0.00    -0.191 N 
ATOM      2  C   UNL d   1      32.654  17.059 -24.164  0.00  0.00     0.187 A 
ATOM      3  N   UNL d   1      33.240  16.797 -24.674  0.00  0.00    -0.127 NA
ATOM      4  C   UNL d   1      32.166  16.014 -24.837  0.00  0.00     0.187 A 
ATOM      5  N   UNL d   1      31.244  16.580 -23.901  0.00  0.00    -0.156 NA
ATOM      6  N   UNL d   1      32.947  16.150 -25.094  0.00  0.00    -0.127 NA
ATOM      7  C   UNL d   1      30.678  16.019 -24.116  0.00  0.00     0.131 A 
ATOM      8  C   UNL d   1      31.600  15.453 -25.052  0.00  0.00     0.043 A 
ATOM      9  C   UNL d   1      30.857  15.456 -24.692  0.00  0.00     0.031 A 
ENDROOT
BRANCH   7  10
ATOM     10  S   UNL d   1      29.934  16.022 -23.756  0.00  0.00    -0.061 SA
BRANCH  10  11
ATOM     11  C   UNL d   1      29.283  16.321 -24.162  0.00  0.00     0.094 C 
ATOM     12  C   UNL d   1      29.218  16.205 -24.969  0.00  0.00     0.013 C 
BRANCH  11  13
ATOM     13  C   UNL d   1      28.706  16.732 -23.759  0.00  0.00     0.306 C 
ATOM     14  O   UNL d   1      28.083  16.327 -23.398  0.00  0.00    -0.258 OA
BRANCH  13  15
ATOM     15  O   UNL d   1      28.733  17.556 -23.704  0.00  0.00    -0.271 OA
BRANCH  15  16
ATOM     16  C   UNL d   1      28.062  17.996 -23.816  0.00  0.00     0.126 C 
ATOM     17  C   UNL d   1      27.882  18.582 -23.280  0.00  0.00     0.029 C 
ENDBRANCH  15  16
ENDBRANCH  13  15
ENDBRANCH  11  13
ENDBRANCH  10  11
ENDBRANCH   7  10
BRANCH   2  18
ATOM     18  C   UNL d   1      32.720  17.691 -23.646  0.00  0.00     0.038 A 
ATOM     19  C   UNL d   1      32.496  18.447 -23.898  0.00  0.00     0.005 A 
ATOM     20  C   UNL d   1      32.561  19.090 -23.378  0.00  0.00     0.030 A 
ATOM     21  C   UNL d   1      32.848  18.970 -22.614  0.00  0.00     0.140 A 
ATOM     22  C   UNL d   1      33.072  18.214 -22.363  0.00  0.00     0.030 A 
ATOM     23  F   UNL d   1      32.914  19.607 -22.096  0.00  0.00    -0.204 F 
ATOM     24  C   UNL d   1      33.004  17.578 -22.887  0.00  0.00     0.005 A 
ENDBRANCH   2  18
TORSDOF 6
ENDMDL
