MODEL 1
REMARK VINA RESULT:      55.3      0.000      0.000
REMARK  5 active torsions:
REMARK  status: ('A' for Active; 'I' for Inactive)
REMARK    1  A    between atoms: C_12  and  C_1 
REMARK    2  A    between atoms: N_7  and  C_2 
REMARK    3  A    between atoms: C_3  and  C_6 
REMARK       I    between atoms: C_6  and  N_7 
REMARK    4  A    between atoms: O_18  and  C_12 
REMARK    5  A    between atoms: C_23  and  O_18 
ROOT
ATOM      1  C   UNL d   1      14.945  14.418  -0.810  0.00  0.00     0.111 A 
ATOM      2  C   UNL d   1      14.801  14.611  -1.566  0.00  0.00     0.096 A 
ATOM      3  S   UNL d   1      15.194  15.123  -0.418  0.00  0.00    -0.080 SA
ATOM      4  C   UNL d   1      14.943  15.407  -1.690  0.00  0.00     0.024 A 
ATOM      5  C   UNL d   1      15.189  15.726  -0.971  0.00  0.00     0.031 A 
ATOM      6  C   UNL d   1      14.881  15.886  -2.363  0.00  0.00     0.002 A 
ATOM      7  C   UNL d   1      15.377  16.526  -0.911  0.00  0.00     0.006 A 
ATOM      8  C   UNL d   1      15.070  16.690  -2.305  0.00  0.00     0.000 A 
ATOM      9  C   UNL d   1      15.316  17.009  -1.586  0.00  0.00     0.001 A 
ENDROOT
BRANCH   2  10
ATOM     10  N   UNL d   1      14.538  14.049  -2.137  0.00  0.00    -0.207 NA
ATOM     11  C   UNL d   1      13.853  14.199  -2.571  0.00  0.00     0.284 C 
ATOM     12  O   UNL d   1      13.434  14.947  -2.408  0.00  0.00    -0.265 OA
BRANCH  11  13
ATOM     13  C   UNL d   1      13.638  13.624  -3.114  0.00  0.00     0.121 A 
ATOM     14  C   UNL d   1      13.743  13.788  -3.914  0.00  0.00     0.204 A 
ATOM     15  C   UNL d   1      13.537  13.231  -4.495  0.00  0.00     0.062 A 
ATOM     16  O   UNL d   1      14.067  14.540  -4.144  0.00  0.00    -0.286 OA
ATOM     17  C   UNL d   1      13.647  13.409  -5.286  0.00  0.00     0.005 A 
ATOM     18  C   UNL d   1      13.221  12.499  -4.263  0.00  0.00     0.103 A 
ATOM     19  C   UNL d   1      13.437  12.841  -5.851  0.00  0.00     0.000 A 
ATOM     20  C   UNL d   1      13.124  12.114  -5.636  0.00  0.00     0.002 A 
ATOM     21  C   UNL d   1      13.019  11.948  -4.851  0.00  0.00     0.025 A 
ATOM     22  O   UNL d   1      13.113  12.327  -3.466  0.00  0.00    -0.305 OA
ATOM     23  C   UNL d   1      13.320  12.886  -2.887  0.00  0.00     0.131 A 
ENDBRANCH  11  13
ENDBRANCH   2  10
BRANCH   1  24
ATOM     24  C   UNL d   1      14.860  13.659  -0.489  0.00  0.00     0.308 C 
ATOM     25  O   UNL d   1      14.219  13.466  -0.024  0.00  0.00    -0.258 OA
BRANCH  24  26
ATOM     26  O   UNL d   1      15.436  13.141  -0.663  0.00  0.00    -0.271 OA
BRANCH  26  27
ATOM     27  C   UNL d   1      15.422  12.267  -0.473  0.00  0.00     0.126 C 
ATOM     28  C   UNL d   1      14.812  11.952  -0.057  0.00  0.00     0.029 C 
ENDBRANCH  26  27
ENDBRANCH  24  26
ENDBRANCH   1  24
TORSDOF 5
ENDMDL
MODEL 2
REMARK VINA RESULT:      56.2      1.266      3.971
REMARK  5 active torsions:
REMARK  status: ('A' for Active; 'I' for Inactive)
REMARK    1  A    between atoms: C_12  and  C_1 
REMARK    2  A    between atoms: N_7  and  C_2 
REMARK    3  A    between atoms: C_3  and  C_6 
REMARK       I    between atoms: C_6  and  N_7 
REMARK    4  A    between atoms: O_18  and  C_12 
REMARK    5  A    between atoms: C_23  and  O_18 
ROOT
ATOM      1  C   UNL d   1      13.831  12.572  -2.442  0.00  0.00     0.111 A 
ATOM      2  C   UNL d   1      14.308  13.136  -2.153  0.00  0.00     0.096 A 
ATOM      3  S   UNL d   1      13.817  11.946  -1.876  0.00  0.00    -0.080 SA
ATOM      4  C   UNL d   1      14.609  12.911  -1.425  0.00  0.00     0.024 A 
ATOM      5  C   UNL d   1      14.300  12.166  -1.254  0.00  0.00     0.031 A 
ATOM      6  C   UNL d   1      15.123  13.285  -0.895  0.00  0.00     0.002 A 
ATOM      7  C   UNL d   1      14.499  11.782  -0.552  0.00  0.00     0.006 A 
ATOM      8  C   UNL d   1      15.324  12.901  -0.189  0.00  0.00     0.000 A 
ATOM      9  C   UNL d   1      15.016  12.157  -0.018  0.00  0.00     0.001 A 
ENDROOT
BRANCH   2  10
ATOM     10  N   UNL d   1      14.464  13.855  -2.564  0.00  0.00    -0.207 NA
ATOM     11  C   UNL d   1      14.493  14.565  -2.144  0.00  0.00     0.284 C 
ATOM     12  O   UNL d   1      14.358  14.526  -1.283  0.00  0.00    -0.265 OA
BRANCH  11  13
ATOM     13  C   UNL d   1      14.647  15.238  -2.586  0.00  0.00     0.121 A 
ATOM     14  C   UNL d   1      14.724  15.954  -2.188  0.00  0.00     0.204 A 
ATOM     15  C   UNL d   1      14.880  16.659  -2.601  0.00  0.00     0.062 A 
ATOM     16  O   UNL d   1      14.641  15.969  -1.342  0.00  0.00    -0.286 OA
ATOM     17  C   UNL d   1      14.953  17.363  -2.191  0.00  0.00     0.005 A 
ATOM     18  C   UNL d   1      14.960  16.636  -3.427  0.00  0.00     0.103 A 
ATOM     19  C   UNL d   1      15.109  18.054  -2.618  0.00  0.00     0.000 A 
ATOM     20  C   UNL d   1      15.191  18.047  -3.435  0.00  0.00     0.002 A 
ATOM     21  C   UNL d   1      15.116  17.345  -3.831  0.00  0.00     0.025 A 
ATOM     22  O   UNL d   1      14.885  15.925  -3.833  0.00  0.00    -0.305 OA
ATOM     23  C   UNL d   1      14.729  15.222  -3.418  0.00  0.00     0.131 A 
ENDBRANCH  11  13
ENDBRANCH   2  10
BRANCH   1  24
ATOM     24  C   UNL d   1      13.431  12.614  -3.167  0.00  0.00     0.308 C 
ATOM     25  O   UNL d   1      12.954  13.248  -3.350  0.00  0.00    -0.258 OA
BRANCH  24  26
ATOM     26  O   UNL d   1      13.545  12.003  -3.661  0.00  0.00    -0.271 OA
BRANCH  26  27
ATOM     27  C   UNL d   1      13.006  11.779  -4.339  0.00  0.00     0.126 C 
ATOM     28  C   UNL d   1      13.213  11.948  -5.096  0.00  0.00     0.029 C 
ENDBRANCH  26  27
ENDBRANCH  24  26
ENDBRANCH   1  24
TORSDOF 5
ENDMDL
