MODEL 1
REMARK VINA RESULT:      35.0      0.000      0.000
REMARK  3 active torsions:
REMARK  status: ('A' for Active; 'I' for Inactive)
REMARK    1  A    between atoms: C_7  and  N_1 
REMARK    2  A    between atoms: C_13  and  C_7 
REMARK    3  A    between atoms: O_18  and  C_10 
ROOT
ATOM      1  N   UNL d   1      45.412 -15.917  44.868  0.00  0.00    -0.226 N 
ATOM      2  C   UNL d   1      46.106 -15.545  44.894  0.00  0.00     0.343 A 
ATOM      3  N   UNL d   1      46.019 -14.655  44.806  0.00  0.00    -0.241 N 
ATOM      4  C   UNL d   1      44.795 -15.486  44.777  0.00  0.00     0.273 A 
ATOM      5  C   UNL d   1      45.330 -14.412  44.726  0.00  0.00     0.158 A 
ATOM      6  C   UNL d   1      44.617 -14.834  44.703  0.00  0.00     0.113 A 
ATOM      7  N   UNL d   1      45.326 -13.588  44.652  0.00  0.00    -0.226 NA
ATOM      8  O   UNL d   1      46.645 -15.661  44.950  0.00  0.00    -0.245 OA
ATOM      9  C   UNL d   1      43.901 -14.431  44.606  0.00  0.00     0.103 A 
ATOM     10  O   UNL d   1      44.355 -15.784  44.766  0.00  0.00    -0.266 OA
ATOM     11  C   UNL d   1      46.640 -14.216  44.820  0.00  0.00     0.105 C 
ATOM     12  C   UNL d   1      44.611 -13.186  44.555  0.00  0.00     0.103 A 
ATOM     13  C   UNL d   1      43.897 -13.608  44.532  0.00  0.00     0.045 A 
ENDROOT
BRANCH   1  14
ATOM     14  C   UNL d   1      45.365 -16.736  44.938  0.00  0.00     0.087 C 
BRANCH  14  15
ATOM     15  C   UNL d   1      45.680 -17.225  44.358  0.00  0.00     0.018 A 
ATOM     16  C   UNL d   1      45.383 -17.192  43.574  0.00  0.00     0.002 A 
ATOM     17  C   UNL d   1      45.687 -17.671  42.992  0.00  0.00     0.011 A 
ATOM     18  C   UNL d   1      46.290 -18.190  43.178  0.00  0.00     0.058 A 
ATOM     19  C   UNL d   1      46.591 -18.231  43.950  0.00  0.00     0.011 A 
ATOM     20 CL   UNL d   1      46.602 -18.678  42.592  0.00  0.00    -0.082 Cl
ATOM     21  C   UNL d   1      46.289 -17.754  44.531  0.00  0.00     0.002 A 
ENDBRANCH  14  15
ENDBRANCH   1  14
BRANCH   9  22
ATOM     22  O   UNL d   1      43.121 -14.921  44.584  0.00  0.00    -0.328 OA
ATOM     23  C   UNL d   1      42.439 -14.642  44.954  0.00  0.00     0.181 C 
ENDBRANCH   9  22
TORSDOF 3
ENDMDL
