MODEL 1
REMARK VINA RESULT:      39.5      0.000      0.000
REMARK  4 active torsions:
REMARK  status: ('A' for Active; 'I' for Inactive)
REMARK    1  A    between atoms: C_2  and  C_1 
REMARK    2  A    between atoms: N_4  and  C_1 
REMARK    3  A    between atoms: O_13  and  C_5 
REMARK    4  A    between atoms: O_12  and  C_6 
ROOT
ATOM      1  C   UNL d   1     -56.538 -99.275 -44.453  0.00  0.00     0.031 A 
ATOM      2  C   UNL d   1     -58.161 -99.012 -44.594  0.00  0.00     0.138 A 
ATOM      3  C   UNL d   1     -57.835 -99.187 -43.853  0.00  0.00     0.118 A 
ATOM      4  C   UNL d   1     -57.675 -98.969 -45.266  0.00  0.00     0.118 A 
ATOM      5  C   UNL d   1     -57.027 -99.316 -43.790  0.00  0.00     0.029 A 
ATOM      6  C   UNL d   1     -56.864 -99.101 -45.192  0.00  0.00     0.029 A 
ATOM      7  O   UNL d   1     -58.974 -98.879 -44.676  0.00  0.00    -0.324 OA
ATOM      8  C   UNL d   1     -59.782 -98.756 -44.701  0.00  0.00     0.182 C 
ENDROOT
BRANCH   4   9
ATOM      9  O   UNL d   1     -57.998 -98.795 -46.007  0.00  0.00    -0.326 OA
ATOM     10  C   UNL d   1     -58.741 -99.078 -46.207  0.00  0.00     0.181 C 
ENDBRANCH   4   9
BRANCH   3  11
ATOM     11  O   UNL d   1     -58.332 -99.228 -43.180  0.00  0.00    -0.326 OA
ATOM     12  C   UNL d   1     -58.104 -98.834 -42.481  0.00  0.00     0.181 C 
ENDBRANCH   3  11
BRANCH   1  13
ATOM     13  C   UNL d   1     -55.733 -99.405 -44.384  0.00  0.00     0.120 C 
ATOM     14  S   UNL d   1     -55.220 -98.755 -44.294  0.00  0.00    -0.059 SA
BRANCH  13  15
ATOM     15  N   UNL d   1     -55.434-100.179 -44.405  0.00  0.00    -0.292 N 
ATOM     16  C   UNL d   1     -55.417-100.600 -43.711  0.00  0.00     0.108 A 
ATOM     17  C   UNL d   1     -55.122-101.378 -43.705  0.00  0.00     0.142 A 
ATOM     18  O   UNL d   1     -54.849-101.719 -44.400  0.00  0.00    -0.300 OA
ATOM     19  C   UNL d   1     -54.870-101.287 -45.102  0.00  0.00     0.142 A 
ATOM     20  C   UNL d   1     -55.161-100.522 -45.105  0.00  0.00     0.108 A 
ENDBRANCH  13  15
ENDBRANCH   1  13
TORSDOF 4
ENDMDL
