MODEL 1
REMARK VINA RESULT:      39.9      0.000      0.000
REMARK  11 active torsions:
REMARK  status: ('A' for Active; 'I' for Inactive)
REMARK    1  A    between atoms: N_5  and  S_1 
REMARK    2  A    between atoms: C_8  and  S_1 
REMARK    3  A    between atoms: C_2  and  N_10 
REMARK    4  A    between atoms: C_9  and  N_5 
REMARK    5  A    between atoms: C_18  and  N_5 
REMARK    6  A    between atoms: C_13  and  C_9 
REMARK    7  A    between atoms: N_10  and  O_14 
REMARK    8  A    between atoms: C_17  and  C_13 
REMARK    9  A    between atoms: O_14  and  C_17 
REMARK   10  A    between atoms: C_27  and  C_18 
REMARK   11  A    between atoms: C_29  and  C_27 
ROOT
ATOM      1  C   UNL d   1      45.217 -17.631  39.868  0.00  0.00     0.240 C 
ATOM      2  O   UNL d   1      45.096 -16.899  40.227  0.00  0.00    -0.283 OA
ENDROOT
BRANCH   1   3
ATOM      3  C   UNL d   1      45.354 -17.906  40.638  0.00  0.00     0.136 C 
BRANCH   3   4
ATOM      4  N   UNL d   1      46.055 -18.315  40.800  0.00  0.00    -0.226 N 
BRANCH   4   5
ATOM      5  S   UNL d   1      46.265 -18.485  41.583  0.00  0.00     0.271 S 
ATOM      6  O   UNL d   1      46.621 -17.747  41.469  0.00  0.00    -0.200 OA
ATOM      7  O   UNL d   1      45.999 -19.199  41.896  0.00  0.00    -0.200 OA
BRANCH   5   8
ATOM      8  C   UNL d   1      46.339 -18.865  42.307  0.00  0.00     0.104 A 
ATOM      9  C   UNL d   1      46.172 -19.669  42.369  0.00  0.00     0.013 A 
ATOM     10  C   UNL d   1      46.248 -20.049  43.100  0.00  0.00     0.001 A 
ATOM     11  C   UNL d   1      46.490 -19.621  43.766  0.00  0.00     0.000 A 
ATOM     12  C   UNL d   1      46.644 -18.811  43.646  0.00  0.00     0.001 A 
ATOM     13  C   UNL d   1      46.572 -19.978  44.506  0.00  0.00     0.000 C 
ATOM     14  C   UNL d   1      46.582 -18.399  42.942  0.00  0.00     0.013 A 
ENDBRANCH   5   8
ENDBRANCH   4   5
BRANCH   4  15
ATOM     15  C   UNL d   1      46.641 -18.615  40.313  0.00  0.00     0.095 C 
BRANCH  15  16
ATOM     16  C   UNL d   1      46.630 -19.415  40.103  0.00  0.00     0.065 C 
BRANCH  16  17
ATOM     17  C   UNL d   1      46.507 -19.633  39.312  0.00  0.00     0.236 C 
ATOM     18  O   UNL d   1      46.106 -20.325  39.135  0.00  0.00    -0.283 OA
ENDBRANCH  16  17
ENDBRANCH  15  16
ENDBRANCH   4  15
ENDBRANCH   3   4
ENDBRANCH   1   3
BRANCH   1  19
ATOM     19  C   UNL d   1      45.153 -17.709  39.056  0.00  0.00     0.193 C 
BRANCH  19  20
ATOM     20  O   UNL d   1      45.275 -17.053  38.571  0.00  0.00    -0.206 OA
BRANCH  20  21
ATOM     21  N   UNL d   1      44.895 -17.004  37.835  0.00  0.00    -0.126 NA
BRANCH  21  22
ATOM     22  C   UNL d   1      44.767 -16.270  37.484  0.00  0.00     0.108 A 
ATOM     23  C   UNL d   1      44.036 -15.967  37.242  0.00  0.00     0.020 A 
ATOM     24  C   UNL d   1      44.173 -15.218  36.922  0.00  0.00     0.002 A 
ATOM     25  C   UNL d   1      43.281 -16.275  37.272  0.00  0.00     0.002 A 
ATOM     26  C   UNL d   1      43.534 -14.780  36.632  0.00  0.00     0.000 A 
ATOM     27  C   UNL d   1      44.971 -15.051  36.962  0.00  0.00     0.002 A 
ATOM     28  C   UNL d   1      42.775 -15.088  36.662  0.00  0.00     0.000 A 
ATOM     29  C   UNL d   1      42.651 -15.835  36.982  0.00  0.00     0.000 A 
ATOM     30  C   UNL d   1      45.344 -15.699  37.309  0.00  0.00     0.020 A 
ATOM     31  C   UNL d   1      45.415 -14.402  36.731  0.00  0.00     0.000 A 
ATOM     32  C   UNL d   1      46.158 -15.699  37.426  0.00  0.00     0.002 A 
ATOM     33  C   UNL d   1      46.606 -15.049  37.196  0.00  0.00     0.000 A 
ATOM     34  C   UNL d   1      46.227 -14.397  36.846  0.00  0.00     0.000 A 
ENDBRANCH  21  22
ENDBRANCH  20  21
ENDBRANCH  19  20
ENDBRANCH   1  19
TORSDOF 11
ENDMDL
