MODEL 1
REMARK VINA RESULT:      33.7      0.000      0.000
REMARK  6 active torsions:
REMARK  status: ('A' for Active; 'I' for Inactive)
REMARK       I    between atoms: N_3  and  C_1 
REMARK    1  A    between atoms: O_10  and  C_1 
REMARK    2  A    between atoms: N_2  and  C_4 
REMARK    3  A    between atoms: C_9  and  N_3 
REMARK    4  A    between atoms: C_17  and  O_10 
REMARK    5  A    between atoms: C_18  and  C_17 
REMARK    6  A    between atoms: C_19  and  C_18 
ROOT
ATOM      1  C   UNL d   1     -51.364  25.268  33.576  0.00  0.00     0.064 A 
ATOM      2  C   UNL d   1     -50.561  25.232  33.369  0.00  0.00     0.020 A 
ATOM      3  C   UNL d   1     -51.684  25.970  33.869  0.00  0.00     0.020 A 
ATOM      4  C   UNL d   1     -50.397  26.599  33.748  0.00  0.00     0.137 A 
ATOM      5  C   UNL d   1     -51.204  26.634  33.956  0.00  0.00     0.034 A 
ATOM      6  C   UNL d   1     -50.080  25.896  33.455  0.00  0.00     0.034 A 
ENDROOT
BRANCH   4   7
ATOM      7  N   UNL d   1     -49.915  27.256  33.832  0.00  0.00    -0.344 NA
ATOM      8  C   UNL d   1     -49.432  27.918  33.911  0.00  0.00     0.445 C 
ATOM      9  O   UNL d   1     -49.395  28.477  33.306  0.00  0.00    -0.220 OA
BRANCH   8  10
ATOM     10  O   UNL d   1     -48.983  28.023  34.597  0.00  0.00    -0.246 OA
BRANCH  10  11
ATOM     11  C   UNL d   1     -48.429  28.632  34.638  0.00  0.00     0.129 C 
BRANCH  11  12
ATOM     12  C   UNL d   1     -48.167  28.909  35.376  0.00  0.00     0.027 C 
BRANCH  12  13
ATOM     13  C   UNL d   1     -47.455  29.315  35.435  0.00  0.00     0.002 C 
ATOM     14  C   UNL d   1     -47.438  30.069  35.766  0.00  0.00     0.000 C 
ENDBRANCH  12  13
ENDBRANCH  11  12
ENDBRANCH  10  11
ENDBRANCH   8  10
ENDBRANCH   4   7
BRANCH   1  15
ATOM     15  N   UNL d   1     -51.841  24.598  33.487  0.00  0.00    -0.300 N 
ATOM     16  C   UNL d   1     -52.662  24.675  33.474  0.00  0.00     0.107 A 
ATOM     17  C   UNL d   1     -53.131  24.009  33.385  0.00  0.00     0.142 A 
ATOM     18  O   UNL d   1     -52.783  23.265  33.310  0.00  0.00    -0.300 OA
ATOM     19  C   UNL d   1     -51.962  23.188  33.323  0.00  0.00     0.142 A 
ATOM     20  C   UNL d   1     -51.488  23.859  33.412  0.00  0.00     0.107 A 
ENDBRANCH   1  15
TORSDOF 6
ENDMDL
