MODEL 1
REMARK VINA RESULT:      78.1      0.000      0.000
REMARK  5 active torsions:
REMARK  status: ('A' for Active; 'I' for Inactive)
REMARK    1  A    between atoms: C_7  and  N_1 
REMARK    2  A    between atoms: C_10  and  C_2 
REMARK    3  A    between atoms: C_11  and  C_5 
REMARK    4  A    between atoms: C_9  and  C_7 
REMARK    5  A    between atoms: O_16  and  C_9 
ROOT
ATOM      1  N   UNL d   1      59.167  49.575  51.712  0.00  0.00    -0.286 N 
ATOM      2  C   UNL d   1      58.573  49.606  52.284  0.00  0.00     0.148 A 
ATOM      3  N   UNL d   1      57.786  49.647  52.049  0.00  0.00    -0.228 NA
ATOM      4  C   UNL d   1      58.186  49.625  50.691  0.00  0.00     0.035 A 
ATOM      5  C   UNL d   1      58.963  49.584  50.916  0.00  0.00     0.067 A 
ATOM      6  C   UNL d   1      57.592  49.657  51.263  0.00  0.00     0.084 A 
ATOM      7  C   UNL d   1      57.989  49.634  49.902  0.00  0.00     0.014 A 
ATOM      8  C   UNL d   1      56.812  49.697  51.035  0.00  0.00     0.020 A 
ATOM      9  C   UNL d   1      57.203  49.675  49.667  0.00  0.00     0.058 A 
ATOM     10  C   UNL d   1      56.609  49.707  50.239  0.00  0.00     0.013 A 
ATOM     11 CL   UNL d   1      56.999  49.685  48.857  0.00  0.00    -0.082 Cl
ENDROOT
BRANCH   2  12
ATOM     12  C   UNL d   1      58.337  49.620  53.119  0.00  0.00     0.035 A 
ATOM     13  C   UNL d   1      57.495  49.564  53.342  0.00  0.00     0.003 A 
ATOM     14  C   UNL d   1      57.266  49.577  54.180  0.00  0.00     0.000 A 
ATOM     15  C   UNL d   1      57.885  49.648  54.800  0.00  0.00     0.000 A 
ATOM     16  C   UNL d   1      58.725  49.703  54.568  0.00  0.00     0.000 A 
ATOM     17  C   UNL d   1      58.950  49.690  53.735  0.00  0.00     0.003 A 
ENDBRANCH   2  12
BRANCH   1  18
ATOM     18  C   UNL d   1      59.953  49.534  51.947  0.00  0.00     0.150 C 
BRANCH  18  19
ATOM     19  C   UNL d   1      60.297  48.816  52.136  0.00  0.00     0.314 C 
ATOM     20  O   UNL d   1      60.172  48.162  51.648  0.00  0.00    -0.257 OA
BRANCH  19  21
ATOM     21  O   UNL d   1      60.761  48.742  52.801  0.00  0.00    -0.295 OA
ATOM     22  C   UNL d   1      61.247  49.364  53.032  0.00  0.00     0.185 C 
ENDBRANCH  19  21
ENDBRANCH  18  19
ENDBRANCH   1  18
BRANCH   5  23
ATOM     23  C   UNL d   1      59.557  49.553  50.344  0.00  0.00     0.016 A 
ATOM     24  C   UNL d   1      59.381  49.702  49.568  0.00  0.00     0.001 A 
ATOM     25  C   UNL d   1      59.975  49.670  48.996  0.00  0.00     0.000 A 
ATOM     26  C   UNL d   1      60.734  49.490  49.210  0.00  0.00     0.000 A 
ATOM     27  C   UNL d   1      60.930  49.333  50.007  0.00  0.00     0.000 A 
ATOM     28  C   UNL d   1      60.327  49.368  50.568  0.00  0.00     0.001 A 
ENDBRANCH   5  23
TORSDOF 5
ENDMDL
