MODEL 1
REMARK VINA RESULT:      27.4      0.000      0.000
REMARK  4 active torsions:
REMARK  status: ('A' for Active; 'I' for Inactive)
REMARK    1  A    between atoms: C_6  and  N_3 
REMARK    2  A    between atoms: C_13  and  N_4 
REMARK    3  A    between atoms: C_5  and  C_6 
REMARK       I    between atoms: N_10  and  C_5 
REMARK    4  A    between atoms: C_14  and  N_10 
ROOT
ATOM      1  C   UNL d   1     -57.599 -98.799 -44.020  0.00  0.00     0.322 A 
ATOM      2  C   UNL d   1     -58.369 -98.795 -44.316  0.00  0.00     0.322 A 
ATOM      3  N   UNL d   1     -56.959 -98.785 -44.533  0.00  0.00    -0.262 N 
ATOM      4  N   UNL d   1     -58.500 -98.777 -45.126  0.00  0.00    -0.267 N 
ATOM      5  C   UNL d   1     -57.088 -98.767 -45.347  0.00  0.00     0.102 A 
ATOM      6  O   UNL d   1     -57.471 -98.817 -43.203  0.00  0.00    -0.261 OA
ATOM      7  O   UNL d   1     -59.012 -98.808 -43.795  0.00  0.00    -0.261 OA
ATOM      8  C   UNL d   1     -57.858 -98.763 -45.643  0.00  0.00     0.102 A 
ENDROOT
BRANCH   3   9
ATOM      9  C   UNL d   1     -56.192 -98.790 -44.239  0.00  0.00     0.146 C 
BRANCH   9  10
ATOM     10  C   UNL d   1     -55.740 -99.470 -44.301  0.00  0.00     0.297 C 
ATOM     11  N   UNL d   1     -56.082-100.192 -44.472  0.00  0.00    -0.207 NA
ATOM     12  O   UNL d   1     -54.923 -99.419 -44.187  0.00  0.00    -0.264 OA
BRANCH  11  13
ATOM     13  C   UNL d   1     -55.620-100.872 -44.533  0.00  0.00     0.085 A 
ATOM     14  C   UNL d   1     -55.019-101.002 -45.074  0.00  0.00     0.019 A 
ATOM     15  C   UNL d   1     -54.713-101.747 -44.934  0.00  0.00     0.002 A 
ATOM     16  C   UNL d   1     -55.117-102.081 -44.312  0.00  0.00     0.002 A 
ATOM     17  C   UNL d   1     -55.686-101.541 -44.055  0.00  0.00     0.019 A 
ENDBRANCH  11  13
ENDBRANCH   9  10
ENDBRANCH   3   9
BRANCH   4  18
ATOM     18  C   UNL d   1     -59.270 -98.773 -45.422  0.00  0.00     0.083 C 
ATOM     19  C   UNL d   1     -59.442 -99.163 -46.131  0.00  0.00     0.021 C 
ENDBRANCH   4  18
TORSDOF 4
ENDMDL
