MODEL 1
REMARK VINA RESULT:       8.9      0.000      0.000
REMARK  6 active torsions:
REMARK  status: ('A' for Active; 'I' for Inactive)
REMARK    1  A    between atoms: C_10  and  C_2 
REMARK    2  A    between atoms: C_11  and  C_4 
REMARK    3  A    between atoms: N_12  and  C_10 
REMARK    4  A    between atoms: O_17  and  C_11 
REMARK    5  A    between atoms: C_14  and  N_12 
REMARK    6  A    between atoms: C_23  and  O_17 
ROOT
ATOM      1  C   UNL d   1     -41.307-121.493 -51.504  0.00  0.00     0.035 A 
ATOM      2  C   UNL d   1     -41.371-122.172 -51.991  0.00  0.00     0.060 A 
ATOM      3  C   UNL d   1     -41.304-121.563 -50.682  0.00  0.00     0.100 A 
ATOM      4  C   UNL d   1     -41.239-120.677 -51.684  0.00  0.00     0.088 A 
ATOM      5  O   UNL d   1     -41.236-120.819 -50.350  0.00  0.00    -0.307 OA
ATOM      6  C   UNL d   1     -41.196-120.271 -50.964  0.00  0.00     0.105 A 
ATOM      7  C   UNL d   1     -41.431-122.906 -51.646  0.00  0.00     0.197 A 
ATOM      8  C   UNL d   1     -41.366-122.317 -50.347  0.00  0.00     0.026 A 
ATOM      9  C   UNL d   1     -41.430-122.996 -50.833  0.00  0.00     0.041 A 
ATOM     10  O   UNL d   1     -41.495-123.589 -52.135  0.00  0.00    -0.286 OA
ATOM     11  C   UNL d   1     -41.123-119.437 -50.883  0.00  0.00     0.027 C 
ATOM     12  C   UNL d   1     -41.363-122.385 -49.528  0.00  0.00     0.002 A 
ATOM     13  C   UNL d   1     -41.489-123.729 -50.491  0.00  0.00     0.003 A 
ATOM     14  C   UNL d   1     -41.424-123.138 -49.194  0.00  0.00     0.000 A 
ATOM     15  C   UNL d   1     -41.488-123.817 -49.681  0.00  0.00     0.000 A 
ENDROOT
BRANCH   2  16
ATOM     16  C   UNL d   1     -41.373-122.092 -52.828  0.00  0.00     0.104 C 
BRANCH  16  17
ATOM     17  N   UNL d   1     -41.698-122.695 -53.305  0.00  0.00    -0.225 NA
BRANCH  17  18
ATOM     18  C   UNL d   1     -41.761-122.591 -54.123  0.00  0.00     0.163 A 
ATOM     19  N   UNL d   1     -42.453-122.276 -54.436  0.00  0.00    -0.225 NA
ATOM     20  C   UNL d   1     -42.511-122.175 -55.248  0.00  0.00     0.101 A 
ATOM     21  C   UNL d   1     -41.890-122.384 -55.740  0.00  0.00     0.021 A 
ATOM     22  C   UNL d   1     -41.197-122.700 -55.432  0.00  0.00     0.005 A 
ATOM     23  C   UNL d   1     -41.139-122.801 -54.616  0.00  0.00     0.039 A 
ENDBRANCH  17  18
ENDBRANCH  16  17
ENDBRANCH   2  16
BRANCH   4  24
ATOM     24  C   UNL d   1     -41.217-120.332 -52.444  0.00  0.00     0.302 C 
ATOM     25  O   UNL d   1     -41.148-120.787 -53.121  0.00  0.00    -0.259 OA
BRANCH  24  26
ATOM     26  O   UNL d   1     -41.268-119.508 -52.505  0.00  0.00    -0.271 OA
BRANCH  26  27
ATOM     27  C   UNL d   1     -41.239-119.160 -53.245  0.00  0.00     0.126 C 
ATOM     28  C   UNL d   1     -41.553-118.387 -53.331  0.00  0.00     0.029 C 
ENDBRANCH  26  27
ENDBRANCH  24  26
ENDBRANCH   4  24
TORSDOF 6
ENDMDL
