MODEL 1
REMARK VINA RESULT:      76.0      0.000      0.000
REMARK  5 active torsions:
REMARK  status: ('A' for Active; 'I' for Inactive)
REMARK    1  A    between atoms: C_2  and  C_1 
REMARK       I    between atoms: N_3  and  C_1 
REMARK    2  A    between atoms: C_6  and  N_4 
REMARK    3  A    between atoms: O_19  and  C_5 
REMARK    4  A    between atoms: O_22  and  C_7 
REMARK    5  A    between atoms: O_23  and  C_8 
ROOT
ATOM      1  C   UNL d   1     -54.890-102.028 -41.374  0.00  0.00     0.265 C 
ATOM      2  N   UNL d   1     -54.875-101.578 -42.062  0.00  0.00    -0.269 N 
ATOM      3  N   UNL d   1     -54.845-100.672 -43.444  0.00  0.00    -0.301 N 
ATOM      4  C   UNL d   1     -54.882-101.949 -42.797  0.00  0.00     0.102 A 
ATOM      5  C   UNL d   1     -54.852-100.751 -42.021  0.00  0.00     0.102 A 
ATOM      6  C   UNL d   1     -54.837-100.302 -42.709  0.00  0.00     0.100 A 
ATOM      7  C   UNL d   1     -54.867-101.494 -43.492  0.00  0.00     0.100 A 
ATOM      8  O   UNL d   1     -54.912-102.852 -41.419  0.00  0.00    -0.267 OA
ENDROOT
BRANCH   1   9
ATOM      9  C   UNL d   1     -54.882-101.658 -40.639  0.00  0.00     0.061 A 
ATOM     10  C   UNL d   1     -54.951-100.829 -40.588  0.00  0.00     0.031 A 
ATOM     11  C   UNL d   1     -54.943-100.460 -39.848  0.00  0.00     0.118 A 
ATOM     12  C   UNL d   1     -54.868-100.911 -39.163  0.00  0.00     0.138 A 
ATOM     13  C   UNL d   1     -54.800-101.731 -39.213  0.00  0.00     0.118 A 
ATOM     14  C   UNL d   1     -54.806-102.109 -39.950  0.00  0.00     0.031 A 
BRANCH  11  15
ATOM     15  O   UNL d   1     -55.012 -99.639 -39.801  0.00  0.00    -0.326 OA
ATOM     16  C   UNL d   1     -54.801 -99.243 -39.111  0.00  0.00     0.181 C 
ENDBRANCH  11  15
BRANCH  12  17
ATOM     17  O   UNL d   1     -54.860-100.541 -38.428  0.00  0.00    -0.324 OA
ATOM     18  C   UNL d   1     -54.824-100.993 -37.738  0.00  0.00     0.182 C 
ENDBRANCH  12  17
BRANCH  13  19
ATOM     19  O   UNL d   1     -54.723-102.191 -38.522  0.00  0.00    -0.326 OA
ATOM     20  C   UNL d   1     -55.242-102.817 -38.390  0.00  0.00     0.181 C 
ENDBRANCH  13  19
ENDBRANCH   1   9
BRANCH   3  21
ATOM     21  C   UNL d   1     -54.830-100.218 -44.135  0.00  0.00     0.064 A 
ATOM     22  C   UNL d   1     -54.855 -99.400 -44.086  0.00  0.00     0.016 A 
ATOM     23  C   UNL d   1     -54.841 -98.947 -44.768  0.00  0.00     0.001 A 
ATOM     24  C   UNL d   1     -54.896 -99.037 -43.348  0.00  0.00     0.002 C 
ATOM     25  C   UNL d   1     -54.800 -99.317 -45.513  0.00  0.00     0.000 A 
ATOM     26  C   UNL d   1     -54.774-100.143 -45.558  0.00  0.00     0.002 A 
ATOM     27  C   UNL d   1     -54.785 -98.867 -46.202  0.00  0.00     0.000 C 
ATOM     28  C   UNL d   1     -54.789-100.594 -44.869  0.00  0.00     0.018 A 
ENDBRANCH   3  21
TORSDOF 5
ENDMDL
