MODEL 1
REMARK VINA RESULT:      -4.9      0.000      0.000
REMARK  3 active torsions:
REMARK  status: ('A' for Active; 'I' for Inactive)
REMARK    1  A    between atoms: C_2  and  O_3 
REMARK    2  A    between atoms: O_3  and  C_5 
REMARK    3  A    between atoms: C_5  and  C_4 
ROOT
ATOM      1  C   UNL d   1     -47.706  13.923  22.730  0.00  0.00     0.100 A 
ATOM      2  C   UNL d   1     -47.837  13.139  22.950  0.00  0.00     0.025 A 
ATOM      3  C   UNL d   1     -46.948  14.244  22.774  0.00  0.00     0.025 A 
ATOM      4  C   UNL d   1     -47.212  12.668  23.217  0.00  0.00     0.002 A 
ATOM      5  C   UNL d   1     -46.324  13.771  23.041  0.00  0.00     0.002 A 
ATOM      6  C   UNL d   1     -46.454  12.994  23.259  0.00  0.00     0.000 A 
ENDROOT
BRANCH   1   7
ATOM      7  O   UNL d   1     -48.332  14.388  22.465  0.00  0.00    -0.303 OA
BRANCH   7   8
ATOM      8  C   UNL d   1     -48.790  14.820  23.004  0.00  0.00     0.145 C 
BRANCH   8   9
ATOM      9  C   UNL d   1     -49.398  15.306  22.738  0.00  0.00     0.149 C 
ATOM     10  N   UNL d   1     -49.887  15.695  23.274  0.00  0.00    -0.144 N 
ENDBRANCH   8   9
ENDBRANCH   7   8
ENDBRANCH   1   7
TORSDOF 3
ENDMDL
MODEL 2
REMARK VINA RESULT:      -4.8      2.870      3.724
REMARK  3 active torsions:
REMARK  status: ('A' for Active; 'I' for Inactive)
REMARK    1  A    between atoms: C_2  and  O_3 
REMARK    2  A    between atoms: O_3  and  C_5 
REMARK    3  A    between atoms: C_5  and  C_4 
ROOT
ATOM      1  C   UNL d   1     -49.213  11.741  22.779  0.00  0.00     0.100 A 
ATOM      2  C   UNL d   1     -49.874  11.808  23.268  0.00  0.00     0.025 A 
ATOM      3  C   UNL d   1     -49.208  12.105  22.040  0.00  0.00     0.025 A 
ATOM      4  C   UNL d   1     -50.535  12.241  23.024  0.00  0.00     0.002 A 
ATOM      5  C   UNL d   1     -49.870  12.537  21.797  0.00  0.00     0.002 A 
ATOM      6  C   UNL d   1     -50.524  12.604  22.282  0.00  0.00     0.000 A 
ENDROOT
BRANCH   1   7
ATOM      7  O   UNL d   1     -48.557  11.309  23.027  0.00  0.00    -0.303 OA
BRANCH   7   8
ATOM      8  C   UNL d   1     -47.892  11.697  23.332  0.00  0.00     0.145 C 
BRANCH   8   9
ATOM      9  C   UNL d   1     -47.286  11.268  23.687  0.00  0.00     0.149 C 
ATOM     10  N   UNL d   1     -46.517  11.560  23.698  0.00  0.00    -0.144 N 
ENDBRANCH   8   9
ENDBRANCH   7   8
ENDBRANCH   1   7
TORSDOF 3
ENDMDL
MODEL 3
REMARK VINA RESULT:      -4.7      1.498      1.773
REMARK  3 active torsions:
REMARK  status: ('A' for Active; 'I' for Inactive)
REMARK    1  A    between atoms: C_2  and  O_3 
REMARK    2  A    between atoms: O_3  and  C_5 
REMARK    3  A    between atoms: C_5  and  C_4 
ROOT
ATOM      1  C   UNL d   1     -47.807  13.282  22.931  0.00  0.00     0.100 A 
ATOM      2  C   UNL d   1     -47.223  12.719  23.081  0.00  0.00     0.025 A 
ATOM      3  C   UNL d   1     -47.599  14.067  22.796  0.00  0.00     0.025 A 
ATOM      4  C   UNL d   1     -46.425  12.936  23.098  0.00  0.00     0.002 A 
ATOM      5  C   UNL d   1     -46.801  14.283  22.813  0.00  0.00     0.002 A 
ATOM      6  C   UNL d   1     -46.222  13.726  22.962  0.00  0.00     0.000 A 
ENDROOT
BRANCH   1   7
ATOM      7  O   UNL d   1     -48.600  13.060  22.915  0.00  0.00    -0.303 OA
BRANCH   7   8
ATOM      8  C   UNL d   1     -48.961  12.845  22.201  0.00  0.00     0.145 C 
BRANCH   8   9
ATOM      9  C   UNL d   1     -49.729  12.552  22.194  0.00  0.00     0.149 C 
ATOM     10  N   UNL d   1     -50.152  12.504  21.489  0.00  0.00    -0.144 N 
ENDBRANCH   8   9
ENDBRANCH   7   8
ENDBRANCH   1   7
TORSDOF 3
ENDMDL
