MODEL 1
REMARK VINA RESULT:      -2.6      0.000      0.000
REMARK  9 active torsions:
REMARK  status: ('A' for Active; 'I' for Inactive)
REMARK    1  A    between atoms: C_10  and  S_1 
REMARK    2  A    between atoms: N_11  and  S_1 
REMARK    3  A    between atoms: C_8  and  C_2 
REMARK    4  A    between atoms: C_3  and  N_6 
REMARK       I    between atoms: N_6  and  C_9 
REMARK    5  A    between atoms: C_9  and  C_14 
REMARK    6  A    between atoms: C_23  and  N_11 
REMARK    7  A    between atoms: C_24  and  N_11 
REMARK    8  A    between atoms: C_26  and  C_24 
REMARK    9  A    between atoms: C_27  and  C_26 
ROOT
ATOM      1  C   UNL d   1      59.514  -2.165  29.083  0.00  0.00     0.104 A 
ATOM      2  C   UNL d   1      59.689  -0.552  29.427  0.00  0.00     0.058 A 
ATOM      3  C   UNL d   1      59.892  -1.920  29.774  0.00  0.00     0.013 A 
ATOM      4  C   UNL d   1      59.227  -1.602  28.572  0.00  0.00     0.013 A 
ATOM      5  C   UNL d   1      59.977  -1.112  29.940  0.00  0.00     0.005 A 
ATOM      6  C   UNL d   1      59.311  -0.797  28.736  0.00  0.00     0.005 A 
ENDROOT
BRANCH   2   7
ATOM      7  C   UNL d   1      59.776   0.263  29.597  0.00  0.00     0.282 C 
ATOM      8  N   UNL d   1      59.159   0.682  29.956  0.00  0.00    -0.165 NA
ATOM      9  O   UNL d   1      60.467   0.643  29.409  0.00  0.00    -0.265 OA
BRANCH   8  10
ATOM     10  C   UNL d   1      58.467   0.303  30.144  0.00  0.00     0.297 A 
ATOM     11  O   UNL d   1      58.130   0.403  30.891  0.00  0.00    -0.253 OA
ATOM     12  C   UNL d   1      57.442  -0.044  30.917  0.00  0.00     0.207 A 
ATOM     13  N   UNL d   1      57.360  -0.415  30.192  0.00  0.00    -0.119 NA
ATOM     14  N   UNL d   1      57.993  -0.204  29.708  0.00  0.00    -0.101 NA
BRANCH  12  15
ATOM     15  C   UNL d   1      56.965  -0.068  31.591  0.00  0.00     0.054 A 
ATOM     16  C   UNL d   1      56.756  -0.798  31.909  0.00  0.00     0.061 A 
ATOM     17 CL   UNL d   1      57.021  -1.495  31.559  0.00  0.00    -0.082 Cl
ATOM     18  C   UNL d   1      56.281  -0.825  32.580  0.00  0.00     0.011 A 
ATOM     19  C   UNL d   1      56.006  -0.127  32.946  0.00  0.00     0.001 A 
ATOM     20  C   UNL d   1      56.211   0.597  32.632  0.00  0.00     0.000 A 
ATOM     21  C   UNL d   1      56.693   0.626  31.951  0.00  0.00     0.004 A 
ENDBRANCH  12  15
ENDBRANCH   8  10
ENDBRANCH   2   7
BRANCH   1  22
ATOM     22  S   UNL d   1      59.423  -2.976  28.906  0.00  0.00     0.271 S 
ATOM     23  O   UNL d   1      58.728  -2.818  28.483  0.00  0.00    -0.200 OA
ATOM     24  O   UNL d   1      60.116  -3.133  29.328  0.00  0.00    -0.200 OA
BRANCH  22  25
ATOM     25  N   UNL d   1      59.331  -3.800  28.727  0.00  0.00    -0.229 N 
BRANCH  25  26
ATOM     26  C   UNL d   1      59.983  -4.304  28.699  0.00  0.00     0.092 C 
ATOM     27  C   UNL d   1      60.746  -4.003  28.794  0.00  0.00     0.021 C 
ENDBRANCH  25  26
BRANCH  25  28
ATOM     28  C   UNL d   1      58.577  -4.095  28.579  0.00  0.00     0.092 C 
BRANCH  28  29
ATOM     29  C   UNL d   1      58.476  -4.905  28.465  0.00  0.00     0.020 C 
BRANCH  29  30
ATOM     30  C   UNL d   1      57.789  -5.268  28.735  0.00  0.00     0.002 C 
ATOM     31  C   UNL d   1      57.642  -6.056  28.544  0.00  0.00     0.000 C 
ENDBRANCH  29  30
ENDBRANCH  28  29
ENDBRANCH  25  28
ENDBRANCH  22  25
ENDBRANCH   1  22
TORSDOF 9
ENDMDL
MODEL 2
REMARK VINA RESULT:      -0.0      1.323      1.753
REMARK  9 active torsions:
REMARK  status: ('A' for Active; 'I' for Inactive)
REMARK    1  A    between atoms: C_10  and  S_1 
REMARK    2  A    between atoms: N_11  and  S_1 
REMARK    3  A    between atoms: C_8  and  C_2 
REMARK    4  A    between atoms: C_3  and  N_6 
REMARK       I    between atoms: N_6  and  C_9 
REMARK    5  A    between atoms: C_9  and  C_14 
REMARK    6  A    between atoms: C_23  and  N_11 
REMARK    7  A    between atoms: C_24  and  N_11 
REMARK    8  A    between atoms: C_26  and  C_24 
REMARK    9  A    between atoms: C_27  and  C_26 
ROOT
ATOM      1  C   UNL d   1      59.309  -1.695  29.051  0.00  0.00     0.104 A 
ATOM      2  C   UNL d   1      58.249  -0.420  29.105  0.00  0.00     0.058 A 
ATOM      3  C   UNL d   1      59.542  -0.966  29.362  0.00  0.00     0.013 A 
ATOM      4  C   UNL d   1      58.550  -1.778  28.771  0.00  0.00     0.013 A 
ATOM      5  C   UNL d   1      59.007  -0.333  29.385  0.00  0.00     0.005 A 
ATOM      6  C   UNL d   1      58.018  -1.148  28.795  0.00  0.00     0.005 A 
ENDROOT
BRANCH   2   7
ATOM      7  C   UNL d   1      57.712   0.222  29.130  0.00  0.00     0.282 C 
ATOM      8  N   UNL d   1      57.330   0.417  29.838  0.00  0.00    -0.165 NA
ATOM      9  O   UNL d   1      57.566   0.653  28.459  0.00  0.00    -0.265 OA
BRANCH   8  10
ATOM     10  C   UNL d   1      57.476  -0.013  30.510  0.00  0.00     0.297 A 
ATOM     11  O   UNL d   1      56.857  -0.200  31.024  0.00  0.00    -0.253 OA
ATOM     12  C   UNL d   1      57.171  -0.634  31.646  0.00  0.00     0.207 A 
ATOM     13  N   UNL d   1      57.975  -0.711  31.513  0.00  0.00    -0.119 NA
ATOM     14  N   UNL d   1      58.170  -0.328  30.810  0.00  0.00    -0.101 NA
BRANCH  12  15
ATOM     15  C   UNL d   1      56.699  -0.912  32.264  0.00  0.00     0.054 A 
ATOM     16  C   UNL d   1      56.735  -0.538  32.996  0.00  0.00     0.061 A 
ATOM     17 CL   UNL d   1      57.238   0.106  33.110  0.00  0.00    -0.082 Cl
ATOM     18  C   UNL d   1      56.266  -0.813  33.613  0.00  0.00     0.011 A 
ATOM     19  C   UNL d   1      55.752  -1.463  33.513  0.00  0.00     0.001 A 
ATOM     20  C   UNL d   1      55.715  -1.835  32.787  0.00  0.00     0.000 A 
ATOM     21  C   UNL d   1      56.191  -1.557  32.161  0.00  0.00     0.004 A 
ENDBRANCH  12  15
ENDBRANCH   8  10
ENDBRANCH   2   7
BRANCH   1  22
ATOM     22  S   UNL d   1      59.839  -2.339  29.022  0.00  0.00     0.271 S 
ATOM     23  O   UNL d   1      60.421  -1.891  29.409  0.00  0.00    -0.200 OA
ATOM     24  O   UNL d   1      59.260  -2.784  28.638  0.00  0.00    -0.200 OA
BRANCH  22  25
ATOM     25  N   UNL d   1      60.378  -2.993  28.993  0.00  0.00    -0.229 N 
BRANCH  25  26
ATOM     26  C   UNL d   1      61.035  -3.026  29.491  0.00  0.00     0.092 C 
ATOM     27  C   UNL d   1      60.973  -2.782  30.277  0.00  0.00     0.021 C 
ENDBRANCH  25  26
BRANCH  25  28
ATOM     28  C   UNL d   1      60.238  -3.603  28.458  0.00  0.00     0.092 C 
BRANCH  28  29
ATOM     29  C   UNL d   1      60.706  -4.281  28.487  0.00  0.00     0.020 C 
BRANCH  29  30
ATOM     30  C   UNL d   1      60.344  -5.018  28.539  0.00  0.00     0.002 C 
ATOM     31  C   UNL d   1      60.809  -5.697  28.587  0.00  0.00     0.000 C 
ENDBRANCH  29  30
ENDBRANCH  28  29
ENDBRANCH  25  28
ENDBRANCH  22  25
ENDBRANCH   1  22
TORSDOF 9
ENDMDL
