MODEL 1
REMARK VINA RESULT:      22.1      0.000      0.000
REMARK  3 active torsions:
REMARK  status: ('A' for Active; 'I' for Inactive)
REMARK    1  A    between atoms: S_8  and  C_2 
REMARK    2  A    between atoms: C_13  and  S_8 
REMARK    3  A    between atoms: C_15  and  C_13 
ROOT
ATOM      1  C   UNL d   1      43.394 -16.051  36.338  0.00  0.00     0.104 A 
ATOM      2  C   UNL d   1      44.916 -15.422  36.338  0.00  0.00     0.182 A 
ATOM      3  N   UNL d   1      44.807 -16.239  36.334  0.00  0.00    -0.251 N 
ATOM      4  C   UNL d   1      44.035 -16.552  36.334  0.00  0.00     0.274 A 
ATOM      5  C   UNL d   1      43.502 -15.233  36.342  0.00  0.00     0.095 A 
ATOM      6  N   UNL d   1      44.253 -14.917  36.342  0.00  0.00    -0.222 NA
ATOM      7  S   UNL d   1      42.584 -16.197  36.339  0.00  0.00    -0.081 SA
ATOM      8  C   UNL d   1      42.760 -14.875  36.345  0.00  0.00     0.026 A 
ATOM      9  O   UNL d   1      43.926 -17.370  36.330  0.00  0.00    -0.266 OA
ATOM     10  C   UNL d   1      42.195 -15.466  36.344  0.00  0.00     0.031 A 
ATOM     11  C   UNL d   1      45.465 -16.748  36.330  0.00  0.00     0.104 C 
ATOM     12  C   UNL d   1      41.379 -15.343  36.346  0.00  0.00     0.007 C 
ENDROOT
BRANCH   2  13
ATOM     13  S   UNL d   1      45.684 -15.098  36.338  0.00  0.00    -0.050 SA
BRANCH  13  14
ATOM     14  C   UNL d   1      45.977 -14.743  37.024  0.00  0.00     0.032 C 
ATOM     15  C   UNL d   1      46.076 -15.191  37.710  0.00  0.00     0.007 C 
BRANCH  14  16
ATOM     16  C   UNL d   1      46.170 -13.944  37.020  0.00  0.00     0.007 C 
ATOM     17  C   UNL d   1      46.610 -13.625  37.642  0.00  0.00     0.001 C 
ENDBRANCH  14  16
ENDBRANCH  13  14
ENDBRANCH   2  13
TORSDOF 3
ENDMDL
MODEL 2
REMARK VINA RESULT:      23.8      6.594      7.715
REMARK  3 active torsions:
REMARK  status: ('A' for Active; 'I' for Inactive)
REMARK    1  A    between atoms: S_8  and  C_2 
REMARK    2  A    between atoms: C_13  and  S_8 
REMARK    3  A    between atoms: C_15  and  C_13 
ROOT
ATOM      1  C   UNL d   1      46.440 -18.758  43.508  0.00  0.00     0.104 A 
ATOM      2  C   UNL d   1      46.577 -18.595  41.874  0.00  0.00     0.182 A 
ATOM      3  N   UNL d   1      46.486 -17.927  42.350  0.00  0.00    -0.251 N 
ATOM      4  C   UNL d   1      46.417 -18.015  43.175  0.00  0.00     0.274 A 
ATOM      5  C   UNL d   1      46.531 -19.426  43.032  0.00  0.00     0.095 A 
ATOM      6  N   UNL d   1      46.599 -19.351  42.224  0.00  0.00    -0.222 NA
ATOM      7  S   UNL d   1      46.387 -19.010  44.289  0.00  0.00    -0.081 SA
ATOM      8  C   UNL d   1      46.535 -20.090  43.520  0.00  0.00     0.026 A 
ATOM      9  O   UNL d   1      46.326 -17.348  43.651  0.00  0.00    -0.266 OA
ATOM     10  C   UNL d   1      46.446 -19.837  44.292  0.00  0.00     0.031 A 
ATOM     11  C   UNL d   1      46.463 -17.170  42.006  0.00  0.00     0.104 C 
ATOM     12  C   UNL d   1      46.422 -20.329  44.953  0.00  0.00     0.007 C 
ENDROOT
BRANCH   2  13
ATOM     13  S   UNL d   1      46.646 -18.517  41.047  0.00  0.00    -0.050 SA
BRANCH  13  14
ATOM     14  C   UNL d   1      46.170 -18.977  40.553  0.00  0.00     0.032 C 
ATOM     15  C   UNL d   1      45.579 -18.620  40.101  0.00  0.00     0.007 C 
BRANCH  14  16
ATOM     16  C   UNL d   1      46.286 -19.790  40.513  0.00  0.00     0.007 C 
ATOM     17  C   UNL d   1      46.379 -20.156  39.779  0.00  0.00     0.001 C 
ENDBRANCH  14  16
ENDBRANCH  13  14
ENDBRANCH   2  13
TORSDOF 3
ENDMDL
MODEL 3
REMARK VINA RESULT:      24.5      7.122      8.054
REMARK  3 active torsions:
REMARK  status: ('A' for Active; 'I' for Inactive)
REMARK    1  A    between atoms: S_8  and  C_2 
REMARK    2  A    between atoms: C_13  and  S_8 
REMARK    3  A    between atoms: C_15  and  C_13 
ROOT
ATOM      1  C   UNL d   1      46.113 -18.666  43.531  0.00  0.00     0.104 A 
ATOM      2  C   UNL d   1      46.153 -17.020  43.598  0.00  0.00     0.182 A 
ATOM      3  N   UNL d   1      45.987 -17.401  42.885  0.00  0.00    -0.251 N 
ATOM      4  C   UNL d   1      45.968 -18.233  42.857  0.00  0.00     0.274 A 
ATOM      5  C   UNL d   1      46.278 -18.285  44.244  0.00  0.00     0.095 A 
ATOM      6  N   UNL d   1      46.300 -17.472  44.283  0.00  0.00    -0.222 NA
ATOM      7  S   UNL d   1      46.131 -19.477  43.667  0.00  0.00    -0.081 SA
ATOM      8  C   UNL d   1      46.399 -18.862  44.820  0.00  0.00     0.026 A 
ATOM      9  O   UNL d   1      45.802 -18.613  42.144  0.00  0.00    -0.266 OA
ATOM     10  C   UNL d   1      46.309 -19.594  44.468  0.00  0.00     0.031 A 
ATOM     11  C   UNL d   1      45.840 -16.955  42.199  0.00  0.00     0.104 C 
ATOM     12  C   UNL d   1      46.384 -20.319  44.854  0.00  0.00     0.007 C 
ENDROOT
BRANCH   2  13
ATOM     13  S   UNL d   1      46.174 -16.188  43.637  0.00  0.00    -0.050 SA
BRANCH  13  14
ATOM     14  C   UNL d   1      45.695 -15.793  44.182  0.00  0.00     0.032 C 
ATOM     15  C   UNL d   1      45.629 -16.075  44.954  0.00  0.00     0.007 C 
BRANCH  14  16
ATOM     16  C   UNL d   1      45.285 -15.118  43.952  0.00  0.00     0.007 C 
ATOM     17  C   UNL d   1      45.384 -14.414  44.372  0.00  0.00     0.001 C 
ENDBRANCH  14  16
ENDBRANCH  13  14
ENDBRANCH   2  13
TORSDOF 3
ENDMDL
