MODEL 1
REMARK VINA RESULT:      34.8      0.000      0.000
REMARK  3 active torsions:
REMARK  status: ('A' for Active; 'I' for Inactive)
REMARK    1  A    between atoms: C_6  and  C_3 
REMARK    2  A    between atoms: C_9  and  C_6 
REMARK    3  A    between atoms: C_10  and  C_9 
ROOT
ATOM      1  N   UNL d   1      58.051  40.105  54.637  0.00  0.00    -0.225 NA
ATOM      2  N   UNL d   1      57.696  38.918  55.167  0.00  0.00    -0.225 NA
ATOM      3  C   UNL d   1      57.464  39.494  54.616  0.00  0.00     0.163 A 
ATOM      4  C   UNL d   1      58.609  39.898  55.179  0.00  0.00     0.101 A 
ATOM      5  C   UNL d   1      58.385  39.150  55.514  0.00  0.00     0.101 A 
ATOM      6  C   UNL d   1      59.310  40.225  55.470  0.00  0.00     0.021 A 
ATOM      7  C   UNL d   1      58.857  38.798  56.090  0.00  0.00     0.021 A 
ATOM      8  C   UNL d   1      59.744  39.898  56.003  0.00  0.00     0.002 A 
ATOM      9  C   UNL d   1      59.526  39.171  56.328  0.00  0.00     0.002 A 
ENDROOT
BRANCH   3  10
ATOM     10  C   UNL d   1      56.794  39.481  54.138  0.00  0.00     0.039 C 
BRANCH  10  11
ATOM     11  C   UNL d   1      56.523  40.178  53.788  0.00  0.00     0.003 C 
BRANCH  11  12
ATOM     12  C   UNL d   1      56.035  40.143  53.123  0.00  0.00     0.000 C 
ATOM     13  C   UNL d   1      56.067  40.747  52.557  0.00  0.00     0.000 C 
ENDBRANCH  11  12
ENDBRANCH  10  11
ENDBRANCH   3  10
TORSDOF 3
ENDMDL
MODEL 2
REMARK VINA RESULT:      36.5      9.331     10.283
REMARK  3 active torsions:
REMARK  status: ('A' for Active; 'I' for Inactive)
REMARK    1  A    between atoms: C_6  and  C_3 
REMARK    2  A    between atoms: C_9  and  C_6 
REMARK    3  A    between atoms: C_10  and  C_9 
ROOT
ATOM      1  N   UNL d   1      61.634  48.223  51.094  0.00  0.00    -0.225 NA
ATOM      2  N   UNL d   1      60.853  48.263  49.997  0.00  0.00    -0.225 NA
ATOM      3  C   UNL d   1      61.533  47.909  50.314  0.00  0.00     0.163 A 
ATOM      4  C   UNL d   1      61.036  48.744  51.234  0.00  0.00     0.101 A 
ATOM      5  C   UNL d   1      60.543  48.768  50.542  0.00  0.00     0.101 A 
ATOM      6  C   UNL d   1      60.802  49.232  51.858  0.00  0.00     0.021 A 
ATOM      7  C   UNL d   1      59.881  49.259  50.526  0.00  0.00     0.021 A 
ATOM      8  C   UNL d   1      60.190  49.684  51.840  0.00  0.00     0.002 A 
ATOM      9  C   UNL d   1      59.711  49.708  51.168  0.00  0.00     0.002 A 
ENDROOT
BRANCH   3  10
ATOM     10  C   UNL d   1      62.022  47.357  49.946  0.00  0.00     0.039 C 
BRANCH  10  11
ATOM     11  C   UNL d   1      61.781  46.570  49.882  0.00  0.00     0.003 C 
BRANCH  11  12
ATOM     12  C   UNL d   1      62.160  46.064  49.351  0.00  0.00     0.000 C 
ATOM     13  C   UNL d   1      61.840  45.316  49.195  0.00  0.00     0.000 C 
ENDBRANCH  11  12
ENDBRANCH  10  11
ENDBRANCH   3  10
TORSDOF 3
ENDMDL
