MODEL 1
REMARK VINA RESULT:      86.1      0.000      0.000
REMARK  9 active torsions:
REMARK  status: ('A' for Active; 'I' for Inactive)
REMARK    1  A    between atoms: N_7  and  N_1 
REMARK    2  A    between atoms: S_9  and  C_2 
REMARK       I    between atoms: C_8  and  N_7 
REMARK    3  A    between atoms: C_15  and  C_8 
REMARK    4  A    between atoms: C_14  and  S_9 
REMARK    5  A    between atoms: C_11  and  C_14 
REMARK       I    between atoms: N_16  and  C_11 
REMARK    6  A    between atoms: C_18  and  C_15 
REMARK    7  A    between atoms: C_19  and  N_16 
REMARK    8  A    between atoms: C_22  and  C_19 
REMARK    9  A    between atoms: C_21  and  C_22 
ROOT
ATOM      1  N   UNL d   1     -50.108  26.982  35.927  0.00  0.00    -0.168 N 
ATOM      2  C   UNL d   1     -49.668  27.622  36.179  0.00  0.00     0.199 A 
ATOM      3  C   UNL d   1     -50.647  26.624  36.442  0.00  0.00     0.283 A 
ATOM      4  N   UNL d   1     -49.753  27.928  36.961  0.00  0.00    -0.221 NA
ATOM      5  C   UNL d   1     -50.737  26.925  37.228  0.00  0.00     0.076 A 
ATOM      6  C   UNL d   1     -50.293  27.572  37.482  0.00  0.00     0.088 A 
ATOM      7  O   UNL d   1     -51.097  25.975  36.192  0.00  0.00    -0.265 OA
ATOM      8  C   UNL d   1     -51.284  26.556  37.737  0.00  0.00     0.006 A 
ATOM      9  C   UNL d   1     -50.388  27.857  38.249  0.00  0.00     0.019 A 
ATOM     10  C   UNL d   1     -51.369  26.856  38.508  0.00  0.00     0.000 A 
ATOM     11  C   UNL d   1     -50.924  27.502  38.763  0.00  0.00     0.002 A 
ENDROOT
BRANCH   2  12
ATOM     12  S   UNL d   1     -49.134  27.979  35.674  0.00  0.00    -0.043 SA
BRANCH  12  13
ATOM     13  C   UNL d   1     -48.548  28.482  35.973  0.00  0.00     0.101 C 
BRANCH  13  14
ATOM     14  C   UNL d   1     -48.138  28.981  35.463  0.00  0.00     0.286 C 
ATOM     15  O   UNL d   1     -47.825  28.682  34.757  0.00  0.00    -0.265 OA
ATOM     16  N   UNL d   1     -48.036  29.776  35.650  0.00  0.00    -0.206 NA
BRANCH  16  17
ATOM     17  C   UNL d   1     -47.626  30.276  35.140  0.00  0.00     0.102 C 
BRANCH  17  18
ATOM     18  C   UNL d   1     -47.465  31.053  35.358  0.00  0.00     0.021 C 
BRANCH  18  19
ATOM     19  C   UNL d   1     -47.585  31.666  34.825  0.00  0.00     0.002 A 
ATOM     20  C   UNL d   1     -48.288  31.703  34.390  0.00  0.00     0.000 A 
ATOM     21  C   UNL d   1     -48.406  32.325  33.852  0.00  0.00     0.000 A 
ATOM     22  C   UNL d   1     -47.827  32.904  33.751  0.00  0.00     0.000 A 
ATOM     23  C   UNL d   1     -47.122  32.861  34.193  0.00  0.00     0.000 A 
ATOM     24  C   UNL d   1     -47.007  32.246  34.724  0.00  0.00     0.000 A 
ENDBRANCH  18  19
ENDBRANCH  17  18
ENDBRANCH  16  17
ENDBRANCH  13  14
ENDBRANCH  12  13
ENDBRANCH   2  12
BRANCH   1  25
ATOM     25  N   UNL d   1     -50.017  26.696  35.168  0.00  0.00    -0.119 NA
ATOM     26  C   UNL d   1     -50.606  26.819  34.606  0.00  0.00     0.296 C 
ATOM     27  O   UNL d   1     -51.294  27.231  34.799  0.00  0.00    -0.264 OA
BRANCH  26  28
ATOM     28  C   UNL d   1     -50.508  26.526  33.837  0.00  0.00     0.064 C 
BRANCH  28  29
ATOM     29  C   UNL d   1     -50.739  25.760  33.661  0.00  0.00     0.005 A 
ATOM     30  C   UNL d   1     -51.535  25.564  33.653  0.00  0.00     0.000 A 
ATOM     31  C   UNL d   1     -51.771  24.793  33.476  0.00  0.00     0.000 A 
ATOM     32  C   UNL d   1     -51.198  24.219  33.306  0.00  0.00     0.000 A 
ATOM     33  C   UNL d   1     -50.403  24.415  33.314  0.00  0.00     0.000 A 
ATOM     34  C   UNL d   1     -50.167  25.183  33.490  0.00  0.00     0.000 A 
ENDBRANCH  28  29
ENDBRANCH  26  28
ENDBRANCH   1  25
TORSDOF 9
ENDMDL
