MODEL 1
REMARK VINA RESULT:      36.3      0.000      0.000
REMARK  1 active torsions:
REMARK  status: ('A' for Active; 'I' for Inactive)
REMARK    1  A    between atoms: N_9  and  C_4 
ROOT
ATOM      1  N   UNL d   1      14.254  13.494  -2.101  0.00  0.00    -0.195 N 
ATOM      2  C   UNL d   1      14.640  13.724  -1.403  0.00  0.00     0.168 A 
ATOM      3  C   UNL d   1      14.831  14.509  -1.272  0.00  0.00     0.073 A 
ATOM      4  C   UNL d   1      14.071  12.706  -2.214  0.00  0.00     0.154 A 
ATOM      5  N   UNL d   1      14.249  14.831  -2.539  0.00  0.00    -0.143 NA
ATOM      6  C   UNL d   1      14.635  15.061  -1.841  0.00  0.00     0.185 A 
ATOM      7  N   UNL d   1      14.832  13.160  -0.838  0.00  0.00    -0.227 NA
ATOM      8  C   UNL d   1      15.213  14.737  -0.581  0.00  0.00     0.007 A 
ATOM      9  N   UNL d   1      14.822  15.860  -1.723  0.00  0.00    -0.225 NA
ATOM     10  C   UNL d   1      14.259  12.144  -1.658  0.00  0.00     0.057 A 
ATOM     11  C   UNL d   1      15.404  15.520  -0.450  0.00  0.00     0.019 A 
ATOM     12  C   UNL d   1      14.645  12.374  -0.960  0.00  0.00     0.086 A 
ATOM     13  C   UNL d   1      15.208  16.090  -1.025  0.00  0.00     0.083 A 
ATOM     14  C   UNL d   1      15.406  14.169  -0.014  0.00  0.00     0.000 C 
ATOM     15  C   UNL d   1      14.843  11.785  -0.375  0.00  0.00     0.021 C 
ATOM     16  C   UNL d   1      15.395  16.872  -0.900  0.00  0.00     0.021 C 
ENDROOT
BRANCH   4  17
ATOM     17  N   UNL d   1      13.673  12.477  -2.937  0.00  0.00    -0.271 N 
ATOM     18  C   UNL d   1      13.711  12.882  -3.687  0.00  0.00     0.184 A 
ATOM     19  N   UNL d   1      13.231  12.455  -4.235  0.00  0.00    -0.222 NA
ATOM     20  C   UNL d   1      12.890  11.779  -3.828  0.00  0.00     0.120 A 
ATOM     21  C   UNL d   1      13.166  11.797  -3.025  0.00  0.00     0.104 A 
ENDBRANCH   4  17
TORSDOF 1
ENDMDL
MODEL 2
REMARK VINA RESULT:      38.4      0.772      3.635
REMARK  1 active torsions:
REMARK  status: ('A' for Active; 'I' for Inactive)
REMARK    1  A    between atoms: N_9  and  C_4 
ROOT
ATOM      1  N   UNL d   1      14.463  14.202  -1.929  0.00  0.00    -0.195 N 
ATOM      2  C   UNL d   1      14.292  13.390  -1.971  0.00  0.00     0.168 A 
ATOM      3  C   UNL d   1      13.926  13.074  -2.631  0.00  0.00     0.073 A 
ATOM      4  C   UNL d   1      14.829  14.499  -1.262  0.00  0.00     0.154 A 
ATOM      5  N   UNL d   1      13.903  14.385  -3.207  0.00  0.00    -0.143 NA
ATOM      6  C   UNL d   1      13.732  13.573  -3.248  0.00  0.00     0.185 A 
ATOM      7  N   UNL d   1      14.492  12.899  -1.344  0.00  0.00    -0.227 NA
ATOM      8  C   UNL d   1      13.757  12.272  -2.672  0.00  0.00     0.007 A 
ATOM      9  N   UNL d   1      13.361  13.269  -3.923  0.00  0.00    -0.225 NA
ATOM     10  C   UNL d   1      15.028  14.017  -0.639  0.00  0.00     0.057 A 
ATOM     11  C   UNL d   1      13.391  11.956  -3.331  0.00  0.00     0.019 A 
ATOM     12  C   UNL d   1      14.858  13.205  -0.680  0.00  0.00     0.086 A 
ATOM     13  C   UNL d   1      13.190  12.457  -3.965  0.00  0.00     0.083 A 
ATOM     14  C   UNL d   1      13.958  11.779  -2.041  0.00  0.00     0.000 C 
ATOM     15  C   UNL d   1      15.067  12.697  -0.027  0.00  0.00     0.021 C 
ATOM     16  C   UNL d   1      12.826  12.149  -4.625  0.00  0.00     0.021 C 
ENDROOT
BRANCH   4  17
ATOM     17  N   UNL d   1      15.001  15.337  -1.227  0.00  0.00    -0.271 N 
ATOM     18  C   UNL d   1      15.337  15.758  -0.567  0.00  0.00     0.184 A 
ATOM     19  N   UNL d   1      15.407  16.571  -0.786  0.00  0.00    -0.222 NA
ATOM     20  C   UNL d   1      15.113  16.660  -1.589  0.00  0.00     0.120 A 
ATOM     21  C   UNL d   1      14.863  15.894  -1.858  0.00  0.00     0.104 A 
ENDBRANCH   4  17
TORSDOF 1
ENDMDL
