MODEL 1
REMARK VINA RESULT:      18.0      0.000      0.000
REMARK  4 active torsions:
REMARK  status: ('A' for Active; 'I' for Inactive)
REMARK    1  A    between atoms: C_3  and  N_1 
REMARK    2  A    between atoms: C_2  and  C_7 
REMARK       I    between atoms: N_4  and  C_2 
REMARK    3  A    between atoms: C_15  and  N_4 
REMARK    4  A    between atoms: C_8  and  C_15 
ROOT
ATOM      1  C   UNL d   1      60.679  49.664  51.747  0.00  0.00     0.127 A 
ATOM      2  C   UNL d   1      59.688  49.677  50.433  0.00  0.00     0.058 A 
ATOM      3  C   UNL d   1      59.856  49.702  51.834  0.00  0.00     0.024 A 
ATOM      4  C   UNL d   1      61.006  49.632  50.958  0.00  0.00     0.024 A 
ATOM      5  C   UNL d   1      60.504  49.639  50.321  0.00  0.00     0.006 A 
ATOM      6  C   UNL d   1      59.379  49.708  51.179  0.00  0.00     0.006 A 
ENDROOT
BRANCH   2   7
ATOM      7  C   UNL d   1      59.204  49.683  49.753  0.00  0.00     0.279 C 
ATOM      8  N   UNL d   1      58.376  49.696  49.814  0.00  0.00    -0.200 NA
ATOM      9  O   UNL d   1      59.540  49.676  49.013  0.00  0.00    -0.265 OA
BRANCH   8  10
ATOM     10  C   UNL d   1      58.023  49.704  50.580  0.00  0.00     0.172 C 
BRANCH  10  11
ATOM     11  C   UNL d   1      57.224  49.567  50.666  0.00  0.00     0.231 C 
ATOM     12  O   UNL d   1      56.773  49.332  50.003  0.00  0.00    -0.643 OA
ATOM     13  O   UNL d   1      56.876  49.659  51.390  0.00  0.00    -0.643 OA
ENDBRANCH  10  11
ENDBRANCH   8  10
ENDBRANCH   2   7
BRANCH   1  14
ATOM     14  N   UNL d   1      61.197  49.657  52.414  0.00  0.00    -0.114 N 
ATOM     15  O   UNL d   1      60.900  49.615  53.198  0.00  0.00    -0.532 OA
ATOM     16  O   UNL d   1      62.017  49.692  52.286  0.00  0.00    -0.532 OA
ENDBRANCH   1  14
TORSDOF 4
ENDMDL
MODEL 2
REMARK VINA RESULT:      18.5      0.869      3.456
REMARK  4 active torsions:
REMARK  status: ('A' for Active; 'I' for Inactive)
REMARK    1  A    between atoms: C_3  and  N_1 
REMARK    2  A    between atoms: C_2  and  C_7 
REMARK       I    between atoms: N_4  and  C_2 
REMARK    3  A    between atoms: C_15  and  N_4 
REMARK    4  A    between atoms: C_8  and  C_15 
ROOT
ATOM      1  C   UNL d   1      57.779  49.568  50.035  0.00  0.00     0.127 A 
ATOM      2  C   UNL d   1      59.420  49.636  49.942  0.00  0.00     0.058 A 
ATOM      3  C   UNL d   1      58.243  49.613  50.720  0.00  0.00     0.024 A 
ATOM      4  C   UNL d   1      58.169  49.557  49.275  0.00  0.00     0.024 A 
ATOM      5  C   UNL d   1      58.979  49.591  49.246  0.00  0.00     0.006 A 
ATOM      6  C   UNL d   1      59.051  49.646  50.660  0.00  0.00     0.006 A 
ENDROOT
BRANCH   2   7
ATOM      7  C   UNL d   1      60.251  49.669  49.871  0.00  0.00     0.279 C 
ATOM      8  N   UNL d   1      60.739  49.706  50.542  0.00  0.00    -0.200 NA
ATOM      9  O   UNL d   1      60.599  49.667  49.136  0.00  0.00    -0.265 OA
BRANCH   8  10
ATOM     10  C   UNL d   1      60.382  49.708  51.306  0.00  0.00     0.172 C 
BRANCH  10  11
ATOM     11  C   UNL d   1      60.838  49.591  51.972  0.00  0.00     0.231 C 
ATOM     12  O   UNL d   1      60.468  49.542  52.720  0.00  0.00    -0.643 OA
ATOM     13  O   UNL d   1      61.641  49.525  51.904  0.00  0.00    -0.643 OA
ENDBRANCH  10  11
ENDBRANCH   8  10
ENDBRANCH   2   7
BRANCH   1  14
ATOM     14  N   UNL d   1      56.935  49.532  50.072  0.00  0.00    -0.114 N 
ATOM     15  O   UNL d   1      56.535  49.367  50.791  0.00  0.00    -0.532 OA
ATOM     16  O   UNL d   1      56.498  49.665  49.378  0.00  0.00    -0.532 OA
ENDBRANCH   1  14
TORSDOF 4
ENDMDL
