MODEL 1
REMARK VINA RESULT:      -8.3      0.000      0.000
REMARK  3 active torsions:
REMARK  status: ('A' for Active; 'I' for Inactive)
REMARK    1  A    between atoms: C_2  and  C_1 
REMARK       I    between atoms: N_7  and  C_2 
REMARK    2  A    between atoms: C_9  and  N_7 
REMARK    3  A    between atoms: O_16  and  C_10 
ROOT
ATOM      1  C   UNL d   1     -48.761  11.587  22.637  0.00  0.00     0.280 C 
ATOM      2  N   UNL d   1     -49.553  11.652  22.855  0.00  0.00    -0.208 NA
ATOM      3  O   UNL d   1     -48.384  10.849  22.683  0.00  0.00    -0.265 OA
ENDROOT
BRANCH   1   4
ATOM      4  C   UNL d   1     -48.344  12.249  22.376  0.00  0.00     0.065 A 
ATOM      5  C   UNL d   1     -47.675  12.572  22.730  0.00  0.00     0.011 A 
ATOM      6  C   UNL d   1     -47.449  13.222  22.282  0.00  0.00     0.030 A 
ATOM      7  C   UNL d   1     -47.241  12.359  23.401  0.00  0.00     0.001 A 
ATOM      8  C   UNL d   1     -46.784  13.668  22.502  0.00  0.00     0.006 A 
ATOM      9  S   UNL d   1     -47.974  13.302  21.656  0.00  0.00    -0.086 SA
ATOM     10  C   UNL d   1     -46.357  13.460  23.163  0.00  0.00     0.001 A 
ATOM     11  C   UNL d   1     -46.583  12.805  23.616  0.00  0.00     0.000 A 
ATOM     12  C   UNL d   1     -48.527  12.692  21.723  0.00  0.00     0.040 A 
ENDBRANCH   1   4
BRANCH   2  13
ATOM     13  C   UNL d   1     -49.928  12.388  22.809  0.00  0.00     0.085 A 
ATOM     14  C   UNL d   1     -50.261  12.633  22.098  0.00  0.00     0.021 A 
ATOM     15  C   UNL d   1     -50.639  13.374  22.049  0.00  0.00     0.026 A 
ATOM     16  C   UNL d   1     -50.681  13.863  22.712  0.00  0.00     0.094 A 
ATOM     17  C   UNL d   1     -50.344  13.611  23.424  0.00  0.00     0.026 A 
ATOM     18  C   UNL d   1     -49.970  12.878  23.472  0.00  0.00     0.021 A 
BRANCH  16  19
ATOM     19  O   UNL d   1     -51.063  14.601  22.648  0.00  0.00    -0.328 OA
ATOM     20  C   UNL d   1     -50.965  15.176  23.232  0.00  0.00     0.181 C 
ENDBRANCH  16  19
ENDBRANCH   2  13
TORSDOF 3
ENDMDL
MODEL 2
REMARK VINA RESULT:      -8.1      1.473      3.716
REMARK  3 active torsions:
REMARK  status: ('A' for Active; 'I' for Inactive)
REMARK    1  A    between atoms: C_2  and  C_1 
REMARK       I    between atoms: N_7  and  C_2 
REMARK    2  A    between atoms: C_9  and  N_7 
REMARK    3  A    between atoms: O_16  and  C_10 
ROOT
ATOM      1  C   UNL d   1     -48.228  14.474  22.493  0.00  0.00     0.280 C 
ATOM      2  N   UNL d   1     -47.498  14.522  22.872  0.00  0.00    -0.208 NA
ATOM      3  O   UNL d   1     -48.692  15.158  22.413  0.00  0.00    -0.265 OA
ENDROOT
BRANCH   1   4
ATOM      4  C   UNL d   1     -48.498  13.754  22.196  0.00  0.00     0.065 A 
ATOM      5  C   UNL d   1     -49.178  13.356  22.432  0.00  0.00     0.011 A 
ATOM      6  C   UNL d   1     -49.227  12.666  21.988  0.00  0.00     0.030 A 
ATOM      7  C   UNL d   1     -49.761  13.530  22.993  0.00  0.00     0.001 A 
ATOM      8  C   UNL d   1     -49.860  12.143  22.101  0.00  0.00     0.006 A 
ATOM      9  S   UNL d   1     -48.582  12.638  21.481  0.00  0.00    -0.086 SA
ATOM     10  C   UNL d   1     -50.434  12.313  22.653  0.00  0.00     0.001 A 
ATOM     11  C   UNL d   1     -50.387  13.007  23.101  0.00  0.00     0.000 A 
ATOM     12  C   UNL d   1     -48.134  13.318  21.618  0.00  0.00     0.040 A 
ENDBRANCH   1   4
BRANCH   2  13
ATOM     13  C   UNL d   1     -47.036  13.840  22.952  0.00  0.00     0.085 A 
ATOM     14  C   UNL d   1     -46.498  13.641  22.363  0.00  0.00     0.021 A 
ATOM     15  C   UNL d   1     -46.031  12.955  22.441  0.00  0.00     0.026 A 
ATOM     16  C   UNL d   1     -46.108  12.475  23.107  0.00  0.00     0.094 A 
ATOM     17  C   UNL d   1     -46.651  12.681  23.696  0.00  0.00     0.026 A 
ATOM     18  C   UNL d   1     -47.112  13.360  23.619  0.00  0.00     0.021 A 
BRANCH  16  19
ATOM     19  O   UNL d   1     -45.634  11.791  23.171  0.00  0.00    -0.328 OA
ATOM     20  C   UNL d   1     -45.858  11.171  23.668  0.00  0.00     0.181 C 
ENDBRANCH  16  19
ENDBRANCH   2  13
TORSDOF 3
ENDMDL
MODEL 3
REMARK VINA RESULT:      -8.0      1.186      3.092
REMARK  3 active torsions:
REMARK  status: ('A' for Active; 'I' for Inactive)
REMARK    1  A    between atoms: C_2  and  C_1 
REMARK       I    between atoms: N_7  and  C_2 
REMARK    2  A    between atoms: C_9  and  N_7 
REMARK    3  A    between atoms: O_16  and  C_10 
ROOT
ATOM      1  C   UNL d   1     -50.417  13.359  21.699  0.00  0.00     0.280 C 
ATOM      2  N   UNL d   1     -50.353  12.547  21.822  0.00  0.00    -0.208 NA
ATOM      3  O   UNL d   1     -51.064  13.659  21.274  0.00  0.00    -0.265 OA
ENDROOT
BRANCH   1   4
ATOM      4  C   UNL d   1     -49.845  13.874  21.997  0.00  0.00     0.065 A 
ATOM      5  C   UNL d   1     -49.968  14.468  22.551  0.00  0.00     0.011 A 
ATOM      6  C   UNL d   1     -49.245  14.838  22.681  0.00  0.00     0.030 A 
ATOM      7  C   UNL d   1     -50.643  14.723  22.957  0.00  0.00     0.001 A 
ATOM      8  C   UNL d   1     -49.191  15.468  23.219  0.00  0.00     0.006 A 
ATOM      9  S   UNL d   1     -48.680  14.475  22.210  0.00  0.00    -0.086 SA
ATOM     10  C   UNL d   1     -49.855  15.719  23.618  0.00  0.00     0.001 A 
ATOM     11  C   UNL d   1     -50.584  15.348  23.489  0.00  0.00     0.000 A 
ATOM     12  C   UNL d   1     -49.062  13.876  21.788  0.00  0.00     0.040 A 
ENDBRANCH   1   4
BRANCH   2  13
ATOM     13  C   UNL d   1     -49.708  12.250  22.246  0.00  0.00     0.085 A 
ATOM     14  C   UNL d   1     -49.000  12.096  21.857  0.00  0.00     0.021 A 
ATOM     15  C   UNL d   1     -48.349  11.796  22.282  0.00  0.00     0.026 A 
ATOM     16  C   UNL d   1     -48.412  11.654  23.091  0.00  0.00     0.094 A 
ATOM     17  C   UNL d   1     -49.127  11.811  23.477  0.00  0.00     0.026 A 
ATOM     18  C   UNL d   1     -49.771  12.108  23.057  0.00  0.00     0.021 A 
BRANCH  16  19
ATOM     19  O   UNL d   1     -47.751  11.354  23.503  0.00  0.00    -0.328 OA
ATOM     20  C   UNL d   1     -47.119  11.848  23.697  0.00  0.00     0.181 C 
ENDBRANCH  16  19
ENDBRANCH   2  13
TORSDOF 3
ENDMDL
MODEL 4
REMARK VINA RESULT:      -7.6      1.274      3.284
REMARK  3 active torsions:
REMARK  status: ('A' for Active; 'I' for Inactive)
REMARK    1  A    between atoms: C_2  and  C_1 
REMARK       I    between atoms: N_7  and  C_2 
REMARK    2  A    between atoms: C_9  and  N_7 
REMARK    3  A    between atoms: O_16  and  C_10 
ROOT
ATOM      1  C   UNL d   1     -48.913  11.555  23.270  0.00  0.00     0.280 C 
ATOM      2  N   UNL d   1     -48.209  11.592  23.697  0.00  0.00    -0.208 NA
ATOM      3  O   UNL d   1     -49.520  11.050  23.526  0.00  0.00    -0.265 OA
ENDROOT
BRANCH   1   4
ATOM      4  C   UNL d   1     -49.016  12.016  22.594  0.00  0.00     0.065 A 
ATOM      5  C   UNL d   1     -49.607  12.574  22.472  0.00  0.00     0.011 A 
ATOM      6  C   UNL d   1     -49.493  12.895  21.724  0.00  0.00     0.030 A 
ATOM      7  C   UNL d   1     -50.235  12.834  22.944  0.00  0.00     0.001 A 
ATOM      8  C   UNL d   1     -50.009  13.481  21.441  0.00  0.00     0.006 A 
ATOM      9  S   UNL d   1     -48.837  12.538  21.386  0.00  0.00    -0.086 SA
ATOM     10  C   UNL d   1     -50.627  13.737  21.904  0.00  0.00     0.001 A 
ATOM     11  C   UNL d   1     -50.743  13.415  22.658  0.00  0.00     0.000 A 
ATOM     12  C   UNL d   1     -48.547  11.992  21.934  0.00  0.00     0.040 A 
ENDBRANCH   1   4
BRANCH   2  13
ATOM     13  C   UNL d   1     -47.604  12.096  23.442  0.00  0.00     0.085 A 
ATOM     14  C   UNL d   1     -47.026  11.812  22.932  0.00  0.00     0.021 A 
ATOM     15  C   UNL d   1     -46.416  12.317  22.673  0.00  0.00     0.026 A 
ATOM     16  C   UNL d   1     -46.390  13.101  22.928  0.00  0.00     0.094 A 
ATOM     17  C   UNL d   1     -46.975  13.380  23.442  0.00  0.00     0.026 A 
ATOM     18  C   UNL d   1     -47.579  12.880  23.698  0.00  0.00     0.021 A 
BRANCH  16  19
ATOM     19  O   UNL d   1     -45.773  13.594  22.661  0.00  0.00    -0.328 OA
ATOM     20  C   UNL d   1     -45.188  13.299  22.159  0.00  0.00     0.181 C 
ENDBRANCH  16  19
ENDBRANCH   2  13
TORSDOF 3
ENDMDL
MODEL 5
REMARK VINA RESULT:      -7.3      1.440      2.119
REMARK  3 active torsions:
REMARK  status: ('A' for Active; 'I' for Inactive)
REMARK    1  A    between atoms: C_2  and  C_1 
REMARK       I    between atoms: N_7  and  C_2 
REMARK    2  A    between atoms: C_9  and  N_7 
REMARK    3  A    between atoms: O_16  and  C_10 
ROOT
ATOM      1  C   UNL d   1     -48.427  14.870  22.313  0.00  0.00     0.280 C 
ATOM      2  N   UNL d   1     -49.219  14.948  22.526  0.00  0.00    -0.208 NA
ATOM      3  O   UNL d   1     -47.964  15.550  22.204  0.00  0.00    -0.265 OA
ENDROOT
BRANCH   1   4
ATOM      4  C   UNL d   1     -48.095  14.122  22.209  0.00  0.00     0.065 A 
ATOM      5  C   UNL d   1     -47.414  13.839  22.572  0.00  0.00     0.011 A 
ATOM      6  C   UNL d   1     -47.292  13.071  22.305  0.00  0.00     0.030 A 
ATOM      7  C   UNL d   1     -46.886  14.178  23.112  0.00  0.00     0.001 A 
ATOM      8  C   UNL d   1     -46.641  12.635  22.576  0.00  0.00     0.006 A 
ATOM      9  S   UNL d   1     -47.894  12.881  21.780  0.00  0.00    -0.086 SA
ATOM     10  C   UNL d   1     -46.122  12.968  23.108  0.00  0.00     0.001 A 
ATOM     11  C   UNL d   1     -46.242  13.741  23.378  0.00  0.00     0.000 A 
ATOM     12  C   UNL d   1     -48.388  13.541  21.727  0.00  0.00     0.040 A 
ENDBRANCH   1   4
BRANCH   2  13
ATOM     13  C   UNL d   1     -49.680  14.270  22.635  0.00  0.00     0.085 A 
ATOM     14  C   UNL d   1     -49.786  13.967  23.392  0.00  0.00     0.021 A 
ATOM     15  C   UNL d   1     -50.250  13.284  23.505  0.00  0.00     0.026 A 
ATOM     16  C   UNL d   1     -50.603  12.911  22.859  0.00  0.00     0.094 A 
ATOM     17  C   UNL d   1     -50.492  13.221  22.100  0.00  0.00     0.026 A 
ATOM     18  C   UNL d   1     -50.033  13.897  21.989  0.00  0.00     0.021 A 
BRANCH  16  19
ATOM     19  O   UNL d   1     -51.064  12.228  22.988  0.00  0.00    -0.328 OA
ATOM     20  C   UNL d   1     -51.007  11.811  23.698  0.00  0.00     0.181 C 
ENDBRANCH  16  19
ENDBRANCH   2  13
TORSDOF 3
ENDMDL
MODEL 6
REMARK VINA RESULT:      -7.0      1.549      2.250
REMARK  3 active torsions:
REMARK  status: ('A' for Active; 'I' for Inactive)
REMARK    1  A    between atoms: C_2  and  C_1 
REMARK       I    between atoms: N_7  and  C_2 
REMARK    2  A    between atoms: C_9  and  N_7 
REMARK    3  A    between atoms: O_16  and  C_10 
ROOT
ATOM      1  C   UNL d   1     -47.683  13.360  21.869  0.00  0.00     0.280 C 
ATOM      2  N   UNL d   1     -47.690  14.179  21.964  0.00  0.00    -0.208 NA
ATOM      3  O   UNL d   1     -46.999  12.988  21.583  0.00  0.00    -0.265 OA
ENDROOT
BRANCH   1   4
ATOM      4  C   UNL d   1     -48.350  12.912  22.055  0.00  0.00     0.065 A 
ATOM      5  C   UNL d   1     -48.398  12.332  22.636  0.00  0.00     0.011 A 
ATOM      6  C   UNL d   1     -49.165  12.035  22.625  0.00  0.00     0.030 A 
ATOM      7  C   UNL d   1     -47.846  12.034  23.175  0.00  0.00     0.001 A 
ATOM      8  C   UNL d   1     -49.385  11.435  23.155  0.00  0.00     0.006 A 
ATOM      9  S   UNL d   1     -49.587  12.428  22.042  0.00  0.00    -0.086 SA
ATOM     10  C   UNL d   1     -48.842  11.142  23.685  0.00  0.00     0.001 A 
ATOM     11  C   UNL d   1     -48.070  11.440  23.698  0.00  0.00     0.000 A 
ATOM     12  C   UNL d   1     -49.073  12.972  21.693  0.00  0.00     0.040 A 
ENDBRANCH   1   4
BRANCH   2  13
ATOM     13  C   UNL d   1     -48.373  14.549  22.249  0.00  0.00     0.085 A 
ATOM     14  C   UNL d   1     -48.427  14.748  23.044  0.00  0.00     0.021 A 
ATOM     15  C   UNL d   1     -49.113  15.122  23.334  0.00  0.00     0.026 A 
ATOM     16  C   UNL d   1     -49.739  15.292  22.825  0.00  0.00     0.094 A 
ATOM     17  C   UNL d   1     -49.679  15.089  22.025  0.00  0.00     0.026 A 
ATOM     18  C   UNL d   1     -49.000  14.720  21.739  0.00  0.00     0.021 A 
BRANCH  16  19
ATOM     19  O   UNL d   1     -50.419  15.666  23.130  0.00  0.00    -0.328 OA
ATOM     20  C   UNL d   1     -51.060  15.218  23.395  0.00  0.00     0.181 C 
ENDBRANCH  16  19
ENDBRANCH   2  13
TORSDOF 3
ENDMDL
MODEL 7
REMARK VINA RESULT:      -6.1      9.476     10.712
REMARK  3 active torsions:
REMARK  status: ('A' for Active; 'I' for Inactive)
REMARK    1  A    between atoms: C_2  and  C_1 
REMARK       I    between atoms: N_7  and  C_2 
REMARK    2  A    between atoms: C_9  and  N_7 
REMARK    3  A    between atoms: O_16  and  C_10 
ROOT
ATOM      1  C   UNL d   1     -40.721  15.005  17.585  0.00  0.00     0.280 C 
ATOM      2  N   UNL d   1     -40.895  15.453  18.253  0.00  0.00    -0.208 NA
ATOM      3  O   UNL d   1     -41.202  15.071  16.911  0.00  0.00    -0.265 OA
ENDROOT
BRANCH   1   4
ATOM      4  C   UNL d   1     -40.074  14.493  17.581  0.00  0.00     0.065 A 
ATOM      5  C   UNL d   1     -39.431  14.526  17.069  0.00  0.00     0.011 A 
ATOM      6  C   UNL d   1     -38.925  13.910  17.269  0.00  0.00     0.030 A 
ATOM      7  C   UNL d   1     -39.239  15.035  16.446  0.00  0.00     0.001 A 
ATOM      8  C   UNL d   1     -38.220  13.798  16.846  0.00  0.00     0.006 A 
ATOM      9  S   UNL d   1     -39.252  13.499  17.900  0.00  0.00    -0.086 SA
ATOM     10  C   UNL d   1     -38.030  14.299  16.233  0.00  0.00     0.001 A 
ATOM     11  C   UNL d   1     -38.539  14.920  16.030  0.00  0.00     0.000 A 
ATOM     12  C   UNL d   1     -39.966  13.869  18.087  0.00  0.00     0.040 A 
ENDBRANCH   1   4
BRANCH   2  13
ATOM     13  C   UNL d   1     -40.415  15.387  18.924  0.00  0.00     0.085 A 
ATOM     14  C   UNL d   1     -39.802  15.922  19.041  0.00  0.00     0.021 A 
ATOM     15  C   UNL d   1     -39.316  15.857  19.716  0.00  0.00     0.026 A 
ATOM     16  C   UNL d   1     -39.450  15.258  20.266  0.00  0.00     0.094 A 
ATOM     17  C   UNL d   1     -40.068  14.723  20.142  0.00  0.00     0.026 A 
ATOM     18  C   UNL d   1     -40.548  14.787  19.475  0.00  0.00     0.021 A 
BRANCH  16  19
ATOM     19  O   UNL d   1     -38.956  15.206  20.936  0.00  0.00    -0.328 OA
ATOM     20  C   UNL d   1     -39.255  15.361  21.690  0.00  0.00     0.181 C 
ENDBRANCH  16  19
ENDBRANCH   2  13
TORSDOF 3
ENDMDL
MODEL 8
REMARK VINA RESULT:      -5.9      9.624     10.450
REMARK  3 active torsions:
REMARK  status: ('A' for Active; 'I' for Inactive)
REMARK    1  A    between atoms: C_2  and  C_1 
REMARK       I    between atoms: N_7  and  C_2 
REMARK    2  A    between atoms: C_9  and  N_7 
REMARK    3  A    between atoms: O_16  and  C_10 
ROOT
ATOM      1  C   UNL d   1     -38.734  13.860  18.976  0.00  0.00     0.280 C 
ATOM      2  N   UNL d   1     -39.052  13.669  18.240  0.00  0.00    -0.208 NA
ATOM      3  O   UNL d   1     -38.285  13.295  19.386  0.00  0.00    -0.265 OA
ENDROOT
BRANCH   1   4
ATOM      4  C   UNL d   1     -38.858  14.607  19.304  0.00  0.00     0.065 A 
ATOM      5  C   UNL d   1     -39.270  14.770  19.996  0.00  0.00     0.011 A 
ATOM      6  C   UNL d   1     -39.253  15.584  20.107  0.00  0.00     0.030 A 
ATOM      7  C   UNL d   1     -39.659  14.285  20.542  0.00  0.00     0.001 A 
ATOM      8  C   UNL d   1     -39.626  15.922  20.768  0.00  0.00     0.006 A 
ATOM      9  S   UNL d   1     -38.833  15.922  19.488  0.00  0.00    -0.086 SA
ATOM     10  C   UNL d   1     -40.009  15.445  21.305  0.00  0.00     0.001 A 
ATOM     11  C   UNL d   1     -40.028  14.625  21.195  0.00  0.00     0.000 A 
ATOM     12  C   UNL d   1     -38.592  15.306  18.994  0.00  0.00     0.040 A 
ENDBRANCH   1   4
BRANCH   2  13
ATOM     13  C   UNL d   1     -39.499  14.233  17.831  0.00  0.00     0.085 A 
ATOM     14  C   UNL d   1     -40.317  14.236  17.906  0.00  0.00     0.021 A 
ATOM     15  C   UNL d   1     -40.770  14.803  17.495  0.00  0.00     0.026 A 
ATOM     16  C   UNL d   1     -40.399  15.361  17.015  0.00  0.00     0.094 A 
ATOM     17  C   UNL d   1     -39.574  15.352  16.944  0.00  0.00     0.026 A 
ATOM     18  C   UNL d   1     -39.127  14.791  17.350  0.00  0.00     0.021 A 
BRANCH  16  19
ATOM     19  O   UNL d   1     -40.865  15.922  16.610  0.00  0.00    -0.328 OA
ATOM     20  C   UNL d   1     -41.688  15.899  16.663  0.00  0.00     0.181 C 
ENDBRANCH  16  19
ENDBRANCH   2  13
TORSDOF 3
ENDMDL
