MODEL 1
REMARK VINA RESULT:      -4.4      0.000      0.000
REMARK  1 active torsions:
REMARK  status: ('A' for Active; 'I' for Inactive)
REMARK    1  A    between atoms: C_7  and  C_2 
ROOT
ATOM      1  N   UNL d   1      57.391  -0.041  29.952  0.00  0.00    -0.147 NA
ATOM      2  C   UNL d   1      57.677   0.087  30.712  0.00  0.00     0.103 A 
ATOM      3  N   UNL d   1      57.897   0.029  29.314  0.00  0.00    -0.137 NA
ATOM      4  C   UNL d   1      58.469   0.286  30.843  0.00  0.00     0.022 A 
ATOM      5  C   UNL d   1      58.688   0.228  29.437  0.00  0.00     0.157 A 
ATOM      6  C   UNL d   1      58.975   0.356  30.205  0.00  0.00     0.031 A 
ATOM      7  S   UNL d   1      59.213   0.301  28.774  0.00  0.00    -0.056 SA
ATOM      8  C   UNL d   1      58.759   0.415  31.605  0.00  0.00     0.002 A 
ATOM      9  C   UNL d   1      59.770   0.556  30.331  0.00  0.00     0.002 A 
ATOM     10  C   UNL d   1      59.542   0.612  31.730  0.00  0.00     0.000 A 
ATOM     11  C   UNL d   1      60.048   0.682  31.092  0.00  0.00     0.000 A 
ENDROOT
BRANCH   2  12
ATOM     12  C   UNL d   1      57.152   0.014  31.374  0.00  0.00     0.019 A 
ATOM     13  C   UNL d   1      57.028  -0.730  31.721  0.00  0.00     0.002 A 
ATOM     14  C   UNL d   1      56.519  -0.801  32.362  0.00  0.00     0.000 A 
ATOM     15  C   UNL d   1      56.134  -0.127  32.658  0.00  0.00     0.000 A 
ATOM     16  C   UNL d   1      56.259   0.611  32.312  0.00  0.00     0.000 A 
ATOM     17  C   UNL d   1      55.615  -0.200  33.312  0.00  0.00     0.000 C 
ATOM     18  C   UNL d   1      56.768   0.681  31.670  0.00  0.00     0.002 A 
ENDBRANCH   2  12
TORSDOF 1
ENDMDL
MODEL 2
REMARK VINA RESULT:      -3.5      2.303      3.706
REMARK  1 active torsions:
REMARK  status: ('A' for Active; 'I' for Inactive)
REMARK    1  A    between atoms: C_7  and  C_2 
ROOT
ATOM      1  N   UNL d   1      55.585  -0.033  32.361  0.00  0.00    -0.147 NA
ATOM      2  C   UNL d   1      56.398   0.041  32.450  0.00  0.00     0.103 A 
ATOM      3  N   UNL d   1      55.095   0.106  33.000  0.00  0.00    -0.137 NA
ATOM      4  C   UNL d   1      56.731   0.254  33.177  0.00  0.00     0.022 A 
ATOM      5  C   UNL d   1      55.419   0.319  33.728  0.00  0.00     0.157 A 
ATOM      6  C   UNL d   1      56.241   0.393  33.816  0.00  0.00     0.031 A 
ATOM      7  S   UNL d   1      54.911   0.463  34.392  0.00  0.00    -0.056 SA
ATOM      8  C   UNL d   1      57.548   0.329  33.269  0.00  0.00     0.002 A 
ATOM      9  C   UNL d   1      56.570   0.607  34.546  0.00  0.00     0.002 A 
ATOM     10  C   UNL d   1      57.872   0.540  33.989  0.00  0.00     0.000 A 
ATOM     11  C   UNL d   1      57.383   0.679  34.628  0.00  0.00     0.000 A 
ENDROOT
BRANCH   2  12
ATOM     12  C   UNL d   1      56.907  -0.103  31.786  0.00  0.00     0.019 A 
ATOM     13  C   UNL d   1      57.189   0.536  31.338  0.00  0.00     0.002 A 
ATOM     14  C   UNL d   1      57.681   0.397  30.695  0.00  0.00     0.000 A 
ATOM     15  C   UNL d   1      57.892  -0.382  30.500  0.00  0.00     0.000 A 
ATOM     16  C   UNL d   1      57.611  -1.015  30.947  0.00  0.00     0.000 A 
ATOM     17  C   UNL d   1      58.394  -0.524  29.844  0.00  0.00     0.000 C 
ATOM     18  C   UNL d   1      57.118  -0.875  31.590  0.00  0.00     0.002 A 
ENDBRANCH   2  12
TORSDOF 1
ENDMDL
MODEL 3
REMARK VINA RESULT:      -2.9      0.917      1.425
REMARK  1 active torsions:
REMARK  status: ('A' for Active; 'I' for Inactive)
REMARK    1  A    between atoms: C_7  and  C_2 
ROOT
ATOM      1  N   UNL d   1      56.659  -0.366  31.120  0.00  0.00    -0.147 NA
ATOM      2  C   UNL d   1      56.889  -0.105  31.865  0.00  0.00     0.103 A 
ATOM      3  N   UNL d   1      57.200  -0.367  30.508  0.00  0.00    -0.137 NA
ATOM      4  C   UNL d   1      57.660   0.159  32.006  0.00  0.00     0.022 A 
ATOM      5  C   UNL d   1      57.971  -0.105  30.641  0.00  0.00     0.157 A 
ATOM      6  C   UNL d   1      58.201   0.159  31.394  0.00  0.00     0.031 A 
ATOM      7  S   UNL d   1      58.533  -0.106  30.005  0.00  0.00    -0.056 SA
ATOM      8  C   UNL d   1      57.894   0.422  32.753  0.00  0.00     0.002 A 
ATOM      9  C   UNL d   1      58.975   0.422  31.529  0.00  0.00     0.002 A 
ATOM     10  C   UNL d   1      58.657   0.682  32.887  0.00  0.00     0.000 A 
ATOM     11  C   UNL d   1      59.198   0.681  32.275  0.00  0.00     0.000 A 
ENDROOT
BRANCH   2  12
ATOM     12  C   UNL d   1      56.327  -0.105  32.501  0.00  0.00     0.019 A 
ATOM     13  C   UNL d   1      56.064  -0.825  32.817  0.00  0.00     0.002 A 
ATOM     14  C   UNL d   1      55.520  -0.825  33.433  0.00  0.00     0.000 A 
ATOM     15  C   UNL d   1      55.238  -0.104  33.732  0.00  0.00     0.000 A 
ATOM     16  C   UNL d   1      55.500   0.611  33.416  0.00  0.00     0.000 A 
ATOM     17  C   UNL d   1      54.683  -0.104  34.360  0.00  0.00     0.000 C 
ATOM     18  C   UNL d   1      56.045   0.610  32.800  0.00  0.00     0.002 A 
ENDBRANCH   2  12
TORSDOF 1
ENDMDL
MODEL 4
REMARK VINA RESULT:      -2.4      2.070      3.646
REMARK  1 active torsions:
REMARK  status: ('A' for Active; 'I' for Inactive)
REMARK    1  A    between atoms: C_7  and  C_2 
ROOT
ATOM      1  N   UNL d   1      57.997   0.610  32.564  0.00  0.00    -0.147 NA
ATOM      2  C   UNL d   1      57.542   0.129  32.077  0.00  0.00     0.103 A 
ATOM      3  N   UNL d   1      57.802   0.682  33.355  0.00  0.00    -0.137 NA
ATOM      4  C   UNL d   1      56.889  -0.284  32.373  0.00  0.00     0.022 A 
ATOM      5  C   UNL d   1      57.153   0.273  33.657  0.00  0.00     0.157 A 
ATOM      6  C   UNL d   1      56.695  -0.212  33.163  0.00  0.00     0.031 A 
ATOM      7  S   UNL d   1      56.951   0.348  34.478  0.00  0.00    -0.056 SA
ATOM      8  C   UNL d   1      56.430  -0.768  31.886  0.00  0.00     0.002 A 
ATOM      9  C   UNL d   1      56.042  -0.624  33.465  0.00  0.00     0.002 A 
ATOM     10  C   UNL d   1      55.786  -1.174  32.183  0.00  0.00     0.000 A 
ATOM     11  C   UNL d   1      55.592  -1.102  32.973  0.00  0.00     0.000 A 
ENDROOT
BRANCH   2  12
ATOM     12  C   UNL d   1      57.744   0.055  31.256  0.00  0.00     0.019 A 
ATOM     13  C   UNL d   1      58.122  -0.633  30.987  0.00  0.00     0.002 A 
ATOM     14  C   UNL d   1      58.318  -0.706  30.192  0.00  0.00     0.000 A 
ATOM     15  C   UNL d   1      58.135  -0.090  29.666  0.00  0.00     0.000 A 
ATOM     16  C   UNL d   1      57.759   0.592  29.936  0.00  0.00     0.000 A 
ATOM     17  C   UNL d   1      58.335  -0.164  28.856  0.00  0.00     0.000 C 
ATOM     18  C   UNL d   1      57.564   0.665  30.731  0.00  0.00     0.002 A 
ENDBRANCH   2  12
TORSDOF 1
ENDMDL
MODEL 5
REMARK VINA RESULT:      -2.2      3.011      4.079
REMARK  1 active torsions:
REMARK  status: ('A' for Active; 'I' for Inactive)
REMARK    1  A    between atoms: C_7  and  C_2 
ROOT
ATOM      1  N   UNL d   1      60.512  -1.825  29.074  0.00  0.00    -0.147 NA
ATOM      2  C   UNL d   1      59.695  -1.911  29.067  0.00  0.00     0.103 A 
ATOM      3  N   UNL d   1      60.986  -2.461  28.876  0.00  0.00    -0.137 NA
ATOM      4  C   UNL d   1      59.342  -2.631  28.863  0.00  0.00     0.022 A 
ATOM      5  C   UNL d   1      60.641  -3.182  28.671  0.00  0.00     0.157 A 
ATOM      6  C   UNL d   1      59.816  -3.267  28.665  0.00  0.00     0.031 A 
ATOM      7  S   UNL d   1      61.133  -3.843  28.466  0.00  0.00    -0.056 SA
ATOM      8  C   UNL d   1      58.521  -2.719  28.855  0.00  0.00     0.002 A 
ATOM      9  C   UNL d   1      59.467  -3.990  28.460  0.00  0.00     0.002 A 
ATOM     10  C   UNL d   1      58.177  -3.433  28.653  0.00  0.00     0.000 A 
ATOM     11  C   UNL d   1      58.651  -4.069  28.455  0.00  0.00     0.000 A 
ENDROOT
BRANCH   2  12
ATOM     12  C   UNL d   1      59.203  -1.250  29.272  0.00  0.00     0.019 A 
ATOM     13  C   UNL d   1      59.034  -0.671  28.702  0.00  0.00     0.002 A 
ATOM     14  C   UNL d   1      58.558  -0.031  28.901  0.00  0.00     0.000 A 
ATOM     15  C   UNL d   1      58.251   0.029  29.670  0.00  0.00     0.000 A 
ATOM     16  C   UNL d   1      58.421  -0.548  30.234  0.00  0.00     0.000 A 
ATOM     17  C   UNL d   1      57.765   0.681  29.873  0.00  0.00     0.000 C 
ATOM     18  C   UNL d   1      58.897  -1.188  30.035  0.00  0.00     0.002 A 
ENDBRANCH   2  12
TORSDOF 1
ENDMDL
