MODEL 1
REMARK VINA RESULT:      -7.8      0.000      0.000
REMARK  6 active torsions:
REMARK  status: ('A' for Active; 'I' for Inactive)
REMARK    1  A    between atoms: C_2  and  C_1 
REMARK    2  A    between atoms: N_13  and  C_8 
REMARK    3  A    between atoms: C_12  and  C_20 
REMARK    4  A    between atoms: C_20  and  N_13 
REMARK    5  A    between atoms: O_21  and  C_16 
REMARK    6  A    between atoms: C_25  and  O_21 
ROOT
ATOM      1  C   UNL d   1     -47.834  13.352  22.618  0.00  0.00     0.089 A 
ATOM      2  C   UNL d   1     -47.994  14.114  22.888  0.00  0.00     0.302 A 
ATOM      3  O   UNL d   1     -48.758  14.436  22.801  0.00  0.00    -0.271 OA
ATOM      4  C   UNL d   1     -48.436  12.908  22.260  0.00  0.00     0.009 A 
ATOM      5  C   UNL d   1     -49.350  13.987  22.443  0.00  0.00     0.126 A 
ATOM      6  C   UNL d   1     -49.190  13.225  22.173  0.00  0.00     0.025 A 
ATOM      7  O   UNL d   1     -47.396  14.576  23.252  0.00  0.00    -0.259 OA
ATOM      8  C   UNL d   1     -50.106  14.309  22.359  0.00  0.00     0.123 A 
ATOM      9  C   UNL d   1     -49.785  12.781  21.817  0.00  0.00     0.002 A 
ATOM     10  C   UNL d   1     -50.549  13.104  21.731  0.00  0.00     0.002 A 
ATOM     11  C   UNL d   1     -50.708  13.859  21.998  0.00  0.00     0.027 A 
ENDROOT
BRANCH   1  12
ATOM     12  C   UNL d   1     -47.080  13.036  22.704  0.00  0.00     0.140 A 
ATOM     13  S   UNL d   1     -46.802  12.510  23.290  0.00  0.00    -0.026 SA
ATOM     14  C   UNL d   1     -46.006  12.355  23.138  0.00  0.00     0.216 A 
ATOM     15  N   UNL d   1     -45.796  12.786  22.458  0.00  0.00    -0.121 NA
ATOM     16  N   UNL d   1     -46.457  13.204  22.193  0.00  0.00    -0.139 NA
BRANCH  14  17
ATOM     17  N   UNL d   1     -45.505  11.865  23.574  0.00  0.00    -0.216 NA
BRANCH  17  18
ATOM     18  C   UNL d   1     -45.386  11.080  23.335  0.00  0.00     0.126 C 
BRANCH  18  19
ATOM     19  C   UNL d   1     -44.663  10.708  23.476  0.00  0.00     0.119 A 
ATOM     20  O   UNL d   1     -43.897  10.996  23.564  0.00  0.00    -0.304 OA
ATOM     21  C   UNL d   1     -43.396  10.359  23.696  0.00  0.00     0.123 A 
ATOM     22  C   UNL d   1     -43.842   9.675  23.691  0.00  0.00     0.029 A 
ATOM     23  C   UNL d   1     -44.633   9.884  23.555  0.00  0.00     0.028 A 
ENDBRANCH  18  19
ENDBRANCH  17  18
ENDBRANCH  14  17
ENDBRANCH   1  12
BRANCH   8  24
ATOM     24  O   UNL d   1     -50.259  15.072  22.632  0.00  0.00    -0.303 OA
BRANCH  24  25
ATOM     25  C   UNL d   1     -50.993  15.238  22.984  0.00  0.00     0.123 C 
ATOM     26  C   UNL d   1     -51.064  15.892  23.482  0.00  0.00     0.029 C 
ENDBRANCH  24  25
ENDBRANCH   8  24
TORSDOF 6
ENDMDL
MODEL 2
REMARK VINA RESULT:      -7.1      1.551      1.784
REMARK  6 active torsions:
REMARK  status: ('A' for Active; 'I' for Inactive)
REMARK    1  A    between atoms: C_2  and  C_1 
REMARK    2  A    between atoms: N_13  and  C_8 
REMARK    3  A    between atoms: C_12  and  C_20 
REMARK    4  A    between atoms: C_20  and  N_13 
REMARK    5  A    between atoms: O_21  and  C_16 
REMARK    6  A    between atoms: C_25  and  O_21 
ROOT
ATOM      1  C   UNL d   1     -47.644  12.943  22.893  0.00  0.00     0.089 A 
ATOM      2  C   UNL d   1     -47.827  13.734  23.029  0.00  0.00     0.302 A 
ATOM      3  O   UNL d   1     -48.604  14.009  22.909  0.00  0.00    -0.271 OA
ATOM      4  C   UNL d   1     -48.236  12.422  22.637  0.00  0.00     0.009 A 
ATOM      5  C   UNL d   1     -49.187  13.484  22.654  0.00  0.00     0.126 A 
ATOM      6  C   UNL d   1     -49.004  12.692  22.518  0.00  0.00     0.025 A 
ATOM      7  O   UNL d   1     -47.240  14.274  23.289  0.00  0.00    -0.259 OA
ATOM      8  C   UNL d   1     -49.957  13.760  22.536  0.00  0.00     0.123 A 
ATOM      9  C   UNL d   1     -49.589  12.172  22.264  0.00  0.00     0.002 A 
ATOM     10  C   UNL d   1     -50.367  12.449  22.144  0.00  0.00     0.002 A 
ATOM     11  C   UNL d   1     -50.548  13.233  22.279  0.00  0.00     0.027 A 
ENDROOT
BRANCH   1  12
ATOM     12  C   UNL d   1     -46.876  12.672  23.012  0.00  0.00     0.140 A 
ATOM     13  S   UNL d   1     -46.221  12.726  22.496  0.00  0.00    -0.026 SA
ATOM     14  C   UNL d   1     -45.575  12.373  22.866  0.00  0.00     0.216 A 
ATOM     15  N   UNL d   1     -45.832  12.103  23.610  0.00  0.00    -0.121 NA
ATOM     16  N   UNL d   1     -46.633  12.288  23.698  0.00  0.00    -0.139 NA
BRANCH  14  17
ATOM     17  N   UNL d   1     -44.811  12.298  22.563  0.00  0.00    -0.216 NA
BRANCH  17  18
ATOM     18  C   UNL d   1     -44.574  12.767  21.921  0.00  0.00     0.126 C 
BRANCH  18  19
ATOM     19  C   UNL d   1     -43.786  12.769  21.678  0.00  0.00     0.119 A 
ATOM     20  O   UNL d   1     -43.161  12.250  21.810  0.00  0.00    -0.304 OA
ATOM     21  C   UNL d   1     -42.497  12.541  21.423  0.00  0.00     0.123 A 
ATOM     22  C   UNL d   1     -42.703  13.238  21.049  0.00  0.00     0.029 A 
ATOM     23  C   UNL d   1     -43.504  13.386  21.203  0.00  0.00     0.028 A 
ENDBRANCH  18  19
ENDBRANCH  17  18
ENDBRANCH  14  17
ENDBRANCH   1  12
BRANCH   8  24
ATOM     24  O   UNL d   1     -50.133  14.554  22.675  0.00  0.00    -0.303 OA
BRANCH  24  25
ATOM     25  C   UNL d   1     -50.907  14.766  22.889  0.00  0.00     0.123 C 
ATOM     26  C   UNL d   1     -51.064  15.543  23.119  0.00  0.00     0.029 C 
ENDBRANCH  24  25
ENDBRANCH   8  24
TORSDOF 6
ENDMDL
MODEL 3
REMARK VINA RESULT:      -6.2      1.437      5.809
REMARK  6 active torsions:
REMARK  status: ('A' for Active; 'I' for Inactive)
REMARK    1  A    between atoms: C_2  and  C_1 
REMARK    2  A    between atoms: N_13  and  C_8 
REMARK    3  A    between atoms: C_12  and  C_20 
REMARK    4  A    between atoms: C_20  and  N_13 
REMARK    5  A    between atoms: O_21  and  C_16 
REMARK    6  A    between atoms: C_25  and  O_21 
ROOT
ATOM      1  C   UNL d   1     -46.205  12.852  22.565  0.00  0.00     0.089 A 
ATOM      2  C   UNL d   1     -46.166  12.254  23.131  0.00  0.00     0.302 A 
ATOM      3  O   UNL d   1     -45.458  11.828  23.240  0.00  0.00    -0.271 OA
ATOM      4  C   UNL d   1     -45.536  13.027  22.105  0.00  0.00     0.009 A 
ATOM      5  C   UNL d   1     -44.799  12.009  22.778  0.00  0.00     0.126 A 
ATOM      6  C   UNL d   1     -44.838  12.607  22.212  0.00  0.00     0.025 A 
ATOM      7  O   UNL d   1     -46.832  12.065  23.604  0.00  0.00    -0.259 OA
ATOM      8  C   UNL d   1     -44.099  11.585  22.889  0.00  0.00     0.123 A 
ATOM      9  C   UNL d   1     -44.177  12.783  21.754  0.00  0.00     0.002 A 
ATOM     10  C   UNL d   1     -43.469  12.356  21.865  0.00  0.00     0.002 A 
ATOM     11  C   UNL d   1     -43.431  11.764  22.425  0.00  0.00     0.027 A 
ENDROOT
BRANCH   1  12
ATOM     12  C   UNL d   1     -46.903  13.272  22.458  0.00  0.00     0.140 A 
ATOM     13  S   UNL d   1     -47.225  13.876  22.938  0.00  0.00    -0.026 SA
ATOM     14  C   UNL d   1     -47.935  14.122  22.597  0.00  0.00     0.216 A 
ATOM     15  N   UNL d   1     -48.049  13.669  21.909  0.00  0.00    -0.121 NA
ATOM     16  N   UNL d   1     -47.414  13.147  21.824  0.00  0.00    -0.139 NA
BRANCH  14  17
ATOM     17  N   UNL d   1     -48.442  14.707  22.880  0.00  0.00    -0.216 NA
BRANCH  17  18
ATOM     18  C   UNL d   1     -48.992  14.524  23.474  0.00  0.00     0.126 C 
BRANCH  18  19
ATOM     19  C   UNL d   1     -49.684  14.968  23.549  0.00  0.00     0.119 A 
ATOM     20  O   UNL d   1     -49.820  15.771  23.665  0.00  0.00    -0.304 OA
ATOM     21  C   UNL d   1     -50.631  15.894  23.698  0.00  0.00     0.123 A 
ATOM     22  C   UNL d   1     -51.004  15.173  23.603  0.00  0.00     0.029 A 
ATOM     23  C   UNL d   1     -50.420  14.592  23.510  0.00  0.00     0.028 A 
ENDBRANCH  18  19
ENDBRANCH  17  18
ENDBRANCH  14  17
ENDBRANCH   1  12
BRANCH   8  24
ATOM     24  O   UNL d   1     -44.067  10.988  23.457  0.00  0.00    -0.303 OA
BRANCH  24  25
ATOM     25  C   UNL d   1     -43.609  10.311  23.310  0.00  0.00     0.123 C 
ATOM     26  C   UNL d   1     -43.817   9.595  23.664  0.00  0.00     0.029 C 
ENDBRANCH  24  25
ENDBRANCH   8  24
TORSDOF 6
ENDMDL
MODEL 4
REMARK VINA RESULT:      -5.9      3.211      4.156
REMARK  6 active torsions:
REMARK  status: ('A' for Active; 'I' for Inactive)
REMARK    1  A    between atoms: C_2  and  C_1 
REMARK    2  A    between atoms: N_13  and  C_8 
REMARK    3  A    between atoms: C_12  and  C_20 
REMARK    4  A    between atoms: C_20  and  N_13 
REMARK    5  A    between atoms: O_21  and  C_16 
REMARK    6  A    between atoms: C_25  and  O_21 
ROOT
ATOM      1  C   UNL d   1     -45.066  12.793  22.293  0.00  0.00     0.089 A 
ATOM      2  C   UNL d   1     -45.416  12.151  22.674  0.00  0.00     0.302 A 
ATOM      3  O   UNL d   1     -46.196  12.211  22.961  0.00  0.00    -0.271 OA
ATOM      4  C   UNL d   1     -45.494  13.497  22.197  0.00  0.00     0.009 A 
ATOM      5  C   UNL d   1     -46.614  12.915  22.860  0.00  0.00     0.126 A 
ATOM      6  C   UNL d   1     -46.264  13.557  22.479  0.00  0.00     0.025 A 
ATOM      7  O   UNL d   1     -44.996  11.433  22.780  0.00  0.00    -0.259 OA
ATOM      8  C   UNL d   1     -47.387  12.971  23.146  0.00  0.00     0.123 A 
ATOM      9  C   UNL d   1     -46.686  14.257  22.382  0.00  0.00     0.002 A 
ATOM     10  C   UNL d   1     -47.466  14.315  22.669  0.00  0.00     0.002 A 
ATOM     11  C   UNL d   1     -47.813  13.680  23.047  0.00  0.00     0.027 A 
ENDROOT
BRANCH   1  12
ATOM     12  C   UNL d   1     -44.296  12.733  22.011  0.00  0.00     0.140 A 
ATOM     13  S   UNL d   1     -43.902  13.231  21.468  0.00  0.00    -0.026 SA
ATOM     14  C   UNL d   1     -43.138  12.940  21.362  0.00  0.00     0.216 A 
ATOM     15  N   UNL d   1     -43.063  12.263  21.840  0.00  0.00    -0.121 NA
ATOM     16  N   UNL d   1     -43.776  12.137  22.238  0.00  0.00    -0.139 NA
BRANCH  14  17
ATOM     17  N   UNL d   1     -42.551  13.255  20.875  0.00  0.00    -0.216 NA
BRANCH  17  18
ATOM     18  C   UNL d   1     -41.886  13.618  21.213  0.00  0.00     0.126 C 
BRANCH  18  19
ATOM     19  C   UNL d   1     -41.312  13.963  20.730  0.00  0.00     0.119 A 
ATOM     20  O   UNL d   1     -41.218  13.997  19.914  0.00  0.00    -0.304 OA
ATOM     21  C   UNL d   1     -40.535  14.421  19.750  0.00  0.00     0.123 A 
ATOM     22  C   UNL d   1     -40.200  14.653  20.458  0.00  0.00     0.029 A 
ATOM     23  C   UNL d   1     -40.679  14.372  21.074  0.00  0.00     0.028 A 
ENDBRANCH  18  19
ENDBRANCH  17  18
ENDBRANCH  14  17
ENDBRANCH   1  12
BRANCH   8  24
ATOM     24  O   UNL d   1     -47.731  12.324  23.526  0.00  0.00    -0.303 OA
BRANCH  24  25
ATOM     25  C   UNL d   1     -48.558  12.249  23.531  0.00  0.00     0.123 C 
ATOM     26  C   UNL d   1     -48.896  11.515  23.698  0.00  0.00     0.029 C 
ENDBRANCH  24  25
ENDBRANCH   8  24
TORSDOF 6
ENDMDL
MODEL 5
REMARK VINA RESULT:      -5.1      1.551      5.724
REMARK  6 active torsions:
REMARK  status: ('A' for Active; 'I' for Inactive)
REMARK    1  A    between atoms: C_2  and  C_1 
REMARK    2  A    between atoms: N_13  and  C_8 
REMARK    3  A    between atoms: C_12  and  C_20 
REMARK    4  A    between atoms: C_20  and  N_13 
REMARK    5  A    between atoms: O_21  and  C_16 
REMARK    6  A    between atoms: C_25  and  O_21 
ROOT
ATOM      1  C   UNL d   1     -46.689  11.884  23.228  0.00  0.00     0.089 A 
ATOM      2  C   UNL d   1     -46.244  12.452  22.830  0.00  0.00     0.302 A 
ATOM      3  O   UNL d   1     -45.429  12.332  22.705  0.00  0.00    -0.271 OA
ATOM      4  C   UNL d   1     -46.321  11.193  23.503  0.00  0.00     0.009 A 
ATOM      5  C   UNL d   1     -45.072  11.642  22.982  0.00  0.00     0.126 A 
ATOM      6  C   UNL d   1     -45.517  11.074  23.380  0.00  0.00     0.025 A 
ATOM      7  O   UNL d   1     -46.601  13.156  22.545  0.00  0.00    -0.259 OA
ATOM      8  C   UNL d   1     -44.264  11.526  22.856  0.00  0.00     0.123 A 
ATOM      9  C   UNL d   1     -45.155  10.387  23.655  0.00  0.00     0.002 A 
ATOM     10  C   UNL d   1     -44.339  10.269  23.529  0.00  0.00     0.002 A 
ATOM     11  C   UNL d   1     -43.899  10.831  23.135  0.00  0.00     0.027 A 
ENDROOT
BRANCH   1  12
ATOM     12  C   UNL d   1     -47.493  12.003  23.351  0.00  0.00     0.140 A 
ATOM     13  S   UNL d   1     -47.942  12.694  23.216  0.00  0.00    -0.026 SA
ATOM     14  C   UNL d   1     -48.724  12.536  23.425  0.00  0.00     0.216 A 
ATOM     15  N   UNL d   1     -48.755  11.748  23.688  0.00  0.00    -0.121 NA
ATOM     16  N   UNL d   1     -47.997  11.421  23.643  0.00  0.00    -0.139 NA
BRANCH  14  17
ATOM     17  N   UNL d   1     -49.362  13.057  23.383  0.00  0.00    -0.216 NA
BRANCH  17  18
ATOM     18  C   UNL d   1     -49.717  13.217  22.650  0.00  0.00     0.126 C 
BRANCH  18  19
ATOM     19  C   UNL d   1     -50.231  13.858  22.569  0.00  0.00     0.119 A 
ATOM     20  O   UNL d   1     -50.497  14.429  23.099  0.00  0.00    -0.304 OA
ATOM     21  C   UNL d   1     -51.008  14.933  22.700  0.00  0.00     0.123 A 
ATOM     22  C   UNL d   1     -51.063  14.681  21.924  0.00  0.00     0.029 A 
ATOM     23  C   UNL d   1     -50.582  14.012  21.835  0.00  0.00     0.028 A 
ENDBRANCH  18  19
ENDBRANCH  17  18
ENDBRANCH  14  17
ENDBRANCH   1  12
BRANCH   8  24
ATOM     24  O   UNL d   1     -43.825  12.100  22.457  0.00  0.00    -0.303 OA
BRANCH  24  25
ATOM     25  C   UNL d   1     -43.130  11.876  22.061  0.00  0.00     0.123 C 
ATOM     26  C   UNL d   1     -42.732  12.430  21.597  0.00  0.00     0.029 C 
ENDBRANCH  24  25
ENDBRANCH   8  24
TORSDOF 6
ENDMDL
