MODEL 1
REMARK VINA RESULT:       8.7      0.000      0.000
REMARK  5 active torsions:
REMARK  status: ('A' for Active; 'I' for Inactive)
REMARK       I    between atoms: C_8  and  N_1 
REMARK    1  A    between atoms: C_10  and  C_3 
REMARK    2  A    between atoms: C_4  and  S_14 
REMARK    3  A    between atoms: C_15  and  C_6 
REMARK    4  A    between atoms: C_16  and  C_8 
REMARK    5  A    between atoms: S_14  and  C_16 
ROOT
ATOM      1  N   UNL d   1     -42.116-122.673 -49.879  0.00  0.00    -0.195 N 
ATOM      2  N   UNL d   1     -41.593-122.876 -49.303  0.00  0.00    -0.162 NA
ATOM      3  C   UNL d   1     -42.003-122.928 -48.582  0.00  0.00     0.109 A 
ATOM      4  C   UNL d   1     -42.867-122.594 -49.529  0.00  0.00     0.088 A 
ATOM      5  C   UNL d   1     -42.774-122.754 -48.740  0.00  0.00     0.041 A 
ATOM      6  C   UNL d   1     -42.041-122.543 -50.674  0.00  0.00     0.275 C 
ATOM      7  O   UNL d   1     -42.700-122.335 -51.141  0.00  0.00    -0.266 OA
ENDROOT
BRANCH   4   8
ATOM      8  C   UNL d   1     -43.574-122.397 -49.877  0.00  0.00     0.018 A 
ATOM      9  C   UNL d   1     -44.133-122.980 -50.035  0.00  0.00     0.004 A 
ATOM     10  C   UNL d   1     -44.856-122.770 -50.393  0.00  0.00     0.030 A 
ATOM     11  C   UNL d   1     -45.010-121.989 -50.588  0.00  0.00     0.140 A 
ATOM     12  C   UNL d   1     -44.448-121.408 -50.428  0.00  0.00     0.030 A 
ATOM     13  F   UNL d   1     -45.727-121.763 -50.945  0.00  0.00    -0.204 F 
ATOM     14  C   UNL d   1     -43.725-121.607 -50.072  0.00  0.00     0.004 A 
ENDBRANCH   4   8
BRANCH   6  15
ATOM     15  C   UNL d   1     -41.294-122.619 -51.040  0.00  0.00     0.128 C 
BRANCH  15  16
ATOM     16  S   UNL d   1     -41.127-123.274 -51.523  0.00  0.00    -0.069 SA
BRANCH  16  17
ATOM     17  C   UNL d   1     -41.137-123.201 -52.352  0.00  0.00     0.140 A 
ATOM     18  N   UNL d   1     -41.127-122.488 -52.757  0.00  0.00    -0.232 NA
ATOM     19  C   UNL d   1     -41.142-122.661 -53.563  0.00  0.00     0.088 A 
ATOM     20  C   UNL d   1     -41.140-122.167 -54.230  0.00  0.00     0.020 A 
ATOM     21  C   UNL d   1     -41.161-123.473 -53.654  0.00  0.00     0.049 A 
ATOM     22  C   UNL d   1     -41.157-122.495 -54.987  0.00  0.00     0.002 A 
ATOM     23  C   UNL d   1     -41.177-123.326 -55.070  0.00  0.00     0.001 A 
ATOM     24  C   UNL d   1     -41.179-123.805 -54.402  0.00  0.00     0.008 A 
ATOM     25  S   UNL d   1     -41.158-123.817 -52.899  0.00  0.00    -0.060 SA
ENDBRANCH  16  17
ENDBRANCH  15  16
ENDBRANCH   6  15
BRANCH   3  26
ATOM     26  C   UNL d   1     -41.658-123.124 -47.858  0.00  0.00     0.049 A 
ATOM     27  S   UNL d   1     -41.452-123.816 -47.483  0.00  0.00    -0.085 SA
ATOM     28  C   UNL d   1     -41.123-123.615 -46.754  0.00  0.00     0.035 A 
ATOM     29  C   UNL d   1     -41.123-122.811 -46.676  0.00  0.00     0.007 A 
ATOM     30  C   UNL d   1     -41.458-122.489 -47.365  0.00  0.00     0.009 A 
ENDBRANCH   3  26
TORSDOF 5
ENDMDL
MODEL 2
REMARK VINA RESULT:      11.0      1.746      2.362
REMARK  5 active torsions:
REMARK  status: ('A' for Active; 'I' for Inactive)
REMARK       I    between atoms: C_8  and  N_1 
REMARK    1  A    between atoms: C_10  and  C_3 
REMARK    2  A    between atoms: C_4  and  S_14 
REMARK    3  A    between atoms: C_15  and  C_6 
REMARK    4  A    between atoms: C_16  and  C_8 
REMARK    5  A    between atoms: S_14  and  C_16 
ROOT
ATOM      1  N   UNL d   1     -41.835-122.728 -50.899  0.00  0.00    -0.195 N 
ATOM      2  N   UNL d   1     -42.080-123.265 -50.352  0.00  0.00    -0.162 NA
ATOM      3  C   UNL d   1     -42.277-122.860 -49.654  0.00  0.00     0.109 A 
ATOM      4  C   UNL d   1     -41.874-121.972 -50.552  0.00  0.00     0.088 A 
ATOM      5  C   UNL d   1     -42.146-122.076 -49.796  0.00  0.00     0.041 A 
ATOM      6  C   UNL d   1     -41.579-122.794 -51.663  0.00  0.00     0.275 C 
ATOM      7  O   UNL d   1     -41.357-122.121 -52.102  0.00  0.00    -0.266 OA
ENDROOT
BRANCH   4   8
ATOM      8  C   UNL d   1     -41.686-121.252 -50.877  0.00  0.00     0.018 A 
ATOM      9  C   UNL d   1     -41.313-120.678 -50.422  0.00  0.00     0.004 A 
ATOM     10  C   UNL d   1     -41.123-119.941 -50.763  0.00  0.00     0.030 A 
ATOM     11  C   UNL d   1     -41.307-119.789 -51.548  0.00  0.00     0.140 A 
ATOM     12  C   UNL d   1     -41.681-120.367 -52.001  0.00  0.00     0.030 A 
ATOM     13  F   UNL d   1     -41.124-119.059 -51.904  0.00  0.00    -0.204 F 
ATOM     14  C   UNL d   1     -41.874-121.103 -51.669  0.00  0.00     0.004 A 
ENDBRANCH   4   8
BRANCH   6  15
ATOM     15  C   UNL d   1     -41.534-123.546 -52.024  0.00  0.00     0.128 C 
BRANCH  15  16
ATOM     16  S   UNL d   1     -41.123-123.644 -52.740  0.00  0.00    -0.069 SA
BRANCH  16  17
ATOM     17  C   UNL d   1     -41.446-123.365 -53.454  0.00  0.00     0.140 A 
ATOM     18  N   UNL d   1     -42.121-123.667 -53.809  0.00  0.00    -0.232 NA
ATOM     19  C   UNL d   1     -42.250-123.239 -54.501  0.00  0.00     0.088 A 
ATOM     20  C   UNL d   1     -42.842-123.296 -55.079  0.00  0.00     0.020 A 
ATOM     21  C   UNL d   1     -41.659-122.678 -54.573  0.00  0.00     0.049 A 
ATOM     22  C   UNL d   1     -42.837-122.786 -55.729  0.00  0.00     0.002 A 
ATOM     23  C   UNL d   1     -42.230-122.216 -55.794  0.00  0.00     0.001 A 
ATOM     24  C   UNL d   1     -41.648-122.169 -55.214  0.00  0.00     0.008 A 
ATOM     25  S   UNL d   1     -41.153-122.752 -53.920  0.00  0.00    -0.060 SA
ENDBRANCH  16  17
ENDBRANCH  15  16
ENDBRANCH   6  15
BRANCH   3  26
ATOM     26  C   UNL d   1     -42.553-123.218 -48.963  0.00  0.00     0.049 A 
ATOM     27  S   UNL d   1     -43.268-123.511 -48.708  0.00  0.00    -0.085 SA
ATOM     28  C   UNL d   1     -43.159-123.800 -47.944  0.00  0.00     0.035 A 
ATOM     29  C   UNL d   1     -42.389-123.689 -47.725  0.00  0.00     0.007 A 
ATOM     30  C   UNL d   1     -41.996-123.323 -48.359  0.00  0.00     0.009 A 
ENDBRANCH   3  26
TORSDOF 5
ENDMDL
