MODEL 1
REMARK VINA RESULT:       2.2      0.000      0.000
REMARK  5 active torsions:
REMARK  status: ('A' for Active; 'I' for Inactive)
REMARK    1  A    between atoms: C_14  and  N_3 
REMARK    2  A    between atoms: C_13  and  N_7 
REMARK    3  A    between atoms: C_10  and  C_13 
REMARK       I    between atoms: N_11  and  C_10 
REMARK    4  A    between atoms: C_21  and  N_12 
REMARK    5  A    between atoms: C_22  and  C_14 
ROOT
ATOM      1  C   UNL d   1     -41.669-121.703 -54.082  0.00  0.00     0.191 A 
ATOM      2  C   UNL d   1     -41.846-121.136 -53.498  0.00  0.00     0.196 A 
ATOM      3  N   UNL d   1     -41.914-121.392 -54.811  0.00  0.00    -0.191 N 
ATOM      4  N   UNL d   1     -41.318-122.408 -53.868  0.00  0.00    -0.204 NA
ATOM      5  N   UNL d   1     -42.195-120.488 -53.880  0.00  0.00    -0.122 NA
ATOM      6  N   UNL d   1     -42.232-120.652 -54.672  0.00  0.00    -0.058 NA
ATOM      7  N   UNL d   1     -41.310-122.000 -52.497  0.00  0.00    -0.249 N 
ATOM      8  C   UNL d   1     -41.665-121.290 -52.717  0.00  0.00     0.289 A 
ATOM      9  C   UNL d   1     -41.134-122.567 -53.081  0.00  0.00     0.187 A 
ATOM     10  O   UNL d   1     -41.841-120.723 -52.133  0.00  0.00    -0.265 OA
ENDROOT
BRANCH   7  11
ATOM     11  C   UNL d   1     -41.123-122.164 -51.705  0.00  0.00     0.146 C 
BRANCH  11  12
ATOM     12  C   UNL d   1     -41.257-122.921 -51.387  0.00  0.00     0.283 C 
ATOM     13  N   UNL d   1     -41.483-122.995 -50.602  0.00  0.00    -0.268 N 
ATOM     14  C   UNL d   1     -41.572-122.315 -50.145  0.00  0.00     0.102 A 
ATOM     15  C   UNL d   1     -41.614-123.736 -50.293  0.00  0.00     0.102 A 
ATOM     16  C   UNL d   1     -41.800-122.393 -49.354  0.00  0.00     0.100 A 
ATOM     17  N   UNL d   1     -41.935-123.144 -49.031  0.00  0.00    -0.301 N 
ATOM     18  C   UNL d   1     -41.842-123.815 -49.501  0.00  0.00     0.100 A 
ATOM     19  O   UNL d   1     -41.162-123.588 -51.863  0.00  0.00    -0.265 OA
BRANCH  17  20
ATOM     20  C   UNL d   1     -42.161-123.218 -48.246  0.00  0.00     0.064 A 
ATOM     21  C   UNL d   1     -41.600-123.150 -47.662  0.00  0.00     0.018 A 
ATOM     22  C   UNL d   1     -41.823-123.224 -46.868  0.00  0.00     0.002 A 
ATOM     23  C   UNL d   1     -42.613-123.367 -46.676  0.00  0.00     0.000 A 
ATOM     24  C   UNL d   1     -43.178-123.435 -47.277  0.00  0.00     0.002 A 
ATOM     25  C   UNL d   1     -42.954-123.361 -48.069  0.00  0.00     0.018 A 
ENDBRANCH  17  20
ENDBRANCH  11  12
ENDBRANCH   7  11
BRANCH   3  26
ATOM     26  C   UNL d   1     -41.849-121.766 -55.557  0.00  0.00     0.104 C 
BRANCH  26  27
ATOM     27  C   UNL d   1     -42.382-122.370 -55.765  0.00  0.00     0.019 A 
ATOM     28  C   UNL d   1     -42.150-123.160 -55.736  0.00  0.00     0.002 A 
ATOM     29  C   UNL d   1     -42.685-123.734 -55.943  0.00  0.00     0.000 A 
ATOM     30  C   UNL d   1     -43.442-123.551 -56.178  0.00  0.00     0.000 A 
ATOM     31  C   UNL d   1     -43.679-122.738 -56.207  0.00  0.00     0.000 A 
ATOM     32  C   UNL d   1     -43.140-122.158 -55.999  0.00  0.00     0.002 A 
ENDBRANCH  26  27
ENDBRANCH   3  26
TORSDOF 5
ENDMDL
MODEL 2
REMARK VINA RESULT:       5.2      0.829      6.361
REMARK  5 active torsions:
REMARK  status: ('A' for Active; 'I' for Inactive)
REMARK    1  A    between atoms: C_14  and  N_3 
REMARK    2  A    between atoms: C_13  and  N_7 
REMARK    3  A    between atoms: C_10  and  C_13 
REMARK       I    between atoms: N_11  and  C_10 
REMARK    4  A    between atoms: C_21  and  N_12 
REMARK    5  A    between atoms: C_22  and  C_14 
ROOT
ATOM      1  C   UNL d   1     -42.243-122.511 -50.143  0.00  0.00     0.191 A 
ATOM      2  C   UNL d   1     -41.897-122.999 -50.723  0.00  0.00     0.196 A 
ATOM      3  N   UNL d   1     -42.566-123.008 -49.562  0.00  0.00    -0.191 N 
ATOM      4  N   UNL d   1     -42.213-121.700 -50.227  0.00  0.00    -0.204 NA
ATOM      5  N   UNL d   1     -42.015-123.785 -50.486  0.00  0.00    -0.122 NA
ATOM      6  N   UNL d   1     -42.419-123.780 -49.785  0.00  0.00    -0.058 NA
ATOM      7  N   UNL d   1     -41.500-121.842 -51.459  0.00  0.00    -0.249 N 
ATOM      8  C   UNL d   1     -41.532-122.661 -51.370  0.00  0.00     0.289 A 
ATOM      9  C   UNL d   1     -41.846-121.355 -50.879  0.00  0.00     0.187 A 
ATOM     10  O   UNL d   1     -41.186-123.149 -51.950  0.00  0.00    -0.265 OA
ENDROOT
BRANCH   7  11
ATOM     11  C   UNL d   1     -41.131-121.491 -52.114  0.00  0.00     0.146 C 
BRANCH  11  12
ATOM     12  C   UNL d   1     -41.543-120.948 -52.591  0.00  0.00     0.283 C 
ATOM     13  N   UNL d   1     -41.809-121.181 -53.331  0.00  0.00    -0.268 N 
ATOM     14  C   UNL d   1     -41.662-121.952 -53.585  0.00  0.00     0.102 A 
ATOM     15  C   UNL d   1     -42.212-120.649 -53.795  0.00  0.00     0.102 A 
ATOM     16  C   UNL d   1     -41.932-122.183 -54.332  0.00  0.00     0.100 A 
ATOM     17  N   UNL d   1     -42.343-121.647 -54.811  0.00  0.00    -0.301 N 
ATOM     18  C   UNL d   1     -42.483-120.880 -54.543  0.00  0.00     0.100 A 
ATOM     19  O   UNL d   1     -41.679-120.183 -52.316  0.00  0.00    -0.265 OA
BRANCH  17  20
ATOM     20  C   UNL d   1     -42.609-121.880 -55.551  0.00  0.00     0.064 A 
ATOM     21  C   UNL d   1     -43.307-122.292 -55.612  0.00  0.00     0.018 A 
ATOM     22  C   UNL d   1     -43.580-122.529 -56.357  0.00  0.00     0.002 A 
ATOM     23  C   UNL d   1     -43.142-122.346 -57.032  0.00  0.00     0.000 A 
ATOM     24  C   UNL d   1     -42.432-121.926 -56.961  0.00  0.00     0.002 A 
ATOM     25  C   UNL d   1     -42.160-121.690 -56.217  0.00  0.00     0.018 A 
ENDBRANCH  17  20
ENDBRANCH  11  12
ENDBRANCH   7  11
BRANCH   3  26
ATOM     26  C   UNL d   1     -42.970-122.765 -48.871  0.00  0.00     0.104 C 
BRANCH  26  27
ATOM     27  C   UNL d   1     -42.752-123.078 -48.132  0.00  0.00     0.019 A 
ATOM     28  C   UNL d   1     -43.289-123.520 -47.691  0.00  0.00     0.002 A 
ATOM     29  C   UNL d   1     -43.057-123.817 -46.973  0.00  0.00     0.000 A 
ATOM     30  C   UNL d   1     -42.310-123.691 -46.676  0.00  0.00     0.000 A 
ATOM     31  C   UNL d   1     -41.758-123.237 -47.131  0.00  0.00     0.000 A 
ATOM     32  C   UNL d   1     -41.991-122.936 -47.856  0.00  0.00     0.002 A 
ENDBRANCH  26  27
ENDBRANCH   3  26
TORSDOF 5
ENDMDL
