MODEL 1
REMARK VINA RESULT:      -7.6      0.000      0.000
REMARK  2 active torsions:
REMARK  status: ('A' for Active; 'I' for Inactive)
REMARK    1  A    between atoms: N_10  and  C_6 
REMARK    2  A    between atoms: C_12  and  N_10 
ROOT
ATOM      1  N   UNL d   1     -39.596  13.903  17.931  0.00  0.00    -0.169 N 
ATOM      2  C   UNL d   1     -39.774  14.679  17.712  0.00  0.00     0.201 A 
ATOM      3  C   UNL d   1     -39.097  13.456  17.466  0.00  0.00     0.283 A 
ATOM      4  S   UNL d   1     -40.285  14.995  18.277  0.00  0.00    -0.008 SA
ATOM      5  N   UNL d   1     -40.001  13.741  18.636  0.00  0.00    -0.134 NA
ATOM      6  C   UNL d   1     -40.422  14.410  18.845  0.00  0.00     0.216 A 
ATOM      7  N   UNL d   1     -39.460  15.009  17.039  0.00  0.00    -0.221 NA
ATOM      8  C   UNL d   1     -38.771  13.779  16.778  0.00  0.00     0.076 A 
ATOM      9  C   UNL d   1     -38.952  14.556  16.565  0.00  0.00     0.088 A 
ATOM     10  O   UNL d   1     -38.915  12.679  17.679  0.00  0.00    -0.265 OA
ATOM     11  C   UNL d   1     -38.264  13.331  16.303  0.00  0.00     0.006 A 
ATOM     12  C   UNL d   1     -38.627  14.884  15.876  0.00  0.00     0.019 A 
ATOM     13  C   UNL d   1     -37.940  13.666  15.610  0.00  0.00     0.000 A 
ATOM     14  C   UNL d   1     -38.118  14.431  15.400  0.00  0.00     0.002 A 
ENDROOT
BRANCH   6  15
ATOM     15  N   UNL d   1     -40.904  14.493  19.511  0.00  0.00    -0.220 NA
BRANCH  15  16
ATOM     16  C   UNL d   1     -40.613  14.802  20.213  0.00  0.00     0.084 A 
ATOM     17  C   UNL d   1     -40.199  14.330  20.735  0.00  0.00     0.019 A 
ATOM     18  C   UNL d   1     -39.914  14.654  21.433  0.00  0.00     0.002 A 
ATOM     19  C   UNL d   1     -39.498  14.185  21.962  0.00  0.00     0.000 C 
ATOM     20  C   UNL d   1     -40.050  15.451  21.599  0.00  0.00     0.000 A 
ATOM     21  C   UNL d   1     -40.462  15.921  21.079  0.00  0.00     0.002 A 
ATOM     22  C   UNL d   1     -40.748  15.596  20.377  0.00  0.00     0.019 A 
ENDBRANCH  15  16
ENDBRANCH   6  15
TORSDOF 2
ENDMDL
MODEL 2
REMARK VINA RESULT:      -7.4      8.148      9.832
REMARK  2 active torsions:
REMARK  status: ('A' for Active; 'I' for Inactive)
REMARK    1  A    between atoms: N_10  and  C_6 
REMARK    2  A    between atoms: C_12  and  N_10 
ROOT
ATOM      1  N   UNL d   1     -48.414  13.132  22.548  0.00  0.00    -0.169 N 
ATOM      2  C   UNL d   1     -48.394  13.958  22.536  0.00  0.00     0.201 A 
ATOM      3  C   UNL d   1     -49.080  12.739  22.288  0.00  0.00     0.283 A 
ATOM      4  S   UNL d   1     -47.663  14.202  22.826  0.00  0.00    -0.008 SA
ATOM      5  N   UNL d   1     -47.688  12.868  22.848  0.00  0.00    -0.134 NA
ATOM      6  C   UNL d   1     -47.230  13.524  23.018  0.00  0.00     0.216 A 
ATOM      7  N   UNL d   1     -49.029  14.390  22.269  0.00  0.00    -0.221 NA
ATOM      8  C   UNL d   1     -49.732  13.166  22.014  0.00  0.00     0.076 A 
ATOM      9  C   UNL d   1     -49.707  13.992  22.004  0.00  0.00     0.088 A 
ATOM     10  O   UNL d   1     -49.105  11.914  22.297  0.00  0.00    -0.265 OA
ATOM     11  C   UNL d   1     -50.410  12.774  21.749  0.00  0.00     0.006 A 
ATOM     12  C   UNL d   1     -50.360  14.424  21.730  0.00  0.00     0.019 A 
ATOM     13  C   UNL d   1     -51.064  13.214  21.474  0.00  0.00     0.000 A 
ATOM     14  C   UNL d   1     -51.040  14.026  21.464  0.00  0.00     0.002 A 
ENDROOT
BRANCH   6  15
ATOM     15  N   UNL d   1     -46.464  13.516  23.328  0.00  0.00    -0.220 NA
BRANCH  15  16
ATOM     16  C   UNL d   1     -45.874  13.054  22.995  0.00  0.00     0.084 A 
ATOM     17  C   UNL d   1     -45.404  13.349  22.397  0.00  0.00     0.019 A 
ATOM     18  C   UNL d   1     -44.816  12.875  22.074  0.00  0.00     0.002 A 
ATOM     19  C   UNL d   1     -44.341  13.165  21.472  0.00  0.00     0.000 C 
ATOM     20  C   UNL d   1     -44.709  12.108  22.358  0.00  0.00     0.000 A 
ATOM     21  C   UNL d   1     -45.177  11.814  22.955  0.00  0.00     0.002 A 
ATOM     22  C   UNL d   1     -45.767  12.290  23.279  0.00  0.00     0.019 A 
ENDBRANCH  15  16
ENDBRANCH   6  15
TORSDOF 2
ENDMDL
MODEL 3
REMARK VINA RESULT:      -6.9      1.559      2.245
REMARK  2 active torsions:
REMARK  status: ('A' for Active; 'I' for Inactive)
REMARK    1  A    between atoms: N_10  and  C_6 
REMARK    2  A    between atoms: C_12  and  N_10 
ROOT
ATOM      1  N   UNL d   1     -40.182  14.420  19.334  0.00  0.00    -0.169 N 
ATOM      2  C   UNL d   1     -40.581  15.120  19.515  0.00  0.00     0.201 A 
ATOM      3  C   UNL d   1     -40.045  14.222  18.555  0.00  0.00     0.283 A 
ATOM      4  S   UNL d   1     -40.640  15.178  20.335  0.00  0.00    -0.008 SA
ATOM      5  N   UNL d   1     -39.996  14.045  20.050  0.00  0.00    -0.134 NA
ATOM      6  C   UNL d   1     -40.277  14.511  20.660  0.00  0.00     0.216 A 
ATOM      7  N   UNL d   1     -40.841  15.619  18.928  0.00  0.00    -0.221 NA
ATOM      8  C   UNL d   1     -40.305  14.720  17.949  0.00  0.00     0.076 A 
ATOM      9  C   UNL d   1     -40.703  15.419  18.135  0.00  0.00     0.088 A 
ATOM     10  O   UNL d   1     -39.647  13.522  18.368  0.00  0.00    -0.265 OA
ATOM     11  C   UNL d   1     -40.169  14.525  17.157  0.00  0.00     0.006 A 
ATOM     12  C   UNL d   1     -40.965  15.922  17.530  0.00  0.00     0.019 A 
ATOM     13  C   UNL d   1     -40.435  15.034  16.551  0.00  0.00     0.000 A 
ATOM     14  C   UNL d   1     -40.827  15.723  16.735  0.00  0.00     0.002 A 
ENDROOT
BRANCH   6  15
ATOM     15  N   UNL d   1     -40.211  14.346  21.467  0.00  0.00    -0.220 NA
BRANCH  15  16
ATOM     16  C   UNL d   1     -39.486  14.362  21.849  0.00  0.00     0.084 A 
ATOM     17  C   UNL d   1     -39.081  13.670  21.999  0.00  0.00     0.019 A 
ATOM     18  C   UNL d   1     -38.355  13.702  22.383  0.00  0.00     0.002 A 
ATOM     19  C   UNL d   1     -37.943  13.010  22.537  0.00  0.00     0.000 C 
ATOM     20  C   UNL d   1     -38.046  14.432  22.610  0.00  0.00     0.000 A 
ATOM     21  C   UNL d   1     -38.449  15.122  22.461  0.00  0.00     0.002 A 
ATOM     22  C   UNL d   1     -39.178  15.090  22.076  0.00  0.00     0.019 A 
ENDBRANCH  15  16
ENDBRANCH   6  15
TORSDOF 2
ENDMDL
MODEL 4
REMARK VINA RESULT:      -6.8      1.601      4.566
REMARK  2 active torsions:
REMARK  status: ('A' for Active; 'I' for Inactive)
REMARK    1  A    between atoms: N_10  and  C_6 
REMARK    2  A    between atoms: C_12  and  N_10 
ROOT
ATOM      1  N   UNL d   1     -40.005  14.929  20.356  0.00  0.00    -0.169 N 
ATOM      2  C   UNL d   1     -39.354  14.422  20.311  0.00  0.00     0.201 A 
ATOM      3  C   UNL d   1     -40.097  15.413  21.006  0.00  0.00     0.283 A 
ATOM      4  S   UNL d   1     -39.402  14.003  19.603  0.00  0.00    -0.008 SA
ATOM      5  N   UNL d   1     -40.456  14.819  19.669  0.00  0.00    -0.134 NA
ATOM      6  C   UNL d   1     -40.086  14.253  19.210  0.00  0.00     0.216 A 
ATOM      7  N   UNL d   1     -38.800  14.396  20.906  0.00  0.00    -0.221 NA
ATOM      8  C   UNL d   1     -39.540  15.397  21.617  0.00  0.00     0.076 A 
ATOM      9  C   UNL d   1     -38.892  14.888  21.567  0.00  0.00     0.088 A 
ATOM     10  O   UNL d   1     -40.745  15.922  21.056  0.00  0.00    -0.265 OA
ATOM     11  C   UNL d   1     -39.628  15.885  22.278  0.00  0.00     0.006 A 
ATOM     12  C   UNL d   1     -38.331  14.868  22.178  0.00  0.00     0.019 A 
ATOM     13  C   UNL d   1     -39.061  15.862  22.891  0.00  0.00     0.000 A 
ATOM     14  C   UNL d   1     -38.422  15.361  22.841  0.00  0.00     0.002 A 
ENDROOT
BRANCH   6  15
ATOM     15  N   UNL d   1     -40.346  13.974  18.478  0.00  0.00    -0.220 NA
BRANCH  15  16
ATOM     16  C   UNL d   1     -40.299  14.437  17.803  0.00  0.00     0.084 A 
ATOM     17  C   UNL d   1     -39.627  14.430  17.340  0.00  0.00     0.019 A 
ATOM     18  C   UNL d   1     -39.595  14.899  16.667  0.00  0.00     0.002 A 
ATOM     19  C   UNL d   1     -38.923  14.896  16.197  0.00  0.00     0.000 C 
ATOM     20  C   UNL d   1     -40.242  15.372  16.468  0.00  0.00     0.000 A 
ATOM     21  C   UNL d   1     -40.911  15.380  16.930  0.00  0.00     0.002 A 
ATOM     22  C   UNL d   1     -40.944  14.908  17.606  0.00  0.00     0.019 A 
ENDBRANCH  15  16
ENDBRANCH   6  15
TORSDOF 2
ENDMDL
MODEL 5
REMARK VINA RESULT:      -6.3      8.913     10.486
REMARK  2 active torsions:
REMARK  status: ('A' for Active; 'I' for Inactive)
REMARK    1  A    between atoms: N_10  and  C_6 
REMARK    2  A    between atoms: C_12  and  N_10 
ROOT
ATOM      1  N   UNL d   1     -47.801  12.421  23.395  0.00  0.00    -0.169 N 
ATOM      2  C   UNL d   1     -48.078  11.671  23.603  0.00  0.00     0.201 A 
ATOM      3  C   UNL d   1     -47.002  12.540  23.283  0.00  0.00     0.283 A 
ATOM      4  S   UNL d   1     -48.898  11.712  23.680  0.00  0.00    -0.008 SA
ATOM      5  N   UNL d   1     -48.457  12.925  23.344  0.00  0.00    -0.134 NA
ATOM      6  C   UNL d   1     -49.126  12.490  23.519  0.00  0.00     0.216 A 
ATOM      7  N   UNL d   1     -47.568  11.046  23.698  0.00  0.00    -0.221 NA
ATOM      8  C   UNL d   1     -46.472  11.912  23.376  0.00  0.00     0.076 A 
ATOM      9  C   UNL d   1     -46.755  11.165  23.584  0.00  0.00     0.088 A 
ATOM     10  O   UNL d   1     -46.719  13.288  23.075  0.00  0.00    -0.265 OA
ATOM     11  C   UNL d   1     -45.661  12.027  23.263  0.00  0.00     0.006 A 
ATOM     12  C   UNL d   1     -46.227  10.533  23.679  0.00  0.00     0.019 A 
ATOM     13  C   UNL d   1     -45.133  11.387  23.360  0.00  0.00     0.000 A 
ATOM     14  C   UNL d   1     -45.412  10.651  23.564  0.00  0.00     0.002 A 
ENDROOT
BRANCH   6  15
ATOM     15  N   UNL d   1     -49.902  12.774  23.533  0.00  0.00    -0.220 NA
BRANCH  15  16
ATOM     16  C   UNL d   1     -50.151  13.360  23.016  0.00  0.00     0.084 A 
ATOM     17  C   UNL d   1     -50.082  14.148  23.218  0.00  0.00     0.019 A 
ATOM     18  C   UNL d   1     -50.337  14.724  22.691  0.00  0.00     0.002 A 
ATOM     19  C   UNL d   1     -50.270  15.517  22.887  0.00  0.00     0.000 C 
ATOM     20  C   UNL d   1     -50.659  14.499  21.965  0.00  0.00     0.000 A 
ATOM     21  C   UNL d   1     -50.727  13.714  21.764  0.00  0.00     0.002 A 
ATOM     22  C   UNL d   1     -50.472  13.135  22.294  0.00  0.00     0.019 A 
ENDBRANCH  15  16
ENDBRANCH   6  15
TORSDOF 2
ENDMDL
MODEL 6
REMARK VINA RESULT:      -5.9      1.134      4.582
REMARK  2 active torsions:
REMARK  status: ('A' for Active; 'I' for Inactive)
REMARK    1  A    between atoms: N_10  and  C_6 
REMARK    2  A    between atoms: C_12  and  N_10 
ROOT
ATOM      1  N   UNL d   1     -39.680  14.039  18.472  0.00  0.00    -0.169 N 
ATOM      2  C   UNL d   1     -39.015  14.120  18.955  0.00  0.00     0.201 A 
ATOM      3  C   UNL d   1     -40.421  14.196  18.774  0.00  0.00     0.283 A 
ATOM      4  S   UNL d   1     -38.348  13.929  18.510  0.00  0.00    -0.008 SA
ATOM      5  N   UNL d   1     -39.418  13.796  17.724  0.00  0.00    -0.134 NA
ATOM      6  C   UNL d   1     -38.604  13.729  17.749  0.00  0.00     0.216 A 
ATOM      7  N   UNL d   1     -39.085  14.354  19.730  0.00  0.00    -0.221 NA
ATOM      8  C   UNL d   1     -40.506  14.435  19.561  0.00  0.00     0.076 A 
ATOM      9  C   UNL d   1     -39.837  14.514  20.039  0.00  0.00     0.088 A 
ATOM     10  O   UNL d   1     -41.090  14.117  18.295  0.00  0.00    -0.265 OA
ATOM     11  C   UNL d   1     -41.255  14.595  19.873  0.00  0.00     0.006 A 
ATOM     12  C   UNL d   1     -39.919  14.753  20.829  0.00  0.00     0.019 A 
ATOM     13  C   UNL d   1     -41.331  14.835  20.669  0.00  0.00     0.000 A 
ATOM     14  C   UNL d   1     -40.673  14.913  21.140  0.00  0.00     0.002 A 
ENDROOT
BRANCH   6  15
ATOM     15  N   UNL d   1     -38.115  13.500  17.124  0.00  0.00    -0.220 NA
BRANCH  15  16
ATOM     16  C   UNL d   1     -38.067  13.943  16.435  0.00  0.00     0.084 A 
ATOM     17  C   UNL d   1     -38.096  13.579  15.705  0.00  0.00     0.019 A 
ATOM     18  C   UNL d   1     -38.047  14.036  15.024  0.00  0.00     0.002 A 
ATOM     19  C   UNL d   1     -38.076  13.676  14.288  0.00  0.00     0.000 C 
ATOM     20  C   UNL d   1     -37.969  14.855  15.087  0.00  0.00     0.000 A 
ATOM     21  C   UNL d   1     -37.940  15.217  15.814  0.00  0.00     0.002 A 
ATOM     22  C   UNL d   1     -37.989  14.759  16.498  0.00  0.00     0.019 A 
ENDBRANCH  15  16
ENDBRANCH   6  15
TORSDOF 2
ENDMDL
