MODEL 1
REMARK VINA RESULT:      25.3      0.000      0.000
REMARK  2 active torsions:
REMARK  status: ('A' for Active; 'I' for Inactive)
REMARK    1  A    between atoms: N_4  and  C_1 
REMARK    2  A    between atoms: C_6  and  C_2 
ROOT
ATOM      1  C   UNL d   1      59.183  49.654  50.438  0.00  0.00     0.149 A 
ATOM      2  C   UNL d   1      59.629  49.675  51.141  0.00  0.00     0.056 A 
ATOM      3  N   UNL d   1      59.548  49.637  49.707  0.00  0.00    -0.228 NA
ATOM      4  C   UNL d   1      60.445  49.677  51.095  0.00  0.00     0.006 A 
ATOM      5  C   UNL d   1      60.364  49.640  49.656  0.00  0.00     0.083 A 
ATOM      6  C   UNL d   1      60.818  49.660  50.350  0.00  0.00     0.019 A 
ATOM      7  C   UNL d   1      60.907  49.697  51.783  0.00  0.00     0.000 C 
ATOM      8  C   UNL d   1      60.737  49.622  48.920  0.00  0.00     0.021 C 
ENDROOT
BRANCH   1   9
ATOM      9  N   UNL d   1      58.358  49.651  50.485  0.00  0.00    -0.289 N 
ATOM     10  C   UNL d   1      57.964  49.648  49.879  0.00  0.00     0.082 A 
ATOM     11  C   UNL d   1      57.248  49.645  49.928  0.00  0.00     0.021 A 
ATOM     12  C   UNL d   1      57.330  49.651  51.166  0.00  0.00     0.021 A 
ATOM     13  C   UNL d   1      58.043  49.653  51.117  0.00  0.00     0.082 A 
ENDBRANCH   1   9
BRANCH   2  14
ATOM     14  C   UNL d   1      59.256  49.692  51.868  0.00  0.00     0.125 C 
ATOM     15  N   UNL d   1      59.686  49.557  52.554  0.00  0.00    -0.146 N 
ENDBRANCH   2  14
TORSDOF 2
ENDMDL
MODEL 2
REMARK VINA RESULT:      28.1      0.981      1.494
REMARK  2 active torsions:
REMARK  status: ('A' for Active; 'I' for Inactive)
REMARK    1  A    between atoms: N_4  and  C_1 
REMARK    2  A    between atoms: C_6  and  C_2 
ROOT
ATOM      1  C   UNL d   1      58.019  49.677  50.312  0.00  0.00     0.149 A 
ATOM      2  C   UNL d   1      58.112  49.685  51.139  0.00  0.00     0.056 A 
ATOM      3  N   UNL d   1      58.666  49.684  49.813  0.00  0.00    -0.228 NA
ATOM      4  C   UNL d   1      58.867  49.698  51.455  0.00  0.00     0.006 A 
ATOM      5  C   UNL d   1      59.422  49.697  50.125  0.00  0.00     0.083 A 
ATOM      6  C   UNL d   1      59.527  49.705  50.947  0.00  0.00     0.019 A 
ATOM      7  C   UNL d   1      58.981  49.706  52.276  0.00  0.00     0.000 C 
ATOM      8  C   UNL d   1      60.079  49.704  49.626  0.00  0.00     0.021 C 
ENDROOT
BRANCH   1   9
ATOM      9  N   UNL d   1      57.256  49.664  49.994  0.00  0.00    -0.289 N 
ATOM     10  C   UNL d   1      57.166  49.610  49.279  0.00  0.00     0.082 A 
ATOM     11  C   UNL d   1      56.500  49.599  49.010  0.00  0.00     0.021 A 
ATOM     12  C   UNL d   1      56.034  49.692  50.156  0.00  0.00     0.021 A 
ATOM     13  C   UNL d   1      56.696  49.704  50.423  0.00  0.00     0.082 A 
ENDBRANCH   1   9
BRANCH   2  14
ATOM     14  C   UNL d   1      57.459  49.678  51.631  0.00  0.00     0.125 C 
ATOM     15  N   UNL d   1      57.294  49.015  52.086  0.00  0.00    -0.146 N 
ENDBRANCH   2  14
TORSDOF 2
ENDMDL
