MODEL 1
REMARK VINA RESULT:     -10.8      0.000      0.000
REMARK  0 active torsions:
REMARK  status: ('A' for Active; 'I' for Inactive)
REMARK       I    between atoms: C_2  and  N_1 
REMARK       I    between atoms: N_7  and  C_2 
ROOT
ATOM      1  N   UNL d   1      53.230  32.382  53.859  0.00  0.00    -0.241 N 
ATOM      2  C   UNL d   1      52.917  31.844  53.284  0.00  0.00     0.341 C 
ATOM      3  C   UNL d   1      53.153  33.188  53.885  0.00  0.00     0.087 A 
ATOM      4  C   UNL d   1      53.676  32.146  54.499  0.00  0.00     0.186 A 
ATOM      5  N   UNL d   1      53.877  32.819  54.927  0.00  0.00    -0.224 NA
ATOM      6  C   UNL d   1      53.550  33.466  54.542  0.00  0.00     0.099 A 
ATOM      7  N   UNL d   1      53.049  31.033  53.342  0.00  0.00    -0.257 N 
ATOM      8  C   UNL d   1      52.764  33.711  53.382  0.00  0.00     0.019 A 
ATOM      9  C   UNL d   1      53.570  34.277  54.716  0.00  0.00     0.021 A 
ATOM     10  C   UNL d   1      52.780  34.513  53.550  0.00  0.00     0.002 A 
ATOM     11  C   UNL d   1      53.175  34.802  54.205  0.00  0.00     0.002 A 
ATOM     12  O   UNL d   1      52.470  32.163  52.657  0.00  0.00    -0.245 OA
ATOM     13  C   UNL d   1      52.745  30.528  52.786  0.00  0.00     0.085 A 
ATOM     14  C   UNL d   1      53.499  30.733  53.978  0.00  0.00     0.085 A 
ATOM     15  C   UNL d   1      52.382  35.032  53.032  0.00  0.00     0.000 C 
ATOM     16  C   UNL d   1      53.183  35.628  54.365  0.00  0.00     0.000 C 
ATOM     17  C   UNL d   1      52.878  29.716  52.845  0.00  0.00     0.019 A 
ATOM     18  C   UNL d   1      53.633  29.913  54.037  0.00  0.00     0.019 A 
ATOM     19  C   UNL d   1      53.314  29.413  53.459  0.00  0.00     0.003 A 
ENDROOT
TORSDOF 0
ENDMDL
MODEL 2
REMARK VINA RESULT:     -10.3      0.881      4.026
REMARK  0 active torsions:
REMARK  status: ('A' for Active; 'I' for Inactive)
REMARK       I    between atoms: C_2  and  N_1 
REMARK       I    between atoms: N_7  and  C_2 
ROOT
ATOM      1  N   UNL d   1      53.043  32.487  53.637  0.00  0.00    -0.241 N 
ATOM      2  C   UNL d   1      53.344  32.970  54.264  0.00  0.00     0.341 C 
ATOM      3  C   UNL d   1      53.081  31.681  53.563  0.00  0.00     0.087 A 
ATOM      4  C   UNL d   1      52.652  32.786  52.986  0.00  0.00     0.186 A 
ATOM      5  N   UNL d   1      52.447  32.152  52.503  0.00  0.00    -0.224 NA
ATOM      6  C   UNL d   1      52.715  31.466  52.865  0.00  0.00     0.099 A 
ATOM      7  N   UNL d   1      53.255  33.789  54.251  0.00  0.00    -0.257 N 
ATOM      8  C   UNL d   1      53.411  31.108  54.054  0.00  0.00     0.019 A 
ATOM      9  C   UNL d   1      52.668  30.669  52.638  0.00  0.00     0.021 A 
ATOM     10  C   UNL d   1      53.366  30.320  53.833  0.00  0.00     0.002 A 
ATOM     11  C   UNL d   1      53.002  30.093  53.137  0.00  0.00     0.002 A 
ATOM     12  O   UNL d   1      53.732  32.590  54.895  0.00  0.00    -0.245 OA
ATOM     13  C   UNL d   1      53.547  34.242  54.856  0.00  0.00     0.085 A 
ATOM     14  C   UNL d   1      52.863  34.152  53.609  0.00  0.00     0.085 A 
ATOM     15  C   UNL d   1      53.704  29.749  54.340  0.00  0.00     0.000 C 
ATOM     16  C   UNL d   1      52.964  29.280  52.924  0.00  0.00     0.000 C 
ATOM     17  C   UNL d   1      53.458  35.062  54.843  0.00  0.00     0.019 A 
ATOM     18  C   UNL d   1      52.774  34.980  53.595  0.00  0.00     0.019 A 
ATOM     19  C   UNL d   1      53.078  35.426  54.223  0.00  0.00     0.003 A 
ENDROOT
TORSDOF 0
ENDMDL
MODEL 3
REMARK VINA RESULT:      -9.1      0.722      3.759
REMARK  0 active torsions:
REMARK  status: ('A' for Active; 'I' for Inactive)
REMARK       I    between atoms: C_2  and  N_1 
REMARK       I    between atoms: N_7  and  C_2 
ROOT
ATOM      1  N   UNL d   1      53.031  32.203  53.549  0.00  0.00    -0.241 N 
ATOM      2  C   UNL d   1      52.517  32.687  53.081  0.00  0.00     0.341 C 
ATOM      3  C   UNL d   1      53.081  31.395  53.567  0.00  0.00     0.087 A 
ATOM      4  C   UNL d   1      53.577  32.505  54.075  0.00  0.00     0.186 A 
ATOM      5  N   UNL d   1      53.969  31.870  54.422  0.00  0.00    -0.224 NA
ATOM      6  C   UNL d   1      53.658  31.181  54.103  0.00  0.00     0.099 A 
ATOM      7  N   UNL d   1      52.541  33.509  53.133  0.00  0.00    -0.257 N 
ATOM      8  C   UNL d   1      52.663  30.819  53.152  0.00  0.00     0.019 A 
ATOM      9  C   UNL d   1      53.835  30.382  54.242  0.00  0.00     0.021 A 
ATOM     10  C   UNL d   1      52.835  30.028  53.286  0.00  0.00     0.002 A 
ATOM     11  C   UNL d   1      53.411  29.802  53.821  0.00  0.00     0.002 A 
ATOM     12  O   UNL d   1      51.986  32.304  52.567  0.00  0.00    -0.245 OA
ATOM     13  C   UNL d   1      52.044  33.962  52.681  0.00  0.00     0.085 A 
ATOM     14  C   UNL d   1      53.080  33.874  53.655  0.00  0.00     0.085 A 
ATOM     15  C   UNL d   1      52.405  29.454  52.860  0.00  0.00     0.000 C 
ATOM     16  C   UNL d   1      53.576  28.988  53.948  0.00  0.00     0.000 C 
ATOM     17  C   UNL d   1      52.067  34.785  52.733  0.00  0.00     0.019 A 
ATOM     18  C   UNL d   1      53.104  34.705  53.707  0.00  0.00     0.019 A 
ATOM     19  C   UNL d   1      52.588  35.151  53.237  0.00  0.00     0.003 A 
ENDROOT
TORSDOF 0
ENDMDL
MODEL 4
REMARK VINA RESULT:      -8.8      2.053      3.360
REMARK  0 active torsions:
REMARK  status: ('A' for Active; 'I' for Inactive)
REMARK       I    between atoms: C_2  and  N_1 
REMARK       I    between atoms: N_7  and  C_2 
ROOT
ATOM      1  N   UNL d   1      52.298  34.040  53.547  0.00  0.00    -0.241 N 
ATOM      2  C   UNL d   1      51.911  33.757  52.849  0.00  0.00     0.341 C 
ATOM      3  C   UNL d   1      53.025  33.829  53.838  0.00  0.00     0.087 A 
ATOM      4  C   UNL d   1      51.973  34.595  54.049  0.00  0.00     0.186 A 
ATOM      5  N   UNL d   1      52.509  34.727  54.659  0.00  0.00    -0.224 NA
ATOM      6  C   UNL d   1      53.162  34.249  54.525  0.00  0.00     0.099 A 
ATOM      7  N   UNL d   1      51.165  34.033  52.634  0.00  0.00    -0.257 N 
ATOM      8  C   UNL d   1      53.586  33.297  53.556  0.00  0.00     0.019 A 
ATOM      9  C   UNL d   1      53.868  34.149  54.951  0.00  0.00     0.021 A 
ATOM     10  C   UNL d   1      54.284  33.195  53.973  0.00  0.00     0.002 A 
ATOM     11  C   UNL d   1      54.433  33.610  54.662  0.00  0.00     0.002 A 
ATOM     12  O   UNL d   1      52.309  33.189  52.388  0.00  0.00    -0.245 OA
ATOM     13  C   UNL d   1      50.804  33.755  51.964  0.00  0.00     0.085 A 
ATOM     14  C   UNL d   1      50.783  34.602  53.110  0.00  0.00     0.085 A 
ATOM     15  C   UNL d   1      54.845  32.653  53.677  0.00  0.00     0.000 C 
ATOM     16  C   UNL d   1      55.153  33.495  55.080  0.00  0.00     0.000 C 
ATOM     17  C   UNL d   1      50.057  34.033  51.748  0.00  0.00     0.019 A 
ATOM     18  C   UNL d   1      50.029  34.882  52.892  0.00  0.00     0.019 A 
ATOM     19  C   UNL d   1      49.676  34.586  52.204  0.00  0.00     0.003 A 
ENDROOT
TORSDOF 0
ENDMDL
MODEL 5
REMARK VINA RESULT:      -8.6      2.101      3.226
REMARK  0 active torsions:
REMARK  status: ('A' for Active; 'I' for Inactive)
REMARK       I    between atoms: C_2  and  N_1 
REMARK       I    between atoms: N_7  and  C_2 
ROOT
ATOM      1  N   UNL d   1      52.403  33.795  53.414  0.00  0.00    -0.241 N 
ATOM      2  C   UNL d   1      52.759  34.030  54.146  0.00  0.00     0.341 C 
ATOM      3  C   UNL d   1      51.677  34.003  53.119  0.00  0.00     0.087 A 
ATOM      4  C   UNL d   1      52.764  33.297  52.878  0.00  0.00     0.186 A 
ATOM      5  N   UNL d   1      52.251  33.199  52.242  0.00  0.00    -0.224 NA
ATOM      6  C   UNL d   1      51.576  33.639  52.396  0.00  0.00     0.099 A 
ATOM      7  N   UNL d   1      53.508  33.763  54.360  0.00  0.00    -0.257 N 
ATOM      8  C   UNL d   1      51.088  34.488  53.428  0.00  0.00     0.019 A 
ATOM      9  C   UNL d   1      50.880  33.750  51.957  0.00  0.00     0.021 A 
ATOM     10  C   UNL d   1      50.399  34.600  52.999  0.00  0.00     0.002 A 
ATOM     11  C   UNL d   1      50.286  34.241  52.273  0.00  0.00     0.002 A 
ATOM     12  O   UNL d   1      52.326  34.541  54.641  0.00  0.00    -0.245 OA
ATOM     13  C   UNL d   1      53.839  33.995  55.063  0.00  0.00     0.085 A 
ATOM     14  C   UNL d   1      53.926  33.252  53.851  0.00  0.00     0.085 A 
ATOM     15  C   UNL d   1      49.809  35.094  53.322  0.00  0.00     0.000 C 
ATOM     16  C   UNL d   1      49.574  34.365  51.843  0.00  0.00     0.000 C 
ATOM     17  C   UNL d   1      54.589  33.728  55.278  0.00  0.00     0.019 A 
ATOM     18  C   UNL d   1      54.684  32.982  54.068  0.00  0.00     0.019 A 
ATOM     19  C   UNL d   1      55.005  33.230  54.789  0.00  0.00     0.003 A 
ENDROOT
TORSDOF 0
ENDMDL
MODEL 6
REMARK VINA RESULT:      -7.9      1.968      3.656
REMARK  0 active torsions:
REMARK  status: ('A' for Active; 'I' for Inactive)
REMARK       I    between atoms: C_2  and  N_1 
REMARK       I    between atoms: N_7  and  C_2 
ROOT
ATOM      1  N   UNL d   1      51.995  33.718  53.170  0.00  0.00    -0.241 N 
ATOM      2  C   UNL d   1      51.408  34.297  53.367  0.00  0.00     0.341 C 
ATOM      3  C   UNL d   1      52.699  33.571  53.544  0.00  0.00     0.087 A 
ATOM      4  C   UNL d   1      51.925  33.202  52.543  0.00  0.00     0.186 A 
ATOM      5  N   UNL d   1      52.598  32.729  52.531  0.00  0.00    -0.224 NA
ATOM      6  C   UNL d   1      53.077  32.961  53.155  0.00  0.00     0.099 A 
ATOM      7  N   UNL d   1      50.718  34.372  52.923  0.00  0.00    -0.257 N 
ATOM      8  C   UNL d   1      53.046  33.925  54.202  0.00  0.00     0.019 A 
ATOM      9  C   UNL d   1      53.816  32.686  53.413  0.00  0.00     0.021 A 
ATOM     10  C   UNL d   1      53.776  33.656  54.460  0.00  0.00     0.002 A 
ATOM     11  C   UNL d   1      54.164  33.046  54.078  0.00  0.00     0.002 A 
ATOM     12  O   UNL d   1      51.553  34.789  54.023  0.00  0.00    -0.245 OA
ATOM     13  C   UNL d   1      50.164  34.930  53.120  0.00  0.00     0.085 A 
ATOM     14  C   UNL d   1      50.592  33.870  52.268  0.00  0.00     0.085 A 
ATOM     15  C   UNL d   1      54.117  34.023  55.127  0.00  0.00     0.000 C 
ATOM     16  C   UNL d   1      54.913  32.781  54.355  0.00  0.00     0.000 C 
ATOM     17  C   UNL d   1      49.472  35.004  52.675  0.00  0.00     0.019 A 
ATOM     18  C   UNL d   1      49.894  33.945  51.820  0.00  0.00     0.019 A 
ATOM     19  C   UNL d   1      49.339  34.521  52.036  0.00  0.00     0.003 A 
ENDROOT
TORSDOF 0
ENDMDL
