MODEL 1
REMARK VINA RESULT:     -10.3      0.000      0.000
REMARK  2 active torsions:
REMARK  status: ('A' for Active; 'I' for Inactive)
REMARK    1  A    between atoms: C_8  and  C_1 
REMARK    2  A    between atoms: C_7  and  C_2 
ROOT
ATOM      1  C   UNL d   1     -48.745  13.358  22.896  0.00  0.00     0.066 A 
ATOM      2  C   UNL d   1     -48.116  13.882  22.804  0.00  0.00     0.174 A 
ATOM      3  C   UNL d   1     -48.615  12.573  23.133  0.00  0.00     0.199 A 
ATOM      4  O   UNL d   1     -47.340  13.622  22.949  0.00  0.00    -0.303 OA
ATOM      5  C   UNL d   1     -47.832  12.331  23.273  0.00  0.00     0.062 A 
ATOM      6  C   UNL d   1     -47.211  12.845  23.183  0.00  0.00     0.106 A 
ATOM      7  C   UNL d   1     -46.429  12.600  23.324  0.00  0.00     0.067 A 
ATOM      8  C   UNL d   1     -47.688  11.541  23.513  0.00  0.00     0.009 A 
ATOM      9  O   UNL d   1     -49.263  12.052  23.223  0.00  0.00    -0.286 OA
ATOM     10  C   UNL d   1     -46.295  11.817  23.561  0.00  0.00     0.198 A 
ATOM     11  C   UNL d   1     -46.930  11.288  23.654  0.00  0.00     0.042 A 
ATOM     12  O   UNL d   1     -45.535  11.579  23.698  0.00  0.00    -0.286 OA
ENDROOT
BRANCH   1  13
ATOM     13  C   UNL d   1     -49.508  13.589  22.761  0.00  0.00     0.005 A 
ATOM     14  C   UNL d   1     -49.889  13.429  22.062  0.00  0.00     0.000 A 
ATOM     15  C   UNL d   1     -49.533  13.024  21.446  0.00  0.00     0.000 C 
ATOM     16  C   UNL d   1     -50.673  13.670  21.930  0.00  0.00     0.000 A 
ATOM     17  C   UNL d   1     -51.062  14.079  22.527  0.00  0.00     0.000 A 
ATOM     18  C   UNL d   1     -50.688  14.249  23.242  0.00  0.00     0.000 A 
ATOM     19  C   UNL d   1     -49.918  14.006  23.358  0.00  0.00     0.000 A 
ENDBRANCH   1  13
BRANCH   2  20
ATOM     20  C   UNL d   1     -48.257  14.662  22.568  0.00  0.00     0.440 C 
ATOM     21  F   UNL d   1     -48.383  15.176  23.131  0.00  0.00    -0.164 F 
ATOM     22  F   UNL d   1     -48.402  15.452  22.391  0.00  0.00    -0.164 F 
ATOM     23  F   UNL d   1     -48.258  14.878  21.706  0.00  0.00    -0.164 F 
ENDBRANCH   2  20
TORSDOF 2
ENDMDL
MODEL 2
REMARK VINA RESULT:      -9.1      1.740      3.777
REMARK  2 active torsions:
REMARK  status: ('A' for Active; 'I' for Inactive)
REMARK    1  A    between atoms: C_8  and  C_1 
REMARK    2  A    between atoms: C_7  and  C_2 
ROOT
ATOM      1  C   UNL d   1     -48.156  13.184  22.751  0.00  0.00     0.066 A 
ATOM      2  C   UNL d   1     -48.788  12.786  22.404  0.00  0.00     0.174 A 
ATOM      3  C   UNL d   1     -48.223  13.982  22.971  0.00  0.00     0.199 A 
ATOM      4  O   UNL d   1     -49.503  13.188  22.270  0.00  0.00    -0.303 OA
ATOM      5  C   UNL d   1     -48.946  14.368  22.830  0.00  0.00     0.062 A 
ATOM      6  C   UNL d   1     -49.570  13.978  22.488  0.00  0.00     0.106 A 
ATOM      7  C   UNL d   1     -50.292  14.366  22.348  0.00  0.00     0.067 A 
ATOM      8  C   UNL d   1     -49.026  15.173  23.047  0.00  0.00     0.009 A 
ATOM      9  O   UNL d   1     -47.573  14.373  23.323  0.00  0.00    -0.286 OA
ATOM     10  C   UNL d   1     -50.363  15.163  22.566  0.00  0.00     0.198 A 
ATOM     11  C   UNL d   1     -49.725  15.565  22.917  0.00  0.00     0.042 A 
ATOM     12  O   UNL d   1     -51.064  15.540  22.430  0.00  0.00    -0.286 OA
ENDROOT
BRANCH   1  13
ATOM     13  C   UNL d   1     -47.451  12.813  22.890  0.00  0.00     0.005 A 
ATOM     14  C   UNL d   1     -46.801  12.933  22.419  0.00  0.00     0.000 A 
ATOM     15  C   UNL d   1     -46.808  13.436  21.773  0.00  0.00     0.000 C 
ATOM     16  C   UNL d   1     -46.080  12.548  22.569  0.00  0.00     0.000 A 
ATOM     17  C   UNL d   1     -46.036  12.036  23.210  0.00  0.00     0.000 A 
ATOM     18  C   UNL d   1     -46.688  11.904  23.697  0.00  0.00     0.000 A 
ATOM     19  C   UNL d   1     -47.389  12.288  23.538  0.00  0.00     0.000 A 
ENDBRANCH   1  13
BRANCH   2  20
ATOM     20  C   UNL d   1     -48.711  11.991  22.189  0.00  0.00     0.440 C 
ATOM     21  F   UNL d   1     -48.504  11.850  21.458  0.00  0.00    -0.164 F 
ATOM     22  F   UNL d   1     -48.619  11.219  21.920  0.00  0.00    -0.164 F 
ATOM     23  F   UNL d   1     -48.862  11.348  22.782  0.00  0.00    -0.164 F 
ENDBRANCH   2  20
TORSDOF 2
ENDMDL
MODEL 3
REMARK VINA RESULT:      -9.1      1.492      1.909
REMARK  2 active torsions:
REMARK  status: ('A' for Active; 'I' for Inactive)
REMARK    1  A    between atoms: C_8  and  C_1 
REMARK    2  A    between atoms: C_7  and  C_2 
ROOT
ATOM      1  C   UNL d   1     -49.003  13.380  22.840  0.00  0.00     0.066 A 
ATOM      2  C   UNL d   1     -49.026  12.570  22.994  0.00  0.00     0.174 A 
ATOM      3  C   UNL d   1     -48.281  13.789  22.816  0.00  0.00     0.199 A 
ATOM      4  O   UNL d   1     -48.317  12.157  23.126  0.00  0.00    -0.303 OA
ATOM      5  C   UNL d   1     -47.583  13.359  22.951  0.00  0.00     0.062 A 
ATOM      6  C   UNL d   1     -47.602  12.562  23.102  0.00  0.00     0.106 A 
ATOM      7  C   UNL d   1     -46.902  12.135  23.236  0.00  0.00     0.067 A 
ATOM      8  C   UNL d   1     -46.848  13.761  22.929  0.00  0.00     0.009 A 
ATOM      9  O   UNL d   1     -48.274  14.610  22.659  0.00  0.00    -0.286 OA
ATOM     10  C   UNL d   1     -46.179  12.540  23.213  0.00  0.00     0.198 A 
ATOM     11  C   UNL d   1     -46.156  13.357  23.058  0.00  0.00     0.042 A 
ATOM     12  O   UNL d   1     -45.498  12.125  23.344  0.00  0.00    -0.286 OA
ENDROOT
BRANCH   1  13
ATOM     13  C   UNL d   1     -49.680  13.801  22.709  0.00  0.00     0.005 A 
ATOM     14  C   UNL d   1     -49.952  13.957  21.960  0.00  0.00     0.000 A 
ATOM     15  C   UNL d   1     -49.564  13.702  21.285  0.00  0.00     0.000 C 
ATOM     16  C   UNL d   1     -50.649  14.392  21.833  0.00  0.00     0.000 A 
ATOM     17  C   UNL d   1     -51.064  14.664  22.487  0.00  0.00     0.000 A 
ATOM     18  C   UNL d   1     -50.801  14.513  23.254  0.00  0.00     0.000 A 
ATOM     19  C   UNL d   1     -50.115  14.086  23.364  0.00  0.00     0.000 A 
ENDBRANCH   1  13
BRANCH   2  20
ATOM     20  C   UNL d   1     -49.750  12.172  23.015  0.00  0.00     0.440 C 
ATOM     21  F   UNL d   1     -50.112  12.150  23.698  0.00  0.00    -0.164 F 
ATOM     22  F   UNL d   1     -50.474  11.789  23.095  0.00  0.00    -0.164 F 
ATOM     23  F   UNL d   1     -50.079  11.795  22.282  0.00  0.00    -0.164 F 
ENDBRANCH   2  20
TORSDOF 2
ENDMDL
