MODEL 1
REMARK VINA RESULT:      13.0      0.000      0.000
REMARK  1 active torsions:
REMARK  status: ('A' for Active; 'I' for Inactive)
REMARK       I    between atoms: C_2  and  N_1 
REMARK    1  A    between atoms: C_4  and  C_2 
ROOT
ATOM      1  N   UNL d   1     -51.512  25.654  33.308  0.00  0.00    -0.272 N 
ATOM      2  C   UNL d   1     -51.435  24.831  33.308  0.00  0.00     0.287 C 
ATOM      3  C   UNL d   1     -50.897  26.206  33.308  0.00  0.00     0.067 A 
ATOM      4  C   UNL d   1     -52.219  26.048  33.308  0.00  0.00     0.083 A 
ATOM      5  O   UNL d   1     -50.683  24.489  33.308  0.00  0.00    -0.264 OA
ATOM      6  C   UNL d   1     -51.224  26.956  33.308  0.00  0.00     0.018 A 
ATOM      7  C   UNL d   1     -52.047  26.867  33.308  0.00  0.00     0.021 A 
ATOM      8  C   UNL d   1     -50.086  26.122  33.308  0.00  0.00     0.018 A 
ATOM      9  C   UNL d   1     -50.747  27.629  33.309  0.00  0.00     0.002 A 
ATOM     10  C   UNL d   1     -49.596  26.786  33.309  0.00  0.00     0.002 A 
ATOM     11  C   UNL d   1     -49.928  27.538  33.309  0.00  0.00     0.000 A 
ENDROOT
BRANCH   2  12
ATOM     12  C   UNL d   1     -52.109  24.349  33.307  0.00  0.00     0.156 A 
ATOM     13  O   UNL d   1     -52.921  24.516  33.309  0.00  0.00    -0.300 OA
ATOM     14  C   UNL d   1     -53.326  23.806  33.308  0.00  0.00     0.123 A 
ATOM     15  C   UNL d   1     -52.784  23.196  33.306  0.00  0.00     0.029 A 
ATOM     16  C   UNL d   1     -52.029  23.523  33.306  0.00  0.00     0.032 A 
ENDBRANCH   2  12
TORSDOF 1
ENDMDL
