MODEL 1
REMARK VINA RESULT:      -2.9      0.000      0.000
REMARK  3 active torsions:
REMARK  status: ('A' for Active; 'I' for Inactive)
REMARK    1  A    between atoms: S_6  and  C_1 
REMARK    2  A    between atoms: C_3  and  C_9 
REMARK       I    between atoms: N_4  and  C_3 
REMARK    3  A    between atoms: C_9  and  S_6 
ROOT
ATOM      1  C   UNL d   1      32.415  17.537 -23.620  0.00  0.00     0.114 A 
ATOM      2  C   UNL d   1      31.752  17.192 -23.961  0.00  0.00     0.042 A 
ATOM      3  N   UNL d   1      32.969  17.064 -23.233  0.00  0.00    -0.217 NA
ATOM      4  N   UNL d   1      32.191  15.901 -23.533  0.00  0.00    -0.224 NA
ATOM      5  C   UNL d   1      32.857  16.245 -23.189  0.00  0.00     0.200 A 
ATOM      6  C   UNL d   1      31.640  16.373 -23.918  0.00  0.00     0.085 A 
ATOM      7  C   UNL d   1      31.198  17.665 -24.348  0.00  0.00     0.004 A 
ATOM      8  C   UNL d   1      30.974  16.029 -24.261  0.00  0.00     0.019 A 
ATOM      9  C   UNL d   1      30.532  17.320 -24.692  0.00  0.00     0.000 A 
ATOM     10  C   UNL d   1      30.420  16.502 -24.648  0.00  0.00     0.002 A 
ENDROOT
BRANCH   1  11
ATOM     11  S   UNL d   1      32.527  18.355 -23.663  0.00  0.00    -0.062 SA
BRANCH  11  12
ATOM     12  C   UNL d   1      32.911  18.753 -23.060  0.00  0.00     0.098 C 
BRANCH  12  13
ATOM     13  C   UNL d   1      33.053  19.564 -23.116  0.00  0.00     0.271 C 
ATOM     14  N   UNL d   1      33.100  20.028 -22.427  0.00  0.00    -0.272 N 
ATOM     15  C   UNL d   1      33.018  19.762 -21.663  0.00  0.00     0.083 A 
ATOM     16  C   UNL d   1      33.238  20.839 -22.401  0.00  0.00     0.083 A 
ATOM     17  C   UNL d   1      33.104  20.406 -21.151  0.00  0.00     0.021 A 
ATOM     18  C   UNL d   1      33.241  21.070 -21.621  0.00  0.00     0.021 A 
ATOM     19  O   UNL d   1      33.148  19.910 -23.847  0.00  0.00    -0.266 OA
ENDBRANCH  12  13
ENDBRANCH  11  12
ENDBRANCH   1  11
TORSDOF 3
ENDMDL
MODEL 2
REMARK VINA RESULT:      -2.9      1.744      2.408
REMARK  3 active torsions:
REMARK  status: ('A' for Active; 'I' for Inactive)
REMARK    1  A    between atoms: S_6  and  C_1 
REMARK    2  A    between atoms: C_3  and  C_9 
REMARK       I    between atoms: N_4  and  C_3 
REMARK    3  A    between atoms: C_9  and  S_6 
ROOT
ATOM      1  C   UNL d   1      33.143  19.294 -23.352  0.00  0.00     0.114 A 
ATOM      2  C   UNL d   1      33.044  18.510 -23.579  0.00  0.00     0.042 A 
ATOM      3  N   UNL d   1      33.241  19.876 -23.929  0.00  0.00    -0.217 NA
ATOM      4  N   UNL d   1      33.140  18.884 -24.955  0.00  0.00    -0.224 NA
ATOM      5  C   UNL d   1      33.240  19.671 -24.730  0.00  0.00     0.200 A 
ATOM      6  C   UNL d   1      33.043  18.305 -24.380  0.00  0.00     0.085 A 
ATOM      7  C   UNL d   1      32.946  17.928 -23.003  0.00  0.00     0.004 A 
ATOM      8  C   UNL d   1      32.943  17.518 -24.605  0.00  0.00     0.019 A 
ATOM      9  C   UNL d   1      32.847  17.140 -23.229  0.00  0.00     0.000 A 
ATOM     10  C   UNL d   1      32.845  16.935 -24.030  0.00  0.00     0.002 A 
ENDROOT
BRANCH   1  11
ATOM     11  S   UNL d   1      33.144  19.498 -22.552  0.00  0.00    -0.062 SA
BRANCH  11  12
ATOM     12  C   UNL d   1      33.086  20.283 -22.325  0.00  0.00     0.098 C 
BRANCH  12  13
ATOM     13  C   UNL d   1      33.060  20.488 -21.526  0.00  0.00     0.271 C 
ATOM     14  N   UNL d   1      32.851  21.260 -21.299  0.00  0.00    -0.272 N 
ATOM     15  C   UNL d   1      32.658  21.871 -21.801  0.00  0.00     0.083 A 
ATOM     16  C   UNL d   1      32.803  21.539 -20.526  0.00  0.00     0.083 A 
ATOM     17  C   UNL d   1      32.488  22.540 -21.344  0.00  0.00     0.021 A 
ATOM     18  C   UNL d   1      32.581  22.322 -20.554  0.00  0.00     0.021 A 
ATOM     19  O   UNL d   1      33.239  19.932 -20.958  0.00  0.00    -0.266 OA
ENDBRANCH  12  13
ENDBRANCH  11  12
ENDBRANCH   1  11
TORSDOF 3
ENDMDL
MODEL 3
REMARK VINA RESULT:      -2.9      1.747      4.977
REMARK  3 active torsions:
REMARK  status: ('A' for Active; 'I' for Inactive)
REMARK    1  A    between atoms: S_6  and  C_1 
REMARK    2  A    between atoms: C_3  and  C_9 
REMARK       I    between atoms: N_4  and  C_3 
REMARK    3  A    between atoms: C_9  and  S_6 
ROOT
ATOM      1  C   UNL d   1      33.094  21.314 -22.169  0.00  0.00     0.114 A 
ATOM      2  C   UNL d   1      32.881  21.830 -21.565  0.00  0.00     0.042 A 
ATOM      3  N   UNL d   1      33.239  21.609 -22.926  0.00  0.00    -0.217 NA
ATOM      4  N   UNL d   1      32.955  22.935 -22.469  0.00  0.00    -0.224 NA
ATOM      5  C   UNL d   1      33.169  22.419 -23.076  0.00  0.00     0.200 A 
ATOM      6  C   UNL d   1      32.812  22.641 -21.715  0.00  0.00     0.085 A 
ATOM      7  C   UNL d   1      32.737  21.536 -20.808  0.00  0.00     0.004 A 
ATOM      8  C   UNL d   1      32.598  23.156 -21.108  0.00  0.00     0.019 A 
ATOM      9  C   UNL d   1      32.523  22.052 -20.201  0.00  0.00     0.000 A 
ATOM     10  C   UNL d   1      32.454  22.863 -20.351  0.00  0.00     0.002 A 
ENDROOT
BRANCH   1  11
ATOM     11  S   UNL d   1      33.164  20.505 -22.019  0.00  0.00    -0.062 SA
BRANCH  11  12
ATOM     12  C   UNL d   1      33.164  19.968 -22.636  0.00  0.00     0.098 C 
BRANCH  12  13
ATOM     13  C   UNL d   1      33.131  19.156 -22.487  0.00  0.00     0.271 C 
ATOM     14  N   UNL d   1      32.991  18.623 -23.109  0.00  0.00    -0.272 N 
ATOM     15  C   UNL d   1      32.875  18.818 -23.891  0.00  0.00     0.083 A 
ATOM     16  C   UNL d   1      32.944  17.804 -23.041  0.00  0.00     0.083 A 
ATOM     17  C   UNL d   1      32.755  18.120 -24.319  0.00  0.00     0.021 A 
ATOM     18  C   UNL d   1      32.801  17.497 -23.780  0.00  0.00     0.021 A 
ATOM     19  O   UNL d   1      33.237  18.879 -21.729  0.00  0.00    -0.266 OA
ENDBRANCH  12  13
ENDBRANCH  11  12
ENDBRANCH   1  11
TORSDOF 3
ENDMDL
MODEL 4
REMARK VINA RESULT:      -2.7      1.327      1.869
REMARK  3 active torsions:
REMARK  status: ('A' for Active; 'I' for Inactive)
REMARK    1  A    between atoms: S_6  and  C_1 
REMARK    2  A    between atoms: C_3  and  C_9 
REMARK       I    between atoms: N_4  and  C_3 
REMARK    3  A    between atoms: C_9  and  S_6 
ROOT
ATOM      1  C   UNL d   1      30.878  16.710 -23.969  0.00  0.00     0.114 A 
ATOM      2  C   UNL d   1      30.065  16.669 -24.078  0.00  0.00     0.042 A 
ATOM      3  N   UNL d   1      31.263  16.122 -23.536  0.00  0.00    -0.217 NA
ATOM      4  N   UNL d   1      30.014  15.456 -23.324  0.00  0.00    -0.224 NA
ATOM      5  C   UNL d   1      30.831  15.495 -23.214  0.00  0.00     0.200 A 
ATOM      6  C   UNL d   1      29.633  16.042 -23.755  0.00  0.00     0.085 A 
ATOM      7  C   UNL d   1      29.680  17.258 -24.510  0.00  0.00     0.004 A 
ATOM      8  C   UNL d   1      28.816  16.004 -23.865  0.00  0.00     0.019 A 
ATOM      9  C   UNL d   1      28.863  17.218 -24.620  0.00  0.00     0.000 A 
ATOM     10  C   UNL d   1      28.431  16.591 -24.298  0.00  0.00     0.002 A 
ENDROOT
BRANCH   1  11
ATOM     11  S   UNL d   1      31.310  17.336 -24.291  0.00  0.00    -0.062 SA
BRANCH  11  12
ATOM     12  C   UNL d   1      31.922  17.678 -23.869  0.00  0.00     0.098 C 
BRANCH  12  13
ATOM     13  C   UNL d   1      32.323  18.336 -24.167  0.00  0.00     0.271 C 
ATOM     14  N   UNL d   1      32.630  18.908 -23.648  0.00  0.00    -0.272 N 
ATOM     15  C   UNL d   1      32.581  18.894 -22.836  0.00  0.00     0.083 A 
ATOM     16  C   UNL d   1      33.039  19.588 -23.867  0.00  0.00     0.083 A 
ATOM     17  C   UNL d   1      32.959  19.568 -22.539  0.00  0.00     0.021 A 
ATOM     18  C   UNL d   1      33.240  19.991 -23.190  0.00  0.00     0.021 A 
ATOM     19  O   UNL d   1      32.416  18.424 -24.971  0.00  0.00    -0.266 OA
ENDBRANCH  12  13
ENDBRANCH  11  12
ENDBRANCH   1  11
TORSDOF 3
ENDMDL
MODEL 5
REMARK VINA RESULT:      -2.5      1.393      4.611
REMARK  3 active torsions:
REMARK  status: ('A' for Active; 'I' for Inactive)
REMARK    1  A    between atoms: S_6  and  C_1 
REMARK    2  A    between atoms: C_3  and  C_9 
REMARK       I    between atoms: N_4  and  C_3 
REMARK    3  A    between atoms: C_9  and  S_6 
ROOT
ATOM      1  C   UNL d   1      33.148  20.576 -21.810  0.00  0.00     0.114 A 
ATOM      2  C   UNL d   1      33.057  21.373 -21.630  0.00  0.00     0.042 A 
ATOM      3  N   UNL d   1      33.240  20.028 -21.200  0.00  0.00    -0.217 NA
ATOM      4  N   UNL d   1      33.149  21.080 -20.235  0.00  0.00    -0.224 NA
ATOM      5  C   UNL d   1      33.241  20.280 -20.412  0.00  0.00     0.200 A 
ATOM      6  C   UNL d   1      33.057  21.625 -20.842  0.00  0.00     0.085 A 
ATOM      7  C   UNL d   1      32.965  21.921 -22.240  0.00  0.00     0.004 A 
ATOM      8  C   UNL d   1      32.965  22.425 -20.664  0.00  0.00     0.019 A 
ATOM      9  C   UNL d   1      32.873  22.722 -22.061  0.00  0.00     0.000 A 
ATOM     10  C   UNL d   1      32.873  22.974 -21.273  0.00  0.00     0.002 A 
ENDROOT
BRANCH   1  11
ATOM     11  S   UNL d   1      33.148  20.325 -22.597  0.00  0.00    -0.062 SA
BRANCH  11  12
ATOM     12  C   UNL d   1      32.969  19.548 -22.783  0.00  0.00     0.098 C 
BRANCH  12  13
ATOM     13  C   UNL d   1      32.991  19.289 -23.567  0.00  0.00     0.271 C 
ATOM     14  N   UNL d   1      32.758  18.513 -23.756  0.00  0.00    -0.272 N 
ATOM     15  C   UNL d   1      32.497  17.949 -23.231  0.00  0.00     0.083 A 
ATOM     16  C   UNL d   1      32.752  18.182 -24.510  0.00  0.00     0.083 A 
ATOM     17  C   UNL d   1      32.325  17.258 -23.654  0.00  0.00     0.021 A 
ATOM     18  C   UNL d   1      32.487  17.416 -24.447  0.00  0.00     0.021 A 
ATOM     19  O   UNL d   1      33.240  19.793 -24.155  0.00  0.00    -0.266 OA
ENDBRANCH  12  13
ENDBRANCH  11  12
ENDBRANCH   1  11
TORSDOF 3
ENDMDL
MODEL 6
REMARK VINA RESULT:      -2.1      2.223      4.320
REMARK  3 active torsions:
REMARK  status: ('A' for Active; 'I' for Inactive)
REMARK    1  A    between atoms: S_6  and  C_1 
REMARK    2  A    between atoms: C_3  and  C_9 
REMARK       I    between atoms: N_4  and  C_3 
REMARK    3  A    between atoms: C_9  and  S_6 
ROOT
ATOM      1  C   UNL d   1      31.721  16.594 -24.013  0.00  0.00     0.114 A 
ATOM      2  C   UNL d   1      32.096  17.325 -24.051  0.00  0.00     0.042 A 
ATOM      3  N   UNL d   1      32.107  15.955 -23.662  0.00  0.00    -0.217 NA
ATOM      4  N   UNL d   1      33.241  16.785 -23.389  0.00  0.00    -0.224 NA
ATOM      5  C   UNL d   1      32.867  16.050 -23.350  0.00  0.00     0.200 A 
ATOM      6  C   UNL d   1      32.856  17.420 -23.739  0.00  0.00     0.085 A 
ATOM      7  C   UNL d   1      31.710  17.964 -24.402  0.00  0.00     0.004 A 
ATOM      8  C   UNL d   1      33.229  18.154 -23.778  0.00  0.00     0.019 A 
ATOM      9  C   UNL d   1      32.084  18.699 -24.441  0.00  0.00     0.000 A 
ATOM     10  C   UNL d   1      32.844  18.794 -24.129  0.00  0.00     0.002 A 
ENDROOT
BRANCH   1  11
ATOM     11  S   UNL d   1      30.962  16.500 -24.325  0.00  0.00    -0.062 SA
BRANCH  11  12
ATOM     12  C   UNL d   1      30.405  16.051 -23.928  0.00  0.00     0.098 C 
BRANCH  12  13
ATOM     13  C   UNL d   1      29.718  15.798 -24.312  0.00  0.00     0.271 C 
ATOM     14  N   UNL d   1      28.998  15.761 -23.898  0.00  0.00    -0.272 N 
ATOM     15  C   UNL d   1      28.884  15.956 -23.116  0.00  0.00     0.083 A 
ATOM     16  C   UNL d   1      28.275  15.521 -24.209  0.00  0.00     0.083 A 
ATOM     17  C   UNL d   1      28.086  15.838 -22.931  0.00  0.00     0.021 A 
ATOM     18  C   UNL d   1      27.718  15.568 -23.618  0.00  0.00     0.021 A 
ATOM     19  O   UNL d   1      29.748  15.585 -25.097  0.00  0.00    -0.266 OA
ENDBRANCH  12  13
ENDBRANCH  11  12
ENDBRANCH   1  11
TORSDOF 3
ENDMDL
MODEL 7
REMARK VINA RESULT:      -2.0      2.815      6.079
REMARK  3 active torsions:
REMARK  status: ('A' for Active; 'I' for Inactive)
REMARK    1  A    between atoms: S_6  and  C_1 
REMARK    2  A    between atoms: C_3  and  C_9 
REMARK       I    between atoms: N_4  and  C_3 
REMARK    3  A    between atoms: C_9  and  S_6 
ROOT
ATOM      1  C   UNL d   1      32.815  22.222 -20.222  0.00  0.00     0.114 A 
ATOM      2  C   UNL d   1      32.825  22.576 -19.480  0.00  0.00     0.042 A 
ATOM      3  N   UNL d   1      32.410  22.586 -20.842  0.00  0.00    -0.217 NA
ATOM      4  N   UNL d   1      32.028  23.655 -19.971  0.00  0.00    -0.224 NA
ATOM      5  C   UNL d   1      32.017  23.303 -20.717  0.00  0.00     0.200 A 
ATOM      6  C   UNL d   1      32.431  23.292 -19.355  0.00  0.00     0.085 A 
ATOM      7  C   UNL d   1      33.230  22.212 -18.860  0.00  0.00     0.004 A 
ATOM      8  C   UNL d   1      32.442  23.644 -18.609  0.00  0.00     0.019 A 
ATOM      9  C   UNL d   1      33.241  22.565 -18.114  0.00  0.00     0.000 A 
ATOM     10  C   UNL d   1      32.847  23.281 -17.989  0.00  0.00     0.002 A 
ENDROOT
BRANCH   1  11
ATOM     11  S   UNL d   1      33.208  21.507 -20.347  0.00  0.00    -0.062 SA
BRANCH  11  12
ATOM     12  C   UNL d   1      33.195  21.150 -21.084  0.00  0.00     0.098 C 
BRANCH  12  13
ATOM     13  C   UNL d   1      33.215  20.328 -21.153  0.00  0.00     0.271 C 
ATOM     14  N   UNL d   1      33.221  19.972 -21.905  0.00  0.00    -0.272 N 
ATOM     15  C   UNL d   1      33.211  20.361 -22.619  0.00  0.00     0.083 A 
ATOM     16  C   UNL d   1      33.240  19.163 -22.055  0.00  0.00     0.083 A 
ATOM     17  C   UNL d   1      33.223  19.796 -23.224  0.00  0.00     0.021 A 
ATOM     18  C   UNL d   1      33.241  19.056 -22.861  0.00  0.00     0.021 A 
ATOM     19  O   UNL d   1      33.227  19.864 -20.484  0.00  0.00    -0.266 OA
ENDBRANCH  12  13
ENDBRANCH  11  12
ENDBRANCH   1  11
TORSDOF 3
ENDMDL
MODEL 8
REMARK VINA RESULT:      -1.9      1.145      4.073
REMARK  3 active torsions:
REMARK  status: ('A' for Active; 'I' for Inactive)
REMARK    1  A    between atoms: S_6  and  C_1 
REMARK    2  A    between atoms: C_3  and  C_9 
REMARK       I    between atoms: N_4  and  C_3 
REMARK    3  A    between atoms: C_9  and  S_6 
ROOT
ATOM      1  C   UNL d   1      33.064  18.974 -23.135  0.00  0.00     0.114 A 
ATOM      2  C   UNL d   1      33.122  19.714 -23.488  0.00  0.00     0.042 A 
ATOM      3  N   UNL d   1      33.066  18.913 -22.312  0.00  0.00    -0.217 NA
ATOM      4  N   UNL d   1      33.184  20.335 -22.203  0.00  0.00    -0.224 NA
ATOM      5  C   UNL d   1      33.126  19.594 -21.846  0.00  0.00     0.200 A 
ATOM      6  C   UNL d   1      33.182  20.395 -23.022  0.00  0.00     0.085 A 
ATOM      7  C   UNL d   1      33.119  19.775 -24.311  0.00  0.00     0.004 A 
ATOM      8  C   UNL d   1      33.240  21.136 -23.379  0.00  0.00     0.019 A 
ATOM      9  C   UNL d   1      33.177  20.517 -24.667  0.00  0.00     0.000 A 
ATOM     10  C   UNL d   1      33.238  21.197 -24.201  0.00  0.00     0.002 A 
ENDROOT
BRANCH   1  11
ATOM     11  S   UNL d   1      33.003  18.295 -23.600  0.00  0.00    -0.062 SA
BRANCH  11  12
ATOM     12  C   UNL d   1      32.467  17.707 -23.407  0.00  0.00     0.098 C 
BRANCH  12  13
ATOM     13  C   UNL d   1      32.487  16.977 -23.793  0.00  0.00     0.271 C 
ATOM     14  N   UNL d   1      31.800  16.511 -23.841  0.00  0.00    -0.272 N 
ATOM     15  C   UNL d   1      31.071  16.700 -23.536  0.00  0.00     0.083 A 
ATOM     16  C   UNL d   1      31.741  15.776 -24.207  0.00  0.00     0.083 A 
ATOM     17  C   UNL d   1      30.547  16.083 -23.708  0.00  0.00     0.021 A 
ATOM     18  C   UNL d   1      30.975  15.515 -24.126  0.00  0.00     0.021 A 
ATOM     19  O   UNL d   1      33.182  16.714 -24.127  0.00  0.00    -0.266 OA
ENDBRANCH  12  13
ENDBRANCH  11  12
ENDBRANCH   1  11
TORSDOF 3
ENDMDL
MODEL 9
REMARK VINA RESULT:      -0.7      2.883      4.116
REMARK  3 active torsions:
REMARK  status: ('A' for Active; 'I' for Inactive)
REMARK    1  A    between atoms: S_6  and  C_1 
REMARK    2  A    between atoms: C_3  and  C_9 
REMARK       I    between atoms: N_4  and  C_3 
REMARK    3  A    between atoms: C_9  and  S_6 
ROOT
ATOM      1  C   UNL d   1      29.347  16.973 -24.379  0.00  0.00     0.114 A 
ATOM      2  C   UNL d   1      28.723  16.725 -23.905  0.00  0.00     0.042 A 
ATOM      3  N   UNL d   1      29.375  17.756 -24.641  0.00  0.00    -0.217 NA
ATOM      4  N   UNL d   1      28.152  18.034 -23.952  0.00  0.00    -0.224 NA
ATOM      5  C   UNL d   1      28.777  18.286 -24.428  0.00  0.00     0.200 A 
ATOM      6  C   UNL d   1      28.125  17.256 -23.692  0.00  0.00     0.085 A 
ATOM      7  C   UNL d   1      28.695  15.943 -23.643  0.00  0.00     0.004 A 
ATOM      8  C   UNL d   1      27.500  17.004 -23.216  0.00  0.00     0.019 A 
ATOM      9  C   UNL d   1      28.069  15.692 -23.167  0.00  0.00     0.000 A 
ATOM     10  C   UNL d   1      27.472  16.223 -22.954  0.00  0.00     0.002 A 
ENDROOT
BRANCH   1  11
ATOM     11  S   UNL d   1      29.944  16.444 -24.592  0.00  0.00    -0.062 SA
BRANCH  11  12
ATOM     12  C   UNL d   1      30.722  16.593 -24.388  0.00  0.00     0.098 C 
BRANCH  12  13
ATOM     13  C   UNL d   1      31.310  16.032 -24.535  0.00  0.00     0.271 C 
ATOM     14  N   UNL d   1      32.025  16.055 -24.111  0.00  0.00    -0.272 N 
ATOM     15  C   UNL d   1      32.224  16.595 -23.537  0.00  0.00     0.083 A 
ATOM     16  C   UNL d   1      32.655  15.533 -24.201  0.00  0.00     0.083 A 
ATOM     17  C   UNL d   1      32.983  16.416 -23.261  0.00  0.00     0.021 A 
ATOM     18  C   UNL d   1      33.241  15.754 -23.681  0.00  0.00     0.021 A 
ATOM     19  O   UNL d   1      31.188  15.455 -25.097  0.00  0.00    -0.266 OA
ENDBRANCH  12  13
ENDBRANCH  11  12
ENDBRANCH   1  11
TORSDOF 3
ENDMDL
