MODEL 1
REMARK VINA RESULT:      11.2      0.000      0.000
REMARK  7 active torsions:
REMARK  status: ('A' for Active; 'I' for Inactive)
REMARK    1  A    between atoms: S_7  and  C_1 
REMARK    2  A    between atoms: C_6  and  C_8 
REMARK       I    between atoms: N_10  and  C_6 
REMARK    3  A    between atoms: C_13  and  S_7 
REMARK    4  A    between atoms: C_21  and  N_10 
REMARK    5  A    between atoms: C_14  and  C_13 
REMARK    6  A    between atoms: C_17  and  C_21 
REMARK    7  A    between atoms: C_22  and  C_17 
ROOT
ATOM      1  C   UNL d   1      45.855 -13.707  44.439  0.00  0.00     0.058 A 
ATOM      2  C   UNL d   1      46.352 -14.180  43.998  0.00  0.00     0.005 A 
ATOM      3  C   UNL d   1      45.235 -14.062  44.880  0.00  0.00     0.005 A 
ATOM      4  C   UNL d   1      45.635 -15.355  44.420  0.00  0.00     0.007 A 
ATOM      5  C   UNL d   1      45.129 -14.855  44.871  0.00  0.00     0.001 A 
ATOM      6  C   UNL d   1      46.243 -14.993  43.988  0.00  0.00     0.001 A 
ENDROOT
BRANCH   4   7
ATOM      7  C   UNL d   1      45.529 -16.148  44.410  0.00  0.00     0.038 C 
BRANCH   7   8
ATOM      8  S   UNL d   1      46.167 -16.663  44.602  0.00  0.00    -0.048 SA
BRANCH   8   9
ATOM      9  C   UNL d   1      46.192 -17.433  44.288  0.00  0.00     0.194 A 
ATOM     10  N   UNL d   1      46.194 -17.620  43.484  0.00  0.00    -0.220 NA
ATOM     11  C   UNL d   1      46.222 -18.435  43.422  0.00  0.00     0.101 A 
ATOM     12  C   UNL d   1      46.236 -18.940  42.787  0.00  0.00     0.021 A 
ATOM     13  C   UNL d   1      46.238 -18.747  44.187  0.00  0.00     0.101 A 
ATOM     14  C   UNL d   1      46.264 -19.724  42.897  0.00  0.00     0.002 A 
ATOM     15  C   UNL d   1      46.280 -20.035  43.662  0.00  0.00     0.002 A 
ATOM     16  C   UNL d   1      46.268 -19.563  44.318  0.00  0.00     0.021 A 
ATOM     17  N   UNL d   1      46.219 -18.120  44.714  0.00  0.00    -0.220 NA
ENDBRANCH   8   9
ENDBRANCH   7   8
ENDBRANCH   4   7
BRANCH   1  18
ATOM     18  C   UNL d   1      45.990 -12.890  44.429  0.00  0.00     0.279 C 
ATOM     19  O   UNL d   1      46.544 -12.568  44.951  0.00  0.00    -0.265 OA
ATOM     20  N   UNL d   1      45.580 -12.399  43.909  0.00  0.00    -0.206 NA
BRANCH  20  21
ATOM     21  C   UNL d   1      45.027 -12.715  43.388  0.00  0.00     0.106 C 
BRANCH  21  22
ATOM     22  C   UNL d   1      44.843 -12.316  42.683  0.00  0.00     0.066 C 
BRANCH  22  23
ATOM     23  C   UNL d   1      44.061 -12.175  42.486  0.00  0.00     0.236 C 
ATOM     24  O   UNL d   1      43.455 -12.373  43.016  0.00  0.00    -0.283 OA
ENDBRANCH  22  23
ENDBRANCH  21  22
ENDBRANCH  20  21
ENDBRANCH   1  18
TORSDOF 7
ENDMDL
