MODEL 1
REMARK VINA RESULT:       8.6      0.000      0.000
REMARK  7 active torsions:
REMARK  status: ('A' for Active; 'I' for Inactive)
REMARK    1  A    between atoms: C_5  and  N_1 
REMARK    2  A    between atoms: C_2  and  N_6 
REMARK    3  A    between atoms: N_16  and  C_2 
REMARK    4  A    between atoms: C_3  and  C_9 
REMARK       I    between atoms: N_4  and  C_3 
REMARK    5  A    between atoms: N_6  and  N_4 
REMARK    6  A    between atoms: C_19  and  N_16 
REMARK    7  A    between atoms: C_17  and  C_19 
ROOT
ATOM      1  C   UNL d   1      45.251 -15.892  44.765  0.00  0.00     0.297 C 
ATOM      2  N   UNL d   1      45.867 -16.435  44.681  0.00  0.00    -0.103 NA
ATOM      3  O   UNL d   1      44.482 -16.157  44.915  0.00  0.00    -0.264 OA
ENDROOT
BRANCH   1   4
ATOM      4  C   UNL d   1      45.419 -15.068  44.696  0.00  0.00     0.059 A 
ATOM      5  C   UNL d   1      46.190 -14.786  44.771  0.00  0.00     0.006 A 
ATOM      6  C   UNL d   1      46.340 -13.980  44.701  0.00  0.00     0.024 A 
ATOM      7  C   UNL d   1      45.724 -13.453  44.558  0.00  0.00     0.127 A 
ATOM      8  C   UNL d   1      44.953 -13.735  44.484  0.00  0.00     0.024 A 
ATOM      9  C   UNL d   1      44.796 -14.544  44.552  0.00  0.00     0.006 A 
BRANCH   7  10
ATOM     10  N   UNL d   1      45.895 -12.648  44.492  0.00  0.00    -0.114 N 
ATOM     11  O   UNL d   1      45.437 -12.178  43.982  0.00  0.00    -0.532 OA
ATOM     12  O   UNL d   1      46.508 -12.304  44.920  0.00  0.00    -0.532 OA
ENDBRANCH   7  10
ENDBRANCH   1   4
BRANCH   2  13
ATOM     13  N   UNL d   1      45.713 -17.244  44.746  0.00  0.00    -0.114 NA
BRANCH  13  14
ATOM     14  C   UNL d   1      46.210 -17.784  44.377  0.00  0.00     0.241 C 
ATOM     15  S   UNL d   1      46.647 -18.341  44.835  0.00  0.00    -0.035 SA
BRANCH  14  16
ATOM     16  N   UNL d   1      46.280 -17.778  43.555  0.00  0.00    -0.215 NA
BRANCH  16  17
ATOM     17  C   UNL d   1      46.624 -18.416  43.175  0.00  0.00     0.102 C 
BRANCH  17  18
ATOM     18  C   UNL d   1      46.306 -18.686  42.463  0.00  0.00     0.021 C 
ATOM     19  C   UNL d   1      46.615 -19.362  42.106  0.00  0.00     0.002 C 
ENDBRANCH  17  18
ENDBRANCH  16  17
ENDBRANCH  14  16
ENDBRANCH  13  14
ENDBRANCH   2  13
TORSDOF 7
ENDMDL
MODEL 2
REMARK VINA RESULT:      11.6      0.891      1.095
REMARK  7 active torsions:
REMARK  status: ('A' for Active; 'I' for Inactive)
REMARK    1  A    between atoms: C_5  and  N_1 
REMARK    2  A    between atoms: C_2  and  N_6 
REMARK    3  A    between atoms: N_16  and  C_2 
REMARK    4  A    between atoms: C_3  and  C_9 
REMARK       I    between atoms: N_4  and  C_3 
REMARK    5  A    between atoms: N_6  and  N_4 
REMARK    6  A    between atoms: C_19  and  N_16 
REMARK    7  A    between atoms: C_17  and  C_19 
ROOT
ATOM      1  C   UNL d   1      45.534 -16.475  44.420  0.00  0.00     0.297 C 
ATOM      2  N   UNL d   1      46.051 -16.968  44.007  0.00  0.00    -0.103 NA
ATOM      3  O   UNL d   1      44.989 -16.797  44.952  0.00  0.00    -0.264 OA
ENDROOT
BRANCH   1   4
ATOM      4  C   UNL d   1      45.571 -15.641  44.290  0.00  0.00     0.059 A 
ATOM      5  C   UNL d   1      45.091 -15.125  44.718  0.00  0.00     0.006 A 
ATOM      6  C   UNL d   1      45.138 -14.315  44.581  0.00  0.00     0.024 A 
ATOM      7  C   UNL d   1      45.660 -14.017  44.020  0.00  0.00     0.127 A 
ATOM      8  C   UNL d   1      46.140 -14.533  43.592  0.00  0.00     0.024 A 
ATOM      9  C   UNL d   1      46.098 -15.348  43.725  0.00  0.00     0.006 A 
BRANCH   7  10
ATOM     10  N   UNL d   1      45.692 -13.201  43.897  0.00  0.00    -0.114 N 
ATOM     11  O   UNL d   1      45.578 -12.903  43.130  0.00  0.00    -0.532 OA
ATOM     12  O   UNL d   1      45.834 -12.681  44.519  0.00  0.00    -0.532 OA
ENDBRANCH   7  10
ENDBRANCH   1   4
BRANCH   2  13
ATOM     13  N   UNL d   1      46.023 -17.784  44.127  0.00  0.00    -0.114 NA
BRANCH  13  14
ATOM     14  C   UNL d   1      46.308 -18.291  43.546  0.00  0.00     0.241 C 
ATOM     15  S   UNL d   1      46.560 -19.069  43.748  0.00  0.00    -0.035 SA
BRANCH  14  16
ATOM     16  N   UNL d   1      46.348 -18.033  42.763  0.00  0.00    -0.215 NA
BRANCH  16  17
ATOM     17  C   UNL d   1      46.647 -18.533  42.189  0.00  0.00     0.102 C 
BRANCH  17  18
ATOM     18  C   UNL d   1      46.470 -18.392  41.395  0.00  0.00     0.021 C 
ATOM     19  C   UNL d   1      46.647 -18.965  40.827  0.00  0.00     0.002 C 
ENDBRANCH  17  18
ENDBRANCH  16  17
ENDBRANCH  14  16
ENDBRANCH  13  14
ENDBRANCH   2  13
TORSDOF 7
ENDMDL
