MODEL 1
REMARK VINA RESULT:      51.5      0.000      0.000
REMARK  5 active torsions:
REMARK  status: ('A' for Active; 'I' for Inactive)
REMARK    1  A    between atoms: C_8  and  C_1 
REMARK    2  A    between atoms: C_7  and  O_11 
REMARK    3  A    between atoms: C_9  and  C_7 
REMARK    4  A    between atoms: O_11  and  C_15 
REMARK    5  A    between atoms: O_23  and  C_18 
ROOT
ATOM      1  C   UNL d   1      13.733  13.090  -3.613  0.00  0.00     0.064 A 
ATOM      2  C   UNL d   1      14.025  12.593  -3.020  0.00  0.00     0.199 A 
ATOM      3  C   UNL d   1      13.670  13.901  -3.476  0.00  0.00     0.103 A 
ATOM      4  C   UNL d   1      14.251  12.908  -2.294  0.00  0.00     0.062 A 
ATOM      5  C   UNL d   1      14.187  13.719  -2.157  0.00  0.00     0.105 A 
ATOM      6  O   UNL d   1      13.897  14.215  -2.746  0.00  0.00    -0.307 OA
ATOM      7  C   UNL d   1      14.414  14.034  -1.430  0.00  0.00     0.050 A 
ATOM      8  C   UNL d   1      14.542  12.412  -1.704  0.00  0.00     0.007 A 
ATOM      9  O   UNL d   1      14.089  11.781  -3.156  0.00  0.00    -0.286 OA
ATOM     10  C   UNL d   1      14.707  13.529  -0.835  0.00  0.00     0.105 A 
ATOM     11  C   UNL d   1      14.771  12.726  -0.971  0.00  0.00     0.025 A 
ATOM     12  C   UNL d   1      13.379  14.396  -4.067  0.00  0.00     0.027 C 
ENDROOT
BRANCH   1  13
ATOM     13  C   UNL d   1      13.508  12.766  -4.341  0.00  0.00     0.027 A 
ATOM     14  C   UNL d   1      13.783  13.091  -5.048  0.00  0.00     0.094 A 
ATOM     15  C   UNL d   1      13.555  12.765  -5.768  0.00  0.00     0.024 A 
ATOM     16  C   UNL d   1      13.047  12.108  -5.786  0.00  0.00     0.002 A 
ATOM     17  C   UNL d   1      12.769  11.781  -5.073  0.00  0.00     0.000 A 
ATOM     18  C   UNL d   1      12.996  12.106  -4.352  0.00  0.00     0.002 A 
BRANCH  14  19
ATOM     19  O   UNL d   1      14.285  13.739  -5.026  0.00  0.00    -0.328 OA
ATOM     20  C   UNL d   1      14.496  14.113  -5.731  0.00  0.00     0.181 C 
ENDBRANCH  14  19
ENDBRANCH   1  13
BRANCH  10  21
ATOM     21  O   UNL d   1      14.935  13.851  -0.104  0.00  0.00    -0.271 OA
BRANCH  21  22
ATOM     22  C   UNL d   1      15.615  14.320  -0.064  0.00  0.00     0.323 C 
ATOM     23  O   UNL d   1      16.362  13.971  -0.014  0.00  0.00    -0.257 OA
BRANCH  22  24
ATOM     24  C   UNL d   1      15.546  15.147  -0.074  0.00  0.00     0.163 A 
ATOM     25  O   UNL d   1      14.843  15.572  -0.016  0.00  0.00    -0.300 OA
ATOM     26  C   UNL d   1      15.032  16.375  -0.049  0.00  0.00     0.123 A 
ATOM     27  C   UNL d   1      15.847  16.447  -0.128  0.00  0.00     0.029 A 
ATOM     28  C   UNL d   1      16.170  15.684  -0.143  0.00  0.00     0.032 A 
ENDBRANCH  22  24
ENDBRANCH  21  22
ENDBRANCH  10  21
TORSDOF 5
ENDMDL
