MODEL 1
REMARK VINA RESULT:      29.1      0.000      0.000
REMARK  5 active torsions:
REMARK  status: ('A' for Active; 'I' for Inactive)
REMARK    1  A    between atoms: C_6  and  N_1 
REMARK    2  A    between atoms: C_5  and  C_6 
REMARK       I    between atoms: N_7  and  C_5 
REMARK    3  A    between atoms: C_8  and  N_7 
REMARK    4  A    between atoms: O_19  and  C_9 
REMARK    5  A    between atoms: O_20  and  C_17 
ROOT
ATOM      1  C   UNL d   1      13.904  12.476  -2.861  0.00  0.00     0.297 C 
ATOM      2  N   UNL d   1      13.771  12.465  -3.675  0.00  0.00    -0.205 NA
ATOM      3  O   UNL d   1      13.790  13.172  -2.434  0.00  0.00    -0.264 OA
ENDROOT
BRANCH   1   4
ATOM      4  C   UNL d   1      14.152  11.795  -2.475  0.00  0.00     0.148 C 
BRANCH   4   5
ATOM      5  N   UNL d   1      14.250  11.795  -1.656  0.00  0.00    -0.235 N 
ATOM      6  C   UNL d   1      15.018  11.800  -1.333  0.00  0.00     0.273 A 
ATOM      7  C   UNL d   1      15.117  11.801  -0.514  0.00  0.00     0.086 A 
ATOM      8  O   UNL d   1      15.678  11.805  -1.837  0.00  0.00    -0.266 OA
ATOM      9  C   UNL d   1      15.876  11.806  -0.185  0.00  0.00     0.012 C 
ATOM     10  S   UNL d   1      14.447  11.797  -0.017  0.00  0.00    -0.077 SA
ATOM     11  C   UNL d   1      13.697  11.792  -0.343  0.00  0.00     0.097 A 
ATOM     12  C   UNL d   1      13.598  11.791  -1.162  0.00  0.00     0.274 A 
ATOM     13  O   UNL d   1      12.829  11.786  -1.495  0.00  0.00    -0.266 OA
ENDBRANCH   4   5
ENDBRANCH   1   4
BRANCH   2  14
ATOM     14  C   UNL d   1      13.522  13.151  -4.061  0.00  0.00     0.107 A 
ATOM     15  C   UNL d   1      13.034  13.098  -4.713  0.00  0.00     0.114 A 
ATOM     16  C   UNL d   1      12.785  13.766  -5.098  0.00  0.00     0.050 A 
ATOM     17  C   UNL d   1      13.030  14.515  -4.825  0.00  0.00     0.096 A 
ATOM     18  C   UNL d   1      13.518  14.568  -4.173  0.00  0.00     0.026 A 
ATOM     19  C   UNL d   1      13.767  13.873  -3.787  0.00  0.00     0.023 A 
BRANCH  15  20
ATOM     20  O   UNL d   1      12.781  12.349  -4.997  0.00  0.00    -0.327 OA
ATOM     21  C   UNL d   1      13.116  12.038  -5.689  0.00  0.00     0.181 C 
ENDBRANCH  15  20
BRANCH  17  22
ATOM     22  O   UNL d   1      12.773  15.205  -5.223  0.00  0.00    -0.328 OA
ATOM     23  C   UNL d   1      13.172  15.920  -5.125  0.00  0.00     0.181 C 
ENDBRANCH  17  22
ENDBRANCH   2  14
TORSDOF 5
ENDMDL
MODEL 2
REMARK VINA RESULT:      30.5      1.601      2.549
REMARK  5 active torsions:
REMARK  status: ('A' for Active; 'I' for Inactive)
REMARK    1  A    between atoms: C_6  and  N_1 
REMARK    2  A    between atoms: C_5  and  C_6 
REMARK       I    between atoms: N_7  and  C_5 
REMARK    3  A    between atoms: C_8  and  N_7 
REMARK    4  A    between atoms: O_19  and  C_9 
REMARK    5  A    between atoms: O_20  and  C_17 
ROOT
ATOM      1  C   UNL d   1      14.078  12.517  -1.480  0.00  0.00     0.297 C 
ATOM      2  N   UNL d   1      13.573  12.960  -1.959  0.00  0.00    -0.205 NA
ATOM      3  O   UNL d   1      14.478  11.866  -1.793  0.00  0.00    -0.264 OA
ENDROOT
BRANCH   1   4
ATOM      4  C   UNL d   1      14.184  12.722  -0.692  0.00  0.00     0.148 C 
BRANCH   4   5
ATOM      5  N   UNL d   1      14.833  13.180  -0.467  0.00  0.00    -0.235 N 
ATOM      6  C   UNL d   1      14.740  14.000  -0.354  0.00  0.00     0.273 A 
ATOM      7  C   UNL d   1      15.389  14.458  -0.129  0.00  0.00     0.086 A 
ATOM      8  O   UNL d   1      13.996  14.351  -0.468  0.00  0.00    -0.266 OA
ATOM      9  C   UNL d   1      15.305  15.273  -0.014  0.00  0.00     0.012 C 
ATOM     10  S   UNL d   1      16.131  14.095  -0.017  0.00  0.00    -0.077 SA
ATOM     11  C   UNL d   1      16.213  13.289  -0.130  0.00  0.00     0.097 A 
ATOM     12  C   UNL d   1      15.565  12.832  -0.355  0.00  0.00     0.274 A 
ATOM     13  O   UNL d   1      15.650  12.006  -0.471  0.00  0.00    -0.266 OA
ENDBRANCH   4   5
ENDBRANCH   1   4
BRANCH   2  14
ATOM     14  C   UNL d   1      13.468  12.751  -2.750  0.00  0.00     0.107 A 
ATOM     15  C   UNL d   1      13.586  13.306  -3.337  0.00  0.00     0.114 A 
ATOM     16  C   UNL d   1      13.486  13.110  -4.117  0.00  0.00     0.050 A 
ATOM     17  C   UNL d   1      13.259  12.335  -4.321  0.00  0.00     0.096 A 
ATOM     18  C   UNL d   1      13.141  11.780  -3.735  0.00  0.00     0.026 A 
ATOM     19  C   UNL d   1      13.248  11.995  -2.937  0.00  0.00     0.023 A 
BRANCH  15  20
ATOM     20  O   UNL d   1      13.815  14.091  -3.142  0.00  0.00    -0.327 OA
ATOM     21  C   UNL d   1      13.817  14.675  -3.731  0.00  0.00     0.181 C 
ENDBRANCH  15  20
BRANCH  17  22
ATOM     22  O   UNL d   1      13.155  12.133  -5.127  0.00  0.00    -0.328 OA
ATOM     23  C   UNL d   1      13.745  12.295  -5.681  0.00  0.00     0.181 C 
ENDBRANCH  17  22
ENDBRANCH   2  14
TORSDOF 5
ENDMDL
MODEL 3
REMARK VINA RESULT:      30.8      1.218      2.011
REMARK  5 active torsions:
REMARK  status: ('A' for Active; 'I' for Inactive)
REMARK    1  A    between atoms: C_6  and  N_1 
REMARK    2  A    between atoms: C_5  and  C_6 
REMARK       I    between atoms: N_7  and  C_5 
REMARK    3  A    between atoms: C_8  and  N_7 
REMARK    4  A    between atoms: O_19  and  C_9 
REMARK    5  A    between atoms: O_20  and  C_17 
ROOT
ATOM      1  C   UNL d   1      13.961  12.126  -2.067  0.00  0.00     0.297 C 
ATOM      2  N   UNL d   1      13.321  12.477  -2.451  0.00  0.00    -0.205 NA
ATOM      3  O   UNL d   1      14.567  11.779  -2.508  0.00  0.00    -0.264 OA
ENDROOT
BRANCH   1   4
ATOM      4  C   UNL d   1      13.996  12.120  -1.247  0.00  0.00     0.148 C 
BRANCH   4   5
ATOM      5  N   UNL d   1      14.449  12.683  -0.848  0.00  0.00    -0.235 N 
ATOM      6  C   UNL d   1      15.281  12.648  -0.888  0.00  0.00     0.273 A 
ATOM      7  C   UNL d   1      15.733  13.211  -0.489  0.00  0.00     0.086 A 
ATOM      8  O   UNL d   1      15.647  12.048  -1.329  0.00  0.00    -0.266 OA
ATOM      9  C   UNL d   1      16.559  13.183  -0.525  0.00  0.00     0.012 C 
ATOM     10  S   UNL d   1      15.354  13.810  -0.050  0.00  0.00    -0.077 SA
ATOM     11  C   UNL d   1      14.537  13.836  -0.016  0.00  0.00     0.097 A 
ATOM     12  C   UNL d   1      14.085  13.273  -0.415  0.00  0.00     0.274 A 
ATOM     13  O   UNL d   1      13.248  13.302  -0.379  0.00  0.00    -0.266 OA
ENDBRANCH   4   5
ENDBRANCH   1   4
BRANCH   2  14
ATOM     14  C   UNL d   1      13.287  12.482  -3.276  0.00  0.00     0.107 A 
ATOM     15  C   UNL d   1      13.283  13.191  -3.679  0.00  0.00     0.114 A 
ATOM     16  C   UNL d   1      13.250  13.205  -4.489  0.00  0.00     0.050 A 
ATOM     17  C   UNL d   1      13.221  12.488  -4.913  0.00  0.00     0.096 A 
ATOM     18  C   UNL d   1      13.225  11.779  -4.509  0.00  0.00     0.026 A 
ATOM     19  C   UNL d   1      13.259  11.779  -3.677  0.00  0.00     0.023 A 
BRANCH  15  20
ATOM     20  O   UNL d   1      13.312  13.920  -3.262  0.00  0.00    -0.327 OA
ATOM     21  C   UNL d   1      13.491  14.619  -3.671  0.00  0.00     0.181 C 
ENDBRANCH  15  20
BRANCH  17  22
ATOM     22  O   UNL d   1      13.187  12.504  -5.749  0.00  0.00    -0.328 OA
ATOM     23  C   UNL d   1      13.404  11.842  -6.191  0.00  0.00     0.181 C 
ENDBRANCH  17  22
ENDBRANCH   2  14
TORSDOF 5
ENDMDL
