MODEL 1
REMARK VINA RESULT:      24.8      0.000      0.000
REMARK  5 active torsions:
REMARK  status: ('A' for Active; 'I' for Inactive)
REMARK    1  A    between atoms: C_2  and  S_1 
REMARK    2  A    between atoms: N_3  and  S_1 
REMARK    3  A    between atoms: C_5  and  N_3 
REMARK    4  A    between atoms: C_14  and  C_9 
REMARK    5  A    between atoms: O_18  and  C_10 
ROOT
ATOM      1  C   UNL d   1      14.519  13.110  -1.216  0.00  0.00     0.128 A 
ATOM      2  C   UNL d   1      14.574  13.903  -1.452  0.00  0.00     0.015 A 
ATOM      3  C   UNL d   1      14.959  14.449  -0.968  0.00  0.00     0.001 A 
ATOM      4  C   UNL d   1      14.850  12.874  -0.494  0.00  0.00     0.106 A 
ATOM      5  C   UNL d   1      15.285  14.212  -0.256  0.00  0.00     0.002 A 
ATOM      6  C   UNL d   1      15.233  13.426  -0.015  0.00  0.00     0.025 A 
ENDROOT
BRANCH   1   7
ATOM      7  S   UNL d   1      14.136  12.558  -1.695  0.00  0.00     0.288 S 
ATOM      8  O   UNL d   1      14.650  12.740  -2.314  0.00  0.00    -0.198 OA
ATOM      9  O   UNL d   1      13.626  12.383  -1.072  0.00  0.00    -0.198 OA
BRANCH   7  10
ATOM     10  N   UNL d   1      13.749  12.005  -2.168  0.00  0.00    -0.139 NA
BRANCH  10  11
ATOM     11  C   UNL d   1      13.525  12.213  -2.933  0.00  0.00     0.175 A 
ATOM     12  N   UNL d   1      13.023  12.856  -3.056  0.00  0.00    -0.224 NA
ATOM     13  C   UNL d   1      12.796  13.068  -3.814  0.00  0.00     0.112 A 
ATOM     14  C   UNL d   1      13.069  12.637  -4.463  0.00  0.00     0.077 A 
ATOM     15  C   UNL d   1      13.571  11.994  -4.341  0.00  0.00     0.016 A 
ATOM     16 CL   UNL d   1      12.845  12.844  -5.224  0.00  0.00    -0.081 Cl
ATOM     17  C   UNL d   1      13.801  11.779  -3.583  0.00  0.00     0.041 A 
ENDBRANCH  10  11
ENDBRANCH   7  10
ENDBRANCH   1   7
BRANCH   4  18
ATOM     18  O   UNL d   1      14.795  12.090  -0.261  0.00  0.00    -0.327 OA
ATOM     19  C   UNL d   1      14.070  11.779  -0.021  0.00  0.00     0.181 C 
ENDBRANCH   4  18
BRANCH   3  20
ATOM     20  C   UNL d   1      15.011  15.242  -1.209  0.00  0.00     0.000 C 
ATOM     21  C   UNL d   1      14.675  15.483  -1.918  0.00  0.00     0.000 C 
ATOM     22  C   UNL d   1      15.404  15.789  -0.732  0.00  0.00     0.000 C 
ENDBRANCH   3  20
TORSDOF 5
ENDMDL
MODEL 2
REMARK VINA RESULT:      27.4      2.072      3.643
REMARK  5 active torsions:
REMARK  status: ('A' for Active; 'I' for Inactive)
REMARK    1  A    between atoms: C_2  and  S_1 
REMARK    2  A    between atoms: N_3  and  S_1 
REMARK    3  A    between atoms: C_5  and  N_3 
REMARK    4  A    between atoms: C_14  and  C_9 
REMARK    5  A    between atoms: O_18  and  C_10 
ROOT
ATOM      1  C   UNL d   1      14.539  13.182  -1.042  0.00  0.00     0.128 A 
ATOM      2  C   UNL d   1      14.208  13.337  -1.786  0.00  0.00     0.015 A 
ATOM      3  C   UNL d   1      14.031  12.713  -2.295  0.00  0.00     0.001 A 
ATOM      4  C   UNL d   1      14.690  12.399  -0.816  0.00  0.00     0.106 A 
ATOM      5  C   UNL d   1      14.181  11.941  -2.069  0.00  0.00     0.002 A 
ATOM      6  C   UNL d   1      14.510  11.779  -1.331  0.00  0.00     0.025 A 
ENDROOT
BRANCH   1   7
ATOM      7  S   UNL d   1      14.719  13.801  -0.527  0.00  0.00     0.288 S 
ATOM      8  O   UNL d   1      13.913  13.942  -0.417  0.00  0.00    -0.198 OA
ATOM      9  O   UNL d   1      15.521  13.655  -0.644  0.00  0.00    -0.198 OA
BRANCH   7  10
ATOM     10  N   UNL d   1      14.905  14.419  -0.014  0.00  0.00    -0.139 NA
BRANCH  10  11
ATOM     11  C   UNL d   1      15.080  15.163  -0.322  0.00  0.00     0.175 A 
ATOM     12  N   UNL d   1      14.537  15.546  -0.809  0.00  0.00    -0.224 NA
ATOM     13  C   UNL d   1      14.705  16.286  -1.119  0.00  0.00     0.112 A 
ATOM     14  C   UNL d   1      15.423  16.654  -0.944  0.00  0.00     0.077 A 
ATOM     15  C   UNL d   1      15.967  16.270  -0.457  0.00  0.00     0.016 A 
ATOM     16 CL   UNL d   1      15.597  17.394  -1.251  0.00  0.00    -0.081 Cl
ATOM     17  C   UNL d   1      15.801  15.529  -0.145  0.00  0.00     0.041 A 
ENDBRANCH  10  11
ENDBRANCH   7  10
ENDBRANCH   1   7
BRANCH   4  18
ATOM     18  O   UNL d   1      15.017  12.245  -0.081  0.00  0.00    -0.327 OA
ATOM     19  C   UNL d   1      15.706  11.794  -0.020  0.00  0.00     0.181 C 
ENDBRANCH   4  18
BRANCH   3  20
ATOM     20  C   UNL d   1      13.700  12.874  -3.039  0.00  0.00     0.000 C 
ATOM     21  C   UNL d   1      13.972  13.508  -3.486  0.00  0.00     0.000 C 
ATOM     22  C   UNL d   1      13.094  12.395  -3.329  0.00  0.00     0.000 C 
ENDBRANCH   3  20
TORSDOF 5
ENDMDL
