MODEL 1
REMARK VINA RESULT:      15.3      0.000      0.000
REMARK  8 active torsions:
REMARK  status: ('A' for Active; 'I' for Inactive)
REMARK    1  A    between atoms: N_7  and  N_1 
REMARK    2  A    between atoms: S_9  and  C_2 
REMARK       I    between atoms: C_8  and  N_7 
REMARK    3  A    between atoms: C_21  and  C_8 
REMARK    4  A    between atoms: C_20  and  S_9 
REMARK    5  A    between atoms: C_10  and  C_20 
REMARK       I    between atoms: N_14  and  C_10 
REMARK    6  A    between atoms: C_12  and  C_22 
REMARK    7  A    between atoms: C_22  and  N_14 
REMARK    8  A    between atoms: C_24  and  C_21 
ROOT
ATOM      1  N   UNL d   1     -41.471-122.239 -51.661  0.00  0.00    -0.168 N 
ATOM      2  C   UNL d   1     -41.582-121.565 -51.211  0.00  0.00     0.199 A 
ATOM      3  C   UNL d   1     -41.712-122.985 -51.366  0.00  0.00     0.283 A 
ATOM      4  N   UNL d   1     -41.939-121.615 -50.451  0.00  0.00    -0.221 NA
ATOM      5  C   UNL d   1     -42.068-123.028 -50.604  0.00  0.00     0.076 A 
ATOM      6  C   UNL d   1     -42.177-122.343 -50.156  0.00  0.00     0.088 A 
ATOM      7  O   UNL d   1     -41.599-123.665 -51.820  0.00  0.00    -0.265 OA
ATOM      8  C   UNL d   1     -42.304-123.768 -50.317  0.00  0.00     0.006 A 
ATOM      9  C   UNL d   1     -42.529-122.409 -49.409  0.00  0.00     0.019 A 
ATOM     10  C   UNL d   1     -42.653-123.815 -49.571  0.00  0.00     0.000 A 
ATOM     11  C   UNL d   1     -42.766-123.135 -49.117  0.00  0.00     0.002 A 
ENDROOT
BRANCH   2  12
ATOM     12  S   UNL d   1     -41.352-120.843 -51.491  0.00  0.00    -0.043 SA
BRANCH  12  13
ATOM     13  C   UNL d   1     -41.123-120.248 -50.971  0.00  0.00     0.101 C 
BRANCH  13  14
ATOM     14  C   UNL d   1     -41.123-119.461 -51.218  0.00  0.00     0.286 C 
ATOM     15  N   UNL d   1     -41.123-119.281 -52.020  0.00  0.00    -0.204 NA
ATOM     16  O   UNL d   1     -41.125-118.850 -50.657  0.00  0.00    -0.265 OA
BRANCH  15  17
ATOM     17  C   UNL d   1     -41.123-118.491 -52.259  0.00  0.00     0.127 C 
BRANCH  17  18
ATOM     18  C   UNL d   1     -41.474-118.290 -52.987  0.00  0.00     0.119 A 
ATOM     19  O   UNL d   1     -41.353-117.597 -53.407  0.00  0.00    -0.304 OA
ATOM     20  C   UNL d   1     -41.810-117.631 -54.094  0.00  0.00     0.123 A 
ATOM     21  C   UNL d   1     -42.217-118.352 -54.097  0.00  0.00     0.029 A 
ATOM     22  C   UNL d   1     -42.008-118.762 -53.407  0.00  0.00     0.028 A 
ENDBRANCH  17  18
ENDBRANCH  15  17
ENDBRANCH  13  14
ENDBRANCH  12  13
ENDBRANCH   2  12
BRANCH   1  23
ATOM     23  N   UNL d   1     -41.128-122.194 -52.394  0.00  0.00    -0.119 NA
ATOM     24  C   UNL d   1     -41.521-122.505 -53.055  0.00  0.00     0.296 C 
ATOM     25  O   UNL d   1     -42.260-122.858 -52.961  0.00  0.00    -0.264 OA
BRANCH  24  26
ATOM     26  C   UNL d   1     -41.172-122.460 -53.801  0.00  0.00     0.064 C 
BRANCH  26  27
ATOM     27  C   UNL d   1     -41.641-122.329 -54.460  0.00  0.00     0.005 A 
ATOM     28  C   UNL d   1     -42.092-122.943 -54.756  0.00  0.00     0.000 A 
ATOM     29  C   UNL d   1     -42.564-122.811 -55.421  0.00  0.00     0.000 A 
ATOM     30  C   UNL d   1     -42.577-122.073 -55.776  0.00  0.00     0.000 A 
ATOM     31  C   UNL d   1     -42.117-121.465 -55.466  0.00  0.00     0.000 A 
ATOM     32  C   UNL d   1     -41.655-121.595 -54.815  0.00  0.00     0.000 A 
ENDBRANCH  26  27
ENDBRANCH  24  26
ENDBRANCH   1  23
TORSDOF 8
ENDMDL
MODEL 2
REMARK VINA RESULT:      17.9      1.389      4.833
REMARK  8 active torsions:
REMARK  status: ('A' for Active; 'I' for Inactive)
REMARK    1  A    between atoms: N_7  and  N_1 
REMARK    2  A    between atoms: S_9  and  C_2 
REMARK       I    between atoms: C_8  and  N_7 
REMARK    3  A    between atoms: C_21  and  C_8 
REMARK    4  A    between atoms: C_20  and  S_9 
REMARK    5  A    between atoms: C_10  and  C_20 
REMARK       I    between atoms: N_14  and  C_10 
REMARK    6  A    between atoms: C_12  and  C_22 
REMARK    7  A    between atoms: C_22  and  N_14 
REMARK    8  A    between atoms: C_24  and  C_21 
ROOT
ATOM      1  N   UNL d   1     -41.621-121.735 -53.594  0.00  0.00    -0.168 N 
ATOM      2  C   UNL d   1     -42.038-122.399 -53.360  0.00  0.00     0.199 A 
ATOM      3  C   UNL d   1     -41.633-121.492 -54.395  0.00  0.00     0.283 A 
ATOM      4  N   UNL d   1     -42.481-122.842 -53.921  0.00  0.00    -0.221 NA
ATOM      5  C   UNL d   1     -42.079-121.940 -54.952  0.00  0.00     0.076 A 
ATOM      6  C   UNL d   1     -42.497-122.609 -54.708  0.00  0.00     0.088 A 
ATOM      7  O   UNL d   1     -41.212-120.822 -54.630  0.00  0.00    -0.265 OA
ATOM      8  C   UNL d   1     -42.088-121.696 -55.743  0.00  0.00     0.006 A 
ATOM      9  C   UNL d   1     -42.929-123.035 -55.273  0.00  0.00     0.019 A 
ATOM     10  C   UNL d   1     -42.523-122.131 -56.291  0.00  0.00     0.000 A 
ATOM     11  C   UNL d   1     -42.944-122.802 -56.056  0.00  0.00     0.002 A 
ENDROOT
BRANCH   2  12
ATOM     12  S   UNL d   1     -42.029-122.637 -52.588  0.00  0.00    -0.043 SA
BRANCH  12  13
ATOM     13  C   UNL d   1     -42.208-123.416 -52.391  0.00  0.00     0.101 C 
BRANCH  13  14
ATOM     14  C   UNL d   1     -42.376-123.615 -51.608  0.00  0.00     0.286 C 
ATOM     15  N   UNL d   1     -41.776-123.614 -51.045  0.00  0.00    -0.204 NA
ATOM     16  O   UNL d   1     -43.149-123.817 -51.387  0.00  0.00    -0.265 OA
BRANCH  15  17
ATOM     17  C   UNL d   1     -41.952-123.814 -50.263  0.00  0.00     0.127 C 
BRANCH  17  18
ATOM     18  C   UNL d   1     -41.846-123.244 -49.667  0.00  0.00     0.119 A 
ATOM     19  O   UNL d   1     -41.132-123.012 -49.340  0.00  0.00    -0.304 OA
ATOM     20  C   UNL d   1     -41.286-122.436 -48.770  0.00  0.00     0.123 A 
ATOM     21  C   UNL d   1     -42.104-122.311 -48.744  0.00  0.00     0.029 A 
ATOM     22  C   UNL d   1     -42.452-122.815 -49.303  0.00  0.00     0.028 A 
ENDBRANCH  17  18
ENDBRANCH  15  17
ENDBRANCH  13  14
ENDBRANCH  12  13
ENDBRANCH   2  12
BRANCH   1  23
ATOM     23  N   UNL d   1     -41.193-121.306 -53.056  0.00  0.00    -0.119 NA
ATOM     24  C   UNL d   1     -41.559-120.701 -52.622  0.00  0.00     0.296 C 
ATOM     25  O   UNL d   1     -42.359-120.541 -52.741  0.00  0.00    -0.264 OA
BRANCH  24  26
ATOM     26  C   UNL d   1     -41.124-120.264 -52.074  0.00  0.00     0.064 C 
BRANCH  26  27
ATOM     27  C   UNL d   1     -41.124-119.446 -52.116  0.00  0.00     0.005 A 
ATOM     28  C   UNL d   1     -41.124-119.086 -52.849  0.00  0.00     0.000 A 
ATOM     29  C   UNL d   1     -41.123-118.261 -52.892  0.00  0.00     0.000 A 
ATOM     30  C   UNL d   1     -41.123-117.814 -52.205  0.00  0.00     0.000 A 
ATOM     31  C   UNL d   1     -41.123-118.192 -51.475  0.00  0.00     0.000 A 
ATOM     32  C   UNL d   1     -41.123-119.000 -51.434  0.00  0.00     0.000 A 
ENDBRANCH  26  27
ENDBRANCH  24  26
ENDBRANCH   1  23
TORSDOF 8
ENDMDL
