MODEL 1
REMARK VINA RESULT:       4.0      0.000      0.000
REMARK  6 active torsions:
REMARK  status: ('A' for Active; 'I' for Inactive)
REMARK    1  A    between atoms: C_6  and  C_1 
REMARK    2  A    between atoms: C_8  and  N_2 
REMARK    3  A    between atoms: C_12  and  C_5 
REMARK    4  A    between atoms: C_7  and  C_6 
REMARK    5  A    between atoms: C_18  and  C_8 
REMARK    6  A    between atoms: N_10  and  C_18 
ROOT
ATOM      1  C   UNL d   1     -41.604-122.372 -51.296  0.00  0.00     0.099 A 
ATOM      2  N   UNL d   1     -41.419-122.368 -52.622  0.00  0.00    -0.269 N 
ATOM      3  C   UNL d   1     -41.636-123.158 -51.539  0.00  0.00     0.256 A 
ATOM      4  C   UNL d   1     -41.522-123.154 -52.351  0.00  0.00     0.304 A 
ATOM      5  C   UNL d   1     -41.474-121.897 -51.946  0.00  0.00     0.073 A 
ATOM      6  O   UNL d   1     -41.510-123.817 -52.833  0.00  0.00    -0.263 OA
ATOM      7  O   UNL d   1     -41.758-123.817 -51.054  0.00  0.00    -0.281 OA
ENDROOT
BRANCH   2   8
ATOM      8  C   UNL d   1     -41.288-122.105 -53.402  0.00  0.00     0.102 C 
BRANCH   8   9
ATOM      9  C   UNL d   1     -41.514-122.579 -54.029  0.00  0.00     0.100 C 
BRANCH   9  10
ATOM     10  N   UNL d   1     -41.771-122.246 -54.734  0.00  0.00    -0.298 N 
ATOM     11  C   UNL d   1     -41.217-122.180 -55.371  0.00  0.00     0.107 A 
ATOM     12  C   UNL d   1     -41.468-121.841 -56.097  0.00  0.00     0.142 A 
ATOM     13  O   UNL d   1     -42.256-121.578 -56.171  0.00  0.00    -0.300 OA
ATOM     14  C   UNL d   1     -42.791-121.643 -55.552  0.00  0.00     0.142 A 
ATOM     15  C   UNL d   1     -42.538-121.985 -54.822  0.00  0.00     0.107 A 
ENDBRANCH   9  10
ENDBRANCH   8   9
ENDBRANCH   2   8
BRANCH   5  16
ATOM     16  C   UNL d   1     -41.404-121.073 -51.952  0.00  0.00     0.016 A 
ATOM     17  C   UNL d   1     -41.197-120.671 -51.262  0.00  0.00     0.001 A 
ATOM     18  C   UNL d   1     -41.128-119.856 -51.265  0.00  0.00     0.000 A 
ATOM     19  C   UNL d   1     -41.267-119.430 -51.965  0.00  0.00     0.000 A 
ATOM     20  C   UNL d   1     -41.473-119.839 -52.649  0.00  0.00     0.000 A 
ATOM     21  C   UNL d   1     -41.542-120.666 -52.639  0.00  0.00     0.001 A 
ENDBRANCH   5  16
BRANCH   1  22
ATOM     22  C   UNL d   1     -41.693-122.121 -50.515  0.00  0.00     0.206 C 
ATOM     23  O   UNL d   1     -41.123-121.653 -50.178  0.00  0.00    -0.286 OA
BRANCH  22  24
ATOM     24  C   UNL d   1     -42.372-122.349 -50.067  0.00  0.00     0.069 A 
ATOM     25  S   UNL d   1     -42.395-122.494 -49.252  0.00  0.00    -0.083 SA
ATOM     26  C   UNL d   1     -43.168-122.700 -49.054  0.00  0.00     0.035 A 
ATOM     27  C   UNL d   1     -43.628-122.685 -49.732  0.00  0.00     0.008 A 
ATOM     28  C   UNL d   1     -43.133-122.467 -50.363  0.00  0.00     0.010 A 
ENDBRANCH  22  24
ENDBRANCH   1  22
TORSDOF 6
ENDMDL
MODEL 2
REMARK VINA RESULT:       6.2      1.616      4.183
REMARK  6 active torsions:
REMARK  status: ('A' for Active; 'I' for Inactive)
REMARK    1  A    between atoms: C_6  and  C_1 
REMARK    2  A    between atoms: C_8  and  N_2 
REMARK    3  A    between atoms: C_12  and  C_5 
REMARK    4  A    between atoms: C_7  and  C_6 
REMARK    5  A    between atoms: C_18  and  C_8 
REMARK    6  A    between atoms: N_10  and  C_18 
ROOT
ATOM      1  C   UNL d   1     -41.621-121.958 -52.936  0.00  0.00     0.099 A 
ATOM      2  N   UNL d   1     -41.645-122.403 -51.672  0.00  0.00    -0.269 N 
ATOM      3  C   UNL d   1     -41.760-122.769 -52.975  0.00  0.00     0.256 A 
ATOM      4  C   UNL d   1     -41.774-123.040 -52.202  0.00  0.00     0.304 A 
ATOM      5  C   UNL d   1     -41.552-121.738 -52.153  0.00  0.00     0.073 A 
ATOM      6  O   UNL d   1     -41.896-123.817 -51.973  0.00  0.00    -0.263 OA
ATOM      7  O   UNL d   1     -41.864-123.216 -53.664  0.00  0.00    -0.281 OA
ENDROOT
BRANCH   2   8
ATOM      8  C   UNL d   1     -41.615-122.424 -50.841  0.00  0.00     0.102 C 
BRANCH   8   9
ATOM      9  C   UNL d   1     -41.828-123.109 -50.447  0.00  0.00     0.100 C 
BRANCH   9  10
ATOM     10  N   UNL d   1     -41.862-123.126 -49.626  0.00  0.00    -0.298 N 
ATOM     11  C   UNL d   1     -41.182-123.402 -49.203  0.00  0.00     0.107 A 
ATOM     12  C   UNL d   1     -41.205-123.425 -48.365  0.00  0.00     0.142 A 
ATOM     13  O   UNL d   1     -41.896-123.176 -47.971  0.00  0.00    -0.300 OA
ATOM     14  C   UNL d   1     -42.554-122.909 -48.383  0.00  0.00     0.142 A 
ATOM     15  C   UNL d   1     -42.531-122.886 -49.227  0.00  0.00     0.107 A 
ENDBRANCH   9  10
ENDBRANCH   8   9
ENDBRANCH   2   8
BRANCH   5  16
ATOM     16  C   UNL d   1     -41.412-120.976 -51.863  0.00  0.00     0.016 A 
ATOM     17  C   UNL d   1     -41.411-120.837 -51.050  0.00  0.00     0.001 A 
ATOM     18  C   UNL d   1     -41.272-120.084 -50.762  0.00  0.00     0.000 A 
ATOM     19  C   UNL d   1     -41.131-119.457 -51.288  0.00  0.00     0.000 A 
ATOM     20  C   UNL d   1     -41.133-119.605 -52.098  0.00  0.00     0.000 A 
ATOM     21  C   UNL d   1     -41.275-120.371 -52.384  0.00  0.00     0.001 A 
ENDBRANCH   5  16
BRANCH   1  22
ATOM     22  C   UNL d   1     -41.564-121.461 -53.592  0.00  0.00     0.206 C 
ATOM     23  O   UNL d   1     -41.165-120.758 -53.529  0.00  0.00    -0.286 OA
BRANCH  22  24
ATOM     24  C   UNL d   1     -41.918-121.682 -54.327  0.00  0.00     0.069 A 
ATOM     25  S   UNL d   1     -42.720-121.613 -54.523  0.00  0.00    -0.083 SA
ATOM     26  C   UNL d   1     -42.817-121.894 -55.292  0.00  0.00     0.035 A 
ATOM     27  C   UNL d   1     -42.088-122.136 -55.579  0.00  0.00     0.008 A 
ATOM     28  C   UNL d   1     -41.529-122.004 -54.978  0.00  0.00     0.010 A 
ENDBRANCH  22  24
ENDBRANCH   1  22
TORSDOF 6
ENDMDL
