MODEL 1
REMARK VINA RESULT:      16.3      0.000      0.000
REMARK  1 active torsions:
REMARK  status: ('A' for Active; 'I' for Inactive)
REMARK    1  A    between atoms: C_2  and  C_1 
ROOT
ATOM      1  C   UNL d   1      58.943  49.701  50.583  0.00  0.00     0.089 A 
ATOM      2  C   UNL d   1      58.907  49.703  49.763  0.00  0.00     0.302 A 
ATOM      3  C   UNL d   1      58.243  49.698  51.033  0.00  0.00     0.009 A 
ATOM      4  O   UNL d   1      58.172  49.703  49.384  0.00  0.00    -0.273 OA
ATOM      5  C   UNL d   1      57.512  49.698  50.645  0.00  0.00     0.023 A 
ATOM      6  C   UNL d   1      57.476  49.700  49.824  0.00  0.00     0.103 A 
ATOM      7  O   UNL d   1      59.614  49.706  49.332  0.00  0.00    -0.259 OA
ATOM      8  C   UNL d   1      56.815  49.695  51.095  0.00  0.00     0.002 A 
ATOM      9  C   UNL d   1      56.743  49.700  49.446  0.00  0.00     0.025 A 
ATOM     10  C   UNL d   1      56.084  49.695  50.706  0.00  0.00     0.000 A 
ATOM     11  C   UNL d   1      56.049  49.697  49.886  0.00  0.00     0.002 A 
ENDROOT
BRANCH   1  12
ATOM     12  C   UNL d   1      59.685  49.702  50.961  0.00  0.00     0.140 A 
ATOM     13  S   UNL d   1      59.912  49.698  51.751  0.00  0.00    -0.024 SA
ATOM     14  C   UNL d   1      60.727  49.701  51.774  0.00  0.00     0.236 A 
ATOM     15  N   UNL d   1      61.210  49.699  52.456  0.00  0.00    -0.118 N 
ATOM     16  N   UNL d   1      61.016  49.706  51.020  0.00  0.00    -0.119 NA
ATOM     17  N   UNL d   1      60.378  49.706  50.502  0.00  0.00    -0.139 NA
ENDBRANCH   1  12
TORSDOF 1
ENDMDL
