MODEL 1
REMARK VINA RESULT:     118.7      0.000      0.000
REMARK  5 active torsions:
REMARK  status: ('A' for Active; 'I' for Inactive)
REMARK    1  A    between atoms: N_7  and  S_1 
REMARK    2  A    between atoms: C_10  and  S_1 
REMARK    3  A    between atoms: C_2  and  N_4 
REMARK       I    between atoms: N_4  and  C_8 
REMARK    4  A    between atoms: C_8  and  C_13 
REMARK    5  A    between atoms: O_23  and  C_14 
ROOT
ATOM      1  C   UNL d   1      62.314  43.614  49.973  0.00  0.00     0.104 A 
ATOM      2  C   UNL d   1      61.915  45.199  49.997  0.00  0.00     0.058 A 
ATOM      3  C   UNL d   1      61.685  43.853  50.408  0.00  0.00     0.013 A 
ATOM      4  C   UNL d   1      62.773  44.161  49.529  0.00  0.00     0.013 A 
ATOM      5  C   UNL d   1      61.474  44.650  50.428  0.00  0.00     0.005 A 
ATOM      6  C   UNL d   1      62.565  44.957  49.547  0.00  0.00     0.005 A 
ENDROOT
BRANCH   2   7
ATOM      7  C   UNL d   1      61.703  45.997  50.018  0.00  0.00     0.281 C 
ATOM      8  N   UNL d   1      61.315  46.302  50.684  0.00  0.00    -0.183 NA
ATOM      9  O   UNL d   1      61.878  46.489  49.376  0.00  0.00    -0.265 OA
BRANCH   8  10
ATOM     10  C   UNL d   1      61.108  47.110  50.690  0.00  0.00     0.197 A 
ATOM     11  N   UNL d   1      61.094  47.585  51.340  0.00  0.00    -0.219 NA
ATOM     12  C   UNL d   1      60.859  48.349  51.111  0.00  0.00     0.112 A 
ATOM     13  C   UNL d   1      60.754  49.026  51.527  0.00  0.00     0.112 A 
ATOM     14  C   UNL d   1      60.735  48.309  50.316  0.00  0.00     0.052 A 
ATOM     15  C   UNL d   1      60.510  49.708  51.127  0.00  0.00     0.026 A 
ATOM     16  C   UNL d   1      60.386  49.673  50.334  0.00  0.00     0.003 A 
ATOM     17  C   UNL d   1      60.492  48.991  49.916  0.00  0.00     0.008 A 
ATOM     18  S   UNL d   1      60.885  47.549  50.043  0.00  0.00    -0.047 SA
BRANCH  13  19
ATOM     19  O   UNL d   1      60.885  49.045  52.336  0.00  0.00    -0.327 OA
ATOM     20  C   UNL d   1      61.340  49.622  52.662  0.00  0.00     0.181 C 
ENDBRANCH  13  19
ENDBRANCH   8  10
ENDBRANCH   2   7
BRANCH   1  21
ATOM     21  S   UNL d   1      62.507  42.806  49.969  0.00  0.00     0.272 S 
ATOM     22  O   UNL d   1      62.182  42.734  49.204  0.00  0.00    -0.200 OA
ATOM     23  O   UNL d   1      62.830  42.879  50.731  0.00  0.00    -0.200 OA
BRANCH  21  24
ATOM     24  N   UNL d   1      62.700  41.994  49.963  0.00  0.00    -0.225 N 
ATOM     25  C   UNL d   1      62.971  41.622  50.666  0.00  0.00     0.118 A 
ATOM     26  C   UNL d   1      63.157  40.829  50.651  0.00  0.00     0.142 A 
ATOM     27  O   UNL d   1      63.078  40.397  49.949  0.00  0.00    -0.300 OA
ATOM     28  C   UNL d   1      62.815  40.748  49.257  0.00  0.00     0.142 A 
ATOM     29  C   UNL d   1      62.629  41.541  49.273  0.00  0.00     0.118 A 
ENDBRANCH  21  24
ENDBRANCH   1  21
TORSDOF 5
ENDMDL
