MODEL 1
REMARK VINA RESULT:      52.0      0.000      0.000
REMARK  3 active torsions:
REMARK  status: ('A' for Active; 'I' for Inactive)
REMARK    1  A    between atoms: C_6  and  C_1 
REMARK    2  A    between atoms: O_19  and  C_9 
REMARK    3  A    between atoms: O_20  and  C_13 
ROOT
ATOM      1  C   UNL d   1     -54.766-101.168 -42.398  0.00  0.00     0.064 A 
ATOM      2  C   UNL d   1     -54.765-100.416 -42.751  0.00  0.00     0.007 A 
ATOM      3  C   UNL d   1     -54.776-101.850 -42.877  0.00  0.00     0.300 A 
ATOM      4  C   UNL d   1     -54.776-100.342 -43.574  0.00  0.00     0.026 A 
ATOM      5  O   UNL d   1     -54.787-101.783 -43.711  0.00  0.00    -0.273 OA
ATOM      6  C   UNL d   1     -54.786-101.024 -44.053  0.00  0.00     0.103 A 
ATOM      7  O   UNL d   1     -54.777-102.600 -42.528  0.00  0.00    -0.259 OA
ATOM      8  C   UNL d   1     -54.775 -99.597 -43.932  0.00  0.00     0.044 A 
ATOM      9  C   UNL d   1     -54.797-100.954 -44.870  0.00  0.00     0.028 A 
ATOM     10  C   UNL d   1     -54.785 -99.532 -44.741  0.00  0.00     0.196 A 
ATOM     11  C   UNL d   1     -54.755 -99.748 -42.282  0.00  0.00     0.000 C 
ATOM     12  C   UNL d   1     -54.796-100.207 -45.216  0.00  0.00     0.044 A 
ATOM     13  O   UNL d   1     -54.785 -98.782 -45.091  0.00  0.00    -0.287 OA
ENDROOT
BRANCH   1  14
ATOM     14  C   UNL d   1     -54.755-101.240 -41.578  0.00  0.00     0.007 A 
ATOM     15  C   UNL d   1     -54.780-101.987 -41.232  0.00  0.00     0.026 A 
ATOM     16  C   UNL d   1     -54.770-102.066 -40.417  0.00  0.00     0.116 A 
ATOM     17  C   UNL d   1     -54.736-101.394 -39.939  0.00  0.00     0.116 A 
ATOM     18  C   UNL d   1     -54.711-100.638 -40.284  0.00  0.00     0.026 A 
ATOM     19  C   UNL d   1     -54.722-100.573 -41.110  0.00  0.00     0.002 A 
BRANCH  16  20
ATOM     20  O   UNL d   1     -54.793-102.808 -40.063  0.00  0.00    -0.326 OA
ATOM     21  C   UNL d   1     -55.060-102.877 -39.285  0.00  0.00     0.181 C 
ENDBRANCH  16  20
BRANCH  17  22
ATOM     22  O   UNL d   1     -54.725-101.457 -39.118  0.00  0.00    -0.326 OA
ATOM     23  C   UNL d   1     -54.716-100.761 -38.663  0.00  0.00     0.181 C 
ENDBRANCH  17  22
ENDBRANCH   1  14
TORSDOF 3
ENDMDL
MODEL 2
REMARK VINA RESULT:      53.9      1.072      4.476
REMARK  3 active torsions:
REMARK  status: ('A' for Active; 'I' for Inactive)
REMARK    1  A    between atoms: C_6  and  C_1 
REMARK    2  A    between atoms: O_19  and  C_9 
REMARK    3  A    between atoms: O_20  and  C_13 
ROOT
ATOM      1  C   UNL d   1     -54.760-101.200 -42.170  0.00  0.00     0.064 A 
ATOM      2  C   UNL d   1     -54.776-101.845 -41.647  0.00  0.00     0.007 A 
ATOM      3  C   UNL d   1     -54.733-100.423 -41.869  0.00  0.00     0.300 A 
ATOM      4  C   UNL d   1     -54.766-101.719 -40.830  0.00  0.00     0.026 A 
ATOM      5  O   UNL d   1     -54.722-100.288 -41.043  0.00  0.00    -0.273 OA
ATOM      6  C   UNL d   1     -54.739-100.943 -40.529  0.00  0.00     0.103 A 
ATOM      7  O   UNL d   1     -54.716 -99.779 -42.388  0.00  0.00    -0.259 OA
ATOM      8  C   UNL d   1     -54.782-102.356 -40.304  0.00  0.00     0.044 A 
ATOM      9  C   UNL d   1     -54.729-100.814 -39.719  0.00  0.00     0.028 A 
ATOM     10  C   UNL d   1     -54.772-102.225 -39.502  0.00  0.00     0.196 A 
ATOM     11  C   UNL d   1     -54.803-102.605 -41.942  0.00  0.00     0.000 C 
ATOM     12  C   UNL d   1     -54.745-101.457 -39.204  0.00  0.00     0.044 A 
ATOM     13  O   UNL d   1     -54.789-102.868 -38.983  0.00  0.00    -0.287 OA
ENDROOT
BRANCH   1  14
ATOM     14  C   UNL d   1     -54.770-101.327 -42.983  0.00  0.00     0.007 A 
ATOM     15  C   UNL d   1     -54.817-100.685 -43.498  0.00  0.00     0.026 A 
ATOM     16  C   UNL d   1     -54.828-100.804 -44.308  0.00  0.00     0.116 A 
ATOM     17  C   UNL d   1     -54.791-101.570 -44.611  0.00  0.00     0.116 A 
ATOM     18  C   UNL d   1     -54.743-102.221 -44.096  0.00  0.00     0.026 A 
ATOM     19  C   UNL d   1     -54.733-102.087 -43.279  0.00  0.00     0.002 A 
BRANCH  16  20
ATOM     20  O   UNL d   1     -54.875-100.169 -44.829  0.00  0.00    -0.326 OA
ATOM     21  C   UNL d   1     -55.218 -99.463 -44.577  0.00  0.00     0.181 C 
ENDBRANCH  16  20
BRANCH  17  22
ATOM     22  O   UNL d   1     -54.800-101.707 -45.424  0.00  0.00    -0.326 OA
ATOM     23  C   UNL d   1     -55.132-102.414 -45.708  0.00  0.00     0.181 C 
ENDBRANCH  17  22
ENDBRANCH   1  14
TORSDOF 3
ENDMDL
MODEL 3
REMARK VINA RESULT:      55.0      0.918      4.319
REMARK  3 active torsions:
REMARK  status: ('A' for Active; 'I' for Inactive)
REMARK    1  A    between atoms: C_6  and  C_1 
REMARK    2  A    between atoms: O_19  and  C_9 
REMARK    3  A    between atoms: O_20  and  C_13 
ROOT
ATOM      1  C   UNL d   1     -54.779-101.440 -40.918  0.00  0.00     0.064 A 
ATOM      2  C   UNL d   1     -54.753-101.090 -40.164  0.00  0.00     0.007 A 
ATOM      3  C   UNL d   1     -54.821-102.269 -40.988  0.00  0.00     0.300 A 
ATOM      4  C   UNL d   1     -54.768-101.561 -39.486  0.00  0.00     0.026 A 
ATOM      5  O   UNL d   1     -54.836-102.753 -40.305  0.00  0.00    -0.273 OA
ATOM      6  C   UNL d   1     -54.809-102.390 -39.556  0.00  0.00     0.103 A 
ATOM      7  O   UNL d   1     -54.847-102.619 -41.737  0.00  0.00    -0.259 OA
ATOM      8  C   UNL d   1     -54.741-101.221 -38.733  0.00  0.00     0.044 A 
ATOM      9  C   UNL d   1     -54.824-102.862 -38.884  0.00  0.00     0.028 A 
ATOM     10  C   UNL d   1     -54.756-101.690 -38.071  0.00  0.00     0.196 A 
ATOM     11  C   UNL d   1     -54.712-100.278 -40.096  0.00  0.00     0.000 C 
ATOM     12  C   UNL d   1     -54.798-102.511 -38.140  0.00  0.00     0.044 A 
ATOM     13  O   UNL d   1     -54.730-101.341 -37.322  0.00  0.00    -0.287 OA
ENDROOT
BRANCH   1  14
ATOM     14  C   UNL d   1     -54.765-100.968 -41.592  0.00  0.00     0.007 A 
ATOM     15  C   UNL d   1     -54.750-101.320 -42.337  0.00  0.00     0.026 A 
ATOM     16  C   UNL d   1     -54.736-100.858 -43.013  0.00  0.00     0.116 A 
ATOM     17  C   UNL d   1     -54.735-100.035 -42.948  0.00  0.00     0.116 A 
ATOM     18  C   UNL d   1     -54.749 -99.676 -42.199  0.00  0.00     0.026 A 
ATOM     19  C   UNL d   1     -54.764-100.155 -41.524  0.00  0.00     0.002 A 
BRANCH  16  20
ATOM     20  O   UNL d   1     -54.721-101.200 -43.761  0.00  0.00    -0.326 OA
ATOM     21  C   UNL d   1     -55.046-101.950 -43.869  0.00  0.00     0.181 C 
ENDBRANCH  16  20
BRANCH  17  22
ATOM     22  O   UNL d   1     -54.720 -99.556 -43.618  0.00  0.00    -0.326 OA
ATOM     23  C   UNL d   1     -55.295 -98.961 -43.699  0.00  0.00     0.181 C 
ENDBRANCH  17  22
ENDBRANCH   1  14
TORSDOF 3
ENDMDL
