MODEL 1
REMARK VINA RESULT:      62.7      0.000      0.000
REMARK  5 active torsions:
REMARK  status: ('A' for Active; 'I' for Inactive)
REMARK    1  A    between atoms: S_14  and  C_7 
REMARK       I    between atoms: N_10  and  C_13 
REMARK    2  A    between atoms: C_26  and  C_11 
REMARK    3  A    between atoms: C_22  and  N_12 
REMARK    4  A    between atoms: C_13  and  C_17 
REMARK    5  A    between atoms: C_17  and  S_14 
ROOT
ATOM      1  N   UNL d   1      42.927 -16.106  37.668  0.00  0.00    -0.224 N 
ATOM      2  N   UNL d   1      43.731 -15.197  36.897  0.00  0.00    -0.241 N 
ATOM      3  C   UNL d   1      42.990 -15.501  37.096  0.00  0.00     0.343 A 
ATOM      4  C   UNL d   1      44.408 -15.496  37.270  0.00  0.00     0.160 A 
ATOM      5  C   UNL d   1      43.604 -16.401  38.036  0.00  0.00     0.273 A 
ATOM      6  C   UNL d   1      44.344 -16.096  37.837  0.00  0.00     0.115 A 
ATOM      7  C   UNL d   1      45.022 -16.390  38.205  0.00  0.00     0.120 A 
ATOM      8  N   UNL d   1      45.156 -15.192  37.073  0.00  0.00    -0.209 NA
ATOM      9  N   UNL d   1      45.762 -16.089  38.009  0.00  0.00    -0.220 NA
ATOM     10  C   UNL d   1      45.833 -15.486  37.440  0.00  0.00     0.165 A 
ATOM     11  O   UNL d   1      42.309 -15.207  36.728  0.00  0.00    -0.245 OA
ATOM     12  O   UNL d   1      43.537 -16.999  38.601  0.00  0.00    -0.266 OA
ATOM     13  C   UNL d   1      42.187 -16.405  37.861  0.00  0.00     0.107 C 
ATOM     14  C   UNL d   1      43.794 -14.598  36.331  0.00  0.00     0.105 C 
ENDROOT
BRANCH   7  15
ATOM     15  S   UNL d   1      44.955 -16.989  38.770  0.00  0.00    -0.062 SA
BRANCH  15  16
ATOM     16  C   UNL d   1      45.573 -17.127  39.303  0.00  0.00     0.098 C 
BRANCH  16  17
ATOM     17  C   UNL d   1      45.817 -17.898  39.464  0.00  0.00     0.272 C 
ATOM     18  N   UNL d   1      45.947 -18.148  40.235  0.00  0.00    -0.269 N 
ATOM     19  C   UNL d   1      45.829 -17.614  40.861  0.00  0.00     0.102 A 
ATOM     20  C   UNL d   1      46.189 -18.912  40.391  0.00  0.00     0.102 A 
ATOM     21  C   UNL d   1      45.960 -17.869  41.631  0.00  0.00     0.100 A 
ATOM     22  N   UNL d   1      46.204 -18.637  41.790  0.00  0.00    -0.301 N 
ATOM     23  C   UNL d   1      46.319 -19.162  41.162  0.00  0.00     0.100 A 
ATOM     24  O   UNL d   1      45.933 -18.426  38.839  0.00  0.00    -0.266 OA
BRANCH  22  25
ATOM     25  C   UNL d   1      46.333 -18.887  42.561  0.00  0.00     0.064 A 
ATOM     26  C   UNL d   1      46.292 -19.682  42.758  0.00  0.00     0.018 A 
ATOM     27  C   UNL d   1      46.422 -19.938  43.535  0.00  0.00     0.002 A 
ATOM     28  C   UNL d   1      46.597 -19.385  44.123  0.00  0.00     0.000 A 
ATOM     29  C   UNL d   1      46.639 -18.574  43.923  0.00  0.00     0.002 A 
ATOM     30  C   UNL d   1      46.509 -18.339  43.154  0.00  0.00     0.018 A 
ENDBRANCH  22  25
ENDBRANCH  16  17
ENDBRANCH  15  16
ENDBRANCH   7  15
BRANCH  10  31
ATOM     31  C   UNL d   1      46.579 -15.184  37.245  0.00  0.00     0.039 C 
ATOM     32  C   UNL d   1      46.645 -14.455  36.865  0.00  0.00     0.003 C 
ENDBRANCH  10  31
TORSDOF 5
ENDMDL
