MODEL 1
REMARK VINA RESULT:      52.8      0.000      0.000
REMARK  10 active torsions:
REMARK  status: ('A' for Active; 'I' for Inactive)
REMARK    1  A    between atoms: C_10  and  N_1 
REMARK    2  A    between atoms: S_7  and  C_2 
REMARK    3  A    between atoms: C_9  and  C_3 
REMARK       I    between atoms: C_6  and  N_8 
REMARK    4  A    between atoms: C_11  and  C_6 
REMARK    5  A    between atoms: C_15  and  S_7 
REMARK    6  A    between atoms: N_8  and  C_9 
REMARK    7  A    between atoms: C_12  and  C_15 
REMARK    8  A    between atoms: O_21  and  C_12 
REMARK    9  A    between atoms: O_22  and  C_18 
REMARK   10  A    between atoms: C_25  and  O_21 
ROOT
ATOM      1  N   UNL d   1      13.678  13.808  -3.902  0.00  0.00    -0.268 N 
ATOM      2  C   UNL d   1      13.917  13.832  -3.112  0.00  0.00     0.201 A 
ATOM      3  C   UNL d   1      13.607  14.597  -4.159  0.00  0.00     0.190 A 
ATOM      4  N   UNL d   1      13.991  14.626  -2.885  0.00  0.00    -0.121 NA
ATOM      5  N   UNL d   1      13.802  15.096  -3.524  0.00  0.00    -0.126 NA
ENDROOT
BRANCH   3   6
ATOM      6  C   UNL d   1      13.381  14.843  -4.915  0.00  0.00     0.141 C 
BRANCH   6   7
ATOM      7  N   UNL d   1      13.542  15.657  -4.907  0.00  0.00    -0.203 NA
ATOM      8  C   UNL d   1      13.561  16.078  -5.617  0.00  0.00     0.279 C 
ATOM      9  O   UNL d   1      13.421  15.697  -6.330  0.00  0.00    -0.265 OA
BRANCH   8  10
ATOM     10  C   UNL d   1      13.721  16.887  -5.601  0.00  0.00     0.058 A 
ATOM     11  C   UNL d   1      13.302  17.404  -6.078  0.00  0.00     0.007 A 
ATOM     12  C   UNL d   1      13.462  18.213  -6.063  0.00  0.00     0.024 A 
ATOM     13  C   UNL d   1      14.053  18.499  -5.559  0.00  0.00     0.094 A 
ATOM     14  C   UNL d   1      14.472  17.981  -5.083  0.00  0.00     0.024 A 
ATOM     15  C   UNL d   1      14.312  17.172  -5.098  0.00  0.00     0.007 A 
BRANCH  13  16
ATOM     16  O   UNL d   1      14.213  19.308  -5.544  0.00  0.00    -0.328 OA
ATOM     17  C   UNL d   1      14.390  19.700  -6.241  0.00  0.00     0.181 C 
ENDBRANCH  13  16
ENDBRANCH   8  10
ENDBRANCH   6   7
ENDBRANCH   3   6
BRANCH   1  18
ATOM     18  C   UNL d   1      13.541  13.138  -4.344  0.00  0.00     0.067 A 
ATOM     19  C   UNL d   1      12.919  12.638  -4.146  0.00  0.00     0.018 A 
ATOM     20  C   UNL d   1      12.779  11.958  -4.595  0.00  0.00     0.002 A 
ATOM     21  C   UNL d   1      13.261  11.781  -5.240  0.00  0.00     0.000 A 
ATOM     22  C   UNL d   1      13.881  12.285  -5.434  0.00  0.00     0.002 A 
ATOM     23  C   UNL d   1      14.020  12.958  -4.990  0.00  0.00     0.018 A 
ENDBRANCH   1  18
BRANCH   2  24
ATOM     24  S   UNL d   1      14.058  13.177  -2.626  0.00  0.00    -0.042 SA
BRANCH  24  25
ATOM     25  C   UNL d   1      14.075  13.261  -1.806  0.00  0.00     0.107 C 
BRANCH  25  26
ATOM     26  C   UNL d   1      14.576  12.787  -1.361  0.00  0.00     0.307 C 
ATOM     27  O   UNL d   1      15.318  12.595  -1.641  0.00  0.00    -0.258 OA
BRANCH  26  28
ATOM     28  O   UNL d   1      14.324  12.505  -0.627  0.00  0.00    -0.271 OA
BRANCH  28  29
ATOM     29  C   UNL d   1      13.926  11.788  -0.583  0.00  0.00     0.126 C 
ATOM     30  C   UNL d   1      13.112  11.781  -0.456  0.00  0.00     0.029 C 
ENDBRANCH  28  29
ENDBRANCH  26  28
ENDBRANCH  25  26
ENDBRANCH  24  25
ENDBRANCH   2  24
TORSDOF 10
ENDMDL
