MODEL 1
REMARK VINA RESULT:      -7.3      0.000      0.000
REMARK  5 active torsions:
REMARK  status: ('A' for Active; 'I' for Inactive)
REMARK    1  A    between atoms: N_10  and  C_2 
REMARK    2  A    between atoms: C_13  and  C_3 
REMARK    3  A    between atoms: C_5  and  S_14 
REMARK       I    between atoms: C_12  and  N_10 
REMARK    4  A    between atoms: C_18  and  C_12 
REMARK    5  A    between atoms: S_14  and  C_18 
ROOT
ATOM      1  N   UNL d   1     -49.149  12.566  23.459  0.00  0.00    -0.051 NA
ATOM      2  C   UNL d   1     -48.856  11.941  23.008  0.00  0.00     0.760 A 
ATOM      3  C   UNL d   1     -49.530  13.091  22.954  0.00  0.00     0.147 A 
ATOM      4  N   UNL d   1     -49.050  12.073  22.230  0.00  0.00    -0.019 NA
ATOM      5  S   UNL d   1     -49.471  12.787  22.185  0.00  0.00     0.052 SA
ENDROOT
BRANCH   2   6
ATOM      6  N   UNL d   1     -48.437  11.296  23.304  0.00  0.00    -0.018 NA
ATOM      7  C   UNL d   1     -47.620  11.338  23.404  0.00  0.00     0.302 C 
ATOM      8  O   UNL d   1     -47.203  10.698  23.698  0.00  0.00    -0.264 OA
BRANCH   7   9
ATOM      9  C   UNL d   1     -47.216  12.038  23.204  0.00  0.00     0.100 C 
BRANCH   9  10
ATOM     10  S   UNL d   1     -46.429  12.130  23.417  0.00  0.00    -0.054 SA
BRANCH  10  11
ATOM     11  C   UNL d   1     -45.946  12.647  23.002  0.00  0.00     0.164 A 
ATOM     12  S   UNL d   1     -45.362  12.433  22.467  0.00  0.00    -0.039 SA
ATOM     13  C   UNL d   1     -45.013  13.126  22.180  0.00  0.00     0.134 A 
ATOM     14  C   UNL d   1     -44.397  13.159  21.627  0.00  0.00     0.030 C 
ATOM     15  N   UNL d   1     -45.383  13.762  22.540  0.00  0.00    -0.140 NA
ATOM     16  N   UNL d   1     -45.964  13.466  23.051  0.00  0.00    -0.134 NA
ENDBRANCH  10  11
ENDBRANCH   9  10
ENDBRANCH   7   9
ENDBRANCH   2   6
BRANCH   3  17
ATOM     17  C   UNL d   1     -49.914  13.804  23.135  0.00  0.00     0.026 A 
ATOM     18  C   UNL d   1     -50.659  13.789  23.484  0.00  0.00     0.002 A 
ATOM     19  C   UNL d   1     -51.043  14.493  23.665  0.00  0.00     0.000 A 
ATOM     20  C   UNL d   1     -50.682  15.215  23.496  0.00  0.00     0.000 A 
ATOM     21  C   UNL d   1     -49.924  15.230  23.141  0.00  0.00     0.000 A 
ATOM     22  C   UNL d   1     -51.064  15.922  23.677  0.00  0.00     0.000 C 
ATOM     23  C   UNL d   1     -49.543  14.520  22.962  0.00  0.00     0.002 A 
ENDBRANCH   3  17
TORSDOF 5
ENDMDL
MODEL 2
REMARK VINA RESULT:      -6.1      1.757      4.202
REMARK  5 active torsions:
REMARK  status: ('A' for Active; 'I' for Inactive)
REMARK    1  A    between atoms: N_10  and  C_2 
REMARK    2  A    between atoms: C_13  and  C_3 
REMARK    3  A    between atoms: C_5  and  S_14 
REMARK       I    between atoms: C_12  and  N_10 
REMARK    4  A    between atoms: C_18  and  C_12 
REMARK    5  A    between atoms: S_14  and  C_18 
ROOT
ATOM      1  N   UNL d   1     -48.554  12.124  23.192  0.00  0.00    -0.051 NA
ATOM      2  C   UNL d   1     -49.027  11.505  22.922  0.00  0.00     0.760 A 
ATOM      3  C   UNL d   1     -47.922  12.211  22.674  0.00  0.00     0.147 A 
ATOM      4  N   UNL d   1     -48.695  11.207  22.243  0.00  0.00    -0.019 NA
ATOM      5  S   UNL d   1     -48.007  11.640  22.079  0.00  0.00     0.052 SA
ENDROOT
BRANCH   2   6
ATOM      6  N   UNL d   1     -49.717  11.239  23.286  0.00  0.00    -0.018 NA
ATOM      7  C   UNL d   1     -50.378  11.729  23.336  0.00  0.00     0.302 C 
ATOM      8  O   UNL d   1     -51.064  11.465  23.697  0.00  0.00    -0.264 OA
BRANCH   7   9
ATOM      9  C   UNL d   1     -50.347  12.496  23.018  0.00  0.00     0.100 C 
BRANCH   9  10
ATOM     10  S   UNL d   1     -51.013  12.974  23.038  0.00  0.00    -0.054 SA
BRANCH  10  11
ATOM     11  C   UNL d   1     -50.966  13.761  22.810  0.00  0.00     0.164 A 
ATOM     12  S   UNL d   1     -50.813  14.396  23.306  0.00  0.00    -0.039 SA
ATOM     13  C   UNL d   1     -50.816  15.084  22.847  0.00  0.00     0.134 A 
ATOM     14  C   UNL d   1     -50.684  15.851  23.132  0.00  0.00     0.030 C 
ATOM     15  N   UNL d   1     -50.971  14.869  22.071  0.00  0.00    -0.140 NA
ATOM     16  N   UNL d   1     -51.064  14.047  22.047  0.00  0.00    -0.134 NA
ENDBRANCH  10  11
ENDBRANCH   9  10
ENDBRANCH   7   9
ENDBRANCH   2   6
BRANCH   3  17
ATOM     17  C   UNL d   1     -47.295  12.754  22.701  0.00  0.00     0.026 A 
ATOM     18  C   UNL d   1     -47.238  13.340  22.128  0.00  0.00     0.002 A 
ATOM     19  C   UNL d   1     -46.618  13.880  22.150  0.00  0.00     0.000 A 
ATOM     20  C   UNL d   1     -46.053  13.833  22.750  0.00  0.00     0.000 A 
ATOM     21  C   UNL d   1     -46.112  13.236  23.334  0.00  0.00     0.000 A 
ATOM     22  C   UNL d   1     -45.431  14.373  22.776  0.00  0.00     0.000 C 
ATOM     23  C   UNL d   1     -46.737  12.697  23.305  0.00  0.00     0.002 A 
ENDBRANCH   3  17
TORSDOF 5
ENDMDL
MODEL 3
REMARK VINA RESULT:      -6.1      1.490      4.692
REMARK  5 active torsions:
REMARK  status: ('A' for Active; 'I' for Inactive)
REMARK    1  A    between atoms: N_10  and  C_2 
REMARK    2  A    between atoms: C_13  and  C_3 
REMARK    3  A    between atoms: C_5  and  S_14 
REMARK       I    between atoms: C_12  and  N_10 
REMARK    4  A    between atoms: C_18  and  C_12 
REMARK    5  A    between atoms: S_14  and  C_18 
ROOT
ATOM      1  N   UNL d   1     -46.666  11.788  23.042  0.00  0.00    -0.051 NA
ATOM      2  C   UNL d   1     -47.331  11.973  23.493  0.00  0.00     0.760 A 
ATOM      3  C   UNL d   1     -46.209  12.466  22.966  0.00  0.00     0.147 A 
ATOM      4  N   UNL d   1     -47.291  12.758  23.698  0.00  0.00    -0.019 NA
ATOM      5  S   UNL d   1     -46.595  13.075  23.375  0.00  0.00     0.052 SA
ENDROOT
BRANCH   2   6
ATOM      6  N   UNL d   1     -47.930  11.445  23.697  0.00  0.00    -0.018 NA
ATOM      7  C   UNL d   1     -48.675  11.504  23.349  0.00  0.00     0.302 C 
ATOM      8  O   UNL d   1     -49.272  10.981  23.551  0.00  0.00    -0.264 OA
BRANCH   7   9
ATOM      9  C   UNL d   1     -48.822  12.101  22.788  0.00  0.00     0.100 C 
BRANCH   9  10
ATOM     10  S   UNL d   1     -49.502  12.073  22.331  0.00  0.00    -0.054 SA
BRANCH  10  11
ATOM     11  C   UNL d   1     -49.779  12.750  21.958  0.00  0.00     0.164 A 
ATOM     12  S   UNL d   1     -50.405  13.215  22.211  0.00  0.00    -0.039 SA
ATOM     13  C   UNL d   1     -50.493  13.838  21.674  0.00  0.00     0.134 A 
ATOM     14  C   UNL d   1     -51.064  14.437  21.725  0.00  0.00     0.030 C 
ATOM     15  N   UNL d   1     -49.921  13.753  21.094  0.00  0.00    -0.140 NA
ATOM     16  N   UNL d   1     -49.477  13.077  21.269  0.00  0.00    -0.134 NA
ENDBRANCH  10  11
ENDBRANCH   9  10
ENDBRANCH   7   9
ENDBRANCH   2   6
BRANCH   3  17
ATOM     17  C   UNL d   1     -45.489  12.569  22.566  0.00  0.00     0.026 A 
ATOM     18  C   UNL d   1     -44.885  12.019  22.663  0.00  0.00     0.002 A 
ATOM     19  C   UNL d   1     -44.171  12.117  22.269  0.00  0.00     0.000 A 
ATOM     20  C   UNL d   1     -44.059  12.769  21.775  0.00  0.00     0.000 A 
ATOM     21  C   UNL d   1     -44.674  13.329  21.677  0.00  0.00     0.000 A 
ATOM     22  C   UNL d   1     -43.344  12.870  21.379  0.00  0.00     0.000 C 
ATOM     23  C   UNL d   1     -45.389  13.225  22.076  0.00  0.00     0.002 A 
ENDBRANCH   3  17
TORSDOF 5
ENDMDL
MODEL 4
REMARK VINA RESULT:      -5.4      1.912      5.061
REMARK  5 active torsions:
REMARK  status: ('A' for Active; 'I' for Inactive)
REMARK    1  A    between atoms: N_10  and  C_2 
REMARK    2  A    between atoms: C_13  and  C_3 
REMARK    3  A    between atoms: C_5  and  S_14 
REMARK       I    between atoms: C_12  and  N_10 
REMARK    4  A    between atoms: C_18  and  C_12 
REMARK    5  A    between atoms: S_14  and  C_18 
ROOT
ATOM      1  N   UNL d   1     -45.884  13.293  23.094  0.00  0.00    -0.051 NA
ATOM      2  C   UNL d   1     -46.229  13.841  22.582  0.00  0.00     0.760 A 
ATOM      3  C   UNL d   1     -45.590  12.671  22.645  0.00  0.00     0.147 A 
ATOM      4  N   UNL d   1     -46.151  13.565  21.822  0.00  0.00    -0.019 NA
ATOM      5  S   UNL d   1     -45.754  12.836  21.850  0.00  0.00     0.052 SA
ENDROOT
BRANCH   2   6
ATOM      6  N   UNL d   1     -46.589  14.546  22.811  0.00  0.00    -0.018 NA
ATOM      7  C   UNL d   1     -47.411  14.611  22.822  0.00  0.00     0.302 C 
ATOM      8  O   UNL d   1     -47.770  15.310  23.050  0.00  0.00    -0.264 OA
BRANCH   7   9
ATOM      9  C   UNL d   1     -47.878  13.959  22.600  0.00  0.00     0.100 C 
BRANCH   9  10
ATOM     10  S   UNL d   1     -48.694  13.994  22.683  0.00  0.00    -0.054 SA
BRANCH  10  11
ATOM     11  C   UNL d   1     -49.154  13.332  22.537  0.00  0.00     0.164 A 
ATOM     12  S   UNL d   1     -49.598  12.922  23.092  0.00  0.00    -0.039 SA
ATOM     13  C   UNL d   1     -49.973  12.295  22.706  0.00  0.00     0.134 A 
ATOM     14  C   UNL d   1     -50.476  11.743  23.067  0.00  0.00     0.030 C 
ATOM     15  N   UNL d   1     -49.759  12.320  21.916  0.00  0.00    -0.140 NA
ATOM     16  N   UNL d   1     -49.250  12.965  21.809  0.00  0.00    -0.134 NA
ENDBRANCH  10  11
ENDBRANCH   9  10
ENDBRANCH   7   9
ENDBRANCH   2   6
BRANCH   3  17
ATOM     17  C   UNL d   1     -45.195  11.986  22.897  0.00  0.00     0.026 A 
ATOM     18  C   UNL d   1     -45.596  11.426  23.346  0.00  0.00     0.002 A 
ATOM     19  C   UNL d   1     -45.209  10.745  23.598  0.00  0.00     0.000 A 
ATOM     20  C   UNL d   1     -44.416  10.625  23.400  0.00  0.00     0.000 A 
ATOM     21  C   UNL d   1     -44.009  11.196  22.943  0.00  0.00     0.000 A 
ATOM     22  C   UNL d   1     -44.026   9.945  23.651  0.00  0.00     0.000 C 
ATOM     23  C   UNL d   1     -44.403  11.877  22.693  0.00  0.00     0.002 A 
ENDBRANCH   3  17
TORSDOF 5
ENDMDL
MODEL 5
REMARK VINA RESULT:      -4.9      1.969      2.649
REMARK  5 active torsions:
REMARK  status: ('A' for Active; 'I' for Inactive)
REMARK    1  A    between atoms: N_10  and  C_2 
REMARK    2  A    between atoms: C_13  and  C_3 
REMARK    3  A    between atoms: C_5  and  S_14 
REMARK       I    between atoms: C_12  and  N_10 
REMARK    4  A    between atoms: C_18  and  C_12 
REMARK    5  A    between atoms: S_14  and  C_18 
ROOT
ATOM      1  N   UNL d   1     -48.987  14.128  22.800  0.00  0.00    -0.051 NA
ATOM      2  C   UNL d   1     -48.685  14.644  22.231  0.00  0.00     0.760 A 
ATOM      3  C   UNL d   1     -49.421  13.546  22.415  0.00  0.00     0.147 A 
ATOM      4  N   UNL d   1     -48.927  14.388  21.499  0.00  0.00    -0.019 NA
ATOM      5  S   UNL d   1     -49.386  13.704  21.602  0.00  0.00     0.052 SA
ENDROOT
BRANCH   2   6
ATOM      6  N   UNL d   1     -48.218  15.305  22.388  0.00  0.00    -0.018 NA
ATOM      7  C   UNL d   1     -47.412  15.220  22.538  0.00  0.00     0.302 C 
ATOM      8  O   UNL d   1     -46.947  15.876  22.693  0.00  0.00    -0.264 OA
BRANCH   7   9
ATOM      9  C   UNL d   1     -47.069  14.462  22.532  0.00  0.00     0.100 C 
BRANCH   9  10
ATOM     10  S   UNL d   1     -46.261  14.378  22.647  0.00  0.00    -0.054 SA
BRANCH  10  11
ATOM     11  C   UNL d   1     -45.937  13.638  22.790  0.00  0.00     0.164 A 
ATOM     12  S   UNL d   1     -45.360  13.271  22.337  0.00  0.00    -0.039 SA
ATOM     13  C   UNL d   1     -45.198  12.536  22.679  0.00  0.00     0.134 A 
ATOM     14  C   UNL d   1     -44.647  11.986  22.394  0.00  0.00     0.030 C 
ATOM     15  N   UNL d   1     -45.675  12.454  23.340  0.00  0.00    -0.140 NA
ATOM     16  N   UNL d   1     -46.135  13.139  23.410  0.00  0.00    -0.134 NA
ENDBRANCH  10  11
ENDBRANCH   9  10
ENDBRANCH   7   9
ENDBRANCH   2   6
BRANCH   3  17
ATOM     17  C   UNL d   1     -49.833  12.902  22.738  0.00  0.00     0.026 A 
ATOM     18  C   UNL d   1     -50.648  12.852  22.649  0.00  0.00     0.002 A 
ATOM     19  C   UNL d   1     -51.061  12.216  22.967  0.00  0.00     0.000 A 
ATOM     20  C   UNL d   1     -50.654  11.627  23.378  0.00  0.00     0.000 A 
ATOM     21  C   UNL d   1     -49.824  11.677  23.469  0.00  0.00     0.000 A 
ATOM     22  C   UNL d   1     -51.064  10.988  23.698  0.00  0.00     0.000 C 
ATOM     23  C   UNL d   1     -49.416  12.319  23.146  0.00  0.00     0.002 A 
ENDBRANCH   3  17
TORSDOF 5
ENDMDL
MODEL 6
REMARK VINA RESULT:      -4.8      1.460      2.914
REMARK  5 active torsions:
REMARK  status: ('A' for Active; 'I' for Inactive)
REMARK    1  A    between atoms: N_10  and  C_2 
REMARK    2  A    between atoms: C_13  and  C_3 
REMARK    3  A    between atoms: C_5  and  S_14 
REMARK       I    between atoms: C_12  and  N_10 
REMARK    4  A    between atoms: C_18  and  C_12 
REMARK    5  A    between atoms: S_14  and  C_18 
ROOT
ATOM      1  N   UNL d   1     -47.501  14.158  23.215  0.00  0.00    -0.051 NA
ATOM      2  C   UNL d   1     -46.731  14.073  22.933  0.00  0.00     0.760 A 
ATOM      3  C   UNL d   1     -47.878  14.733  22.765  0.00  0.00     0.147 A 
ATOM      4  N   UNL d   1     -46.627  14.588  22.313  0.00  0.00    -0.019 NA
ATOM      5  S   UNL d   1     -47.336  15.005  22.200  0.00  0.00     0.052 SA
ENDROOT
BRANCH   2   6
ATOM      6  N   UNL d   1     -46.168  13.552  23.234  0.00  0.00    -0.018 NA
ATOM      7  C   UNL d   1     -46.362  12.762  23.373  0.00  0.00     0.302 C 
ATOM      8  O   UNL d   1     -45.804  12.243  23.672  0.00  0.00    -0.264 OA
BRANCH   7   9
ATOM      9  C   UNL d   1     -47.131  12.492  23.209  0.00  0.00     0.100 C 
BRANCH   9  10
ATOM     10  S   UNL d   1     -47.311  11.696  23.291  0.00  0.00    -0.054 SA
BRANCH  10  11
ATOM     11  C   UNL d   1     -48.076  11.429  23.167  0.00  0.00     0.164 A 
ATOM     12  S   UNL d   1     -48.699  11.490  23.698  0.00  0.00    -0.039 SA
ATOM     13  C   UNL d   1     -49.367  11.151  23.348  0.00  0.00     0.134 A 
ATOM     14  C   UNL d   1     -50.116  11.097  23.698  0.00  0.00     0.030 C 
ATOM     15  N   UNL d   1     -49.153  10.883  22.604  0.00  0.00    -0.140 NA
ATOM     16  N   UNL d   1     -48.351  11.055  22.490  0.00  0.00    -0.134 NA
ENDBRANCH  10  11
ENDBRANCH   9  10
ENDBRANCH   7   9
ENDBRANCH   2   6
BRANCH   3  17
ATOM     17  C   UNL d   1     -48.655  15.019  22.828  0.00  0.00     0.026 A 
ATOM     18  C   UNL d   1     -48.895  15.399  23.517  0.00  0.00     0.002 A 
ATOM     19  C   UNL d   1     -49.663  15.684  23.584  0.00  0.00     0.000 A 
ATOM     20  C   UNL d   1     -50.193  15.589  22.958  0.00  0.00     0.000 A 
ATOM     21  C   UNL d   1     -49.948  15.203  22.257  0.00  0.00     0.000 A 
ATOM     22  C   UNL d   1     -50.964  15.874  23.022  0.00  0.00     0.000 C 
ATOM     23  C   UNL d   1     -49.175  14.919  22.197  0.00  0.00     0.002 A 
ENDBRANCH   3  17
TORSDOF 5
ENDMDL
