MODEL 1
REMARK VINA RESULT:       2.8      0.000      0.000
REMARK  1 active torsions:
REMARK  status: ('A' for Active; 'I' for Inactive)
REMARK       I    between atoms: N_4  and  C_1 
REMARK    1  A    between atoms: C_9  and  N_4 
ROOT
ATOM      1  C   UNL d   1      45.086 -13.237  43.671  0.00  0.00     0.121 A 
ATOM      2  C   UNL d   1      44.910 -13.976  43.989  0.00  0.00     0.046 A 
ATOM      3  C   UNL d   1      45.698 -12.788  43.992  0.00  0.00     0.119 A 
ATOM      4  O   UNL d   1      44.758 -12.808  43.049  0.00  0.00    -0.299 OA
ATOM      5  O   UNL d   1      45.746 -12.080  43.564  0.00  0.00    -0.300 OA
ATOM      6  C   UNL d   1      45.349 -14.269  44.633  0.00  0.00     0.102 A 
ATOM      7  C   UNL d   1      45.171 -12.092  42.987  0.00  0.00     0.304 A 
ATOM      8  C   UNL d   1      46.133 -13.078  44.629  0.00  0.00     0.028 A 
ATOM      9  C   UNL d   1      45.961 -13.821  44.954  0.00  0.00     0.022 A 
ENDROOT
BRANCH   6  10
ATOM     10  N   UNL d   1      45.168 -15.020  44.954  0.00  0.00    -0.056 NA
ATOM     11  C   UNL d   1      45.514 -15.705  44.637  0.00  0.00     0.787 C 
ATOM     12  N   UNL d   1      45.334 -16.443  44.955  0.00  0.00     0.064 N 
ATOM     13  N   UNL d   1      46.037 -15.649  44.003  0.00  0.00     0.064 N 
ENDBRANCH   6  10
TORSDOF 1
ENDMDL
MODEL 2
REMARK VINA RESULT:       2.9      5.459      6.044
REMARK  1 active torsions:
REMARK  status: ('A' for Active; 'I' for Inactive)
REMARK       I    between atoms: N_4  and  C_1 
REMARK    1  A    between atoms: C_9  and  N_4 
ROOT
ATOM      1  C   UNL d   1      46.636 -18.696  41.806  0.00  0.00     0.121 A 
ATOM      2  C   UNL d   1      46.638 -18.809  42.621  0.00  0.00     0.046 A 
ATOM      3  C   UNL d   1      46.639 -19.348  41.302  0.00  0.00     0.119 A 
ATOM      4  O   UNL d   1      46.631 -18.018  41.339  0.00  0.00    -0.299 OA
ATOM      5  O   UNL d   1      46.636 -19.068  40.522  0.00  0.00    -0.300 OA
ATOM      6  C   UNL d   1      46.643 -19.580  42.936  0.00  0.00     0.102 A 
ATOM      7  C   UNL d   1      46.631 -18.253  40.544  0.00  0.00     0.304 A 
ATOM      8  C   UNL d   1      46.645 -20.112  41.614  0.00  0.00     0.028 A 
ATOM      9  C   UNL d   1      46.647 -20.232  42.433  0.00  0.00     0.022 A 
ENDROOT
BRANCH   6  10
ATOM     10  N   UNL d   1      46.645 -19.691  43.765  0.00  0.00    -0.056 NA
ATOM     11  C   UNL d   1      46.005 -20.066  44.139  0.00  0.00     0.787 C 
ATOM     12  N   UNL d   1      46.009 -20.174  44.955  0.00  0.00     0.064 N 
ATOM     13  N   UNL d   1      45.363 -20.329  43.694  0.00  0.00     0.064 N 
ENDBRANCH   6  10
TORSDOF 1
ENDMDL
MODEL 3
REMARK VINA RESULT:       3.1      7.253      7.767
REMARK  1 active torsions:
REMARK  status: ('A' for Active; 'I' for Inactive)
REMARK       I    between atoms: N_4  and  C_1 
REMARK    1  A    between atoms: C_9  and  N_4 
ROOT
ATOM      1  C   UNL d   1      45.431 -14.919  36.652  0.00  0.00     0.121 A 
ATOM      2  C   UNL d   1      44.680 -15.074  36.354  0.00  0.00     0.046 A 
ATOM      3  C   UNL d   1      45.750 -15.408  37.233  0.00  0.00     0.119 A 
ATOM      4  O   UNL d   1      45.984 -14.332  36.486  0.00  0.00    -0.299 OA
ATOM      5  O   UNL d   1      46.503 -15.120  37.424  0.00  0.00    -0.300 OA
ATOM      6  C   UNL d   1      44.244 -15.724  36.639  0.00  0.00     0.102 A 
ATOM      7  C   UNL d   1      46.647 -14.461  36.966  0.00  0.00     0.304 A 
ATOM      8  C   UNL d   1      45.318 -16.052  37.515  0.00  0.00     0.028 A 
ATOM      9  C   UNL d   1      44.562 -16.213  37.219  0.00  0.00     0.022 A 
ENDROOT
BRANCH   6  10
ATOM     10  N   UNL d   1      43.480 -15.880  36.334  0.00  0.00    -0.056 NA
ATOM     11  C   UNL d   1      42.808 -15.563  36.705  0.00  0.00     0.787 C 
ATOM     12  N   UNL d   1      42.058 -15.718  36.403  0.00  0.00     0.064 N 
ATOM     13  N   UNL d   1      42.890 -15.093  37.377  0.00  0.00     0.064 N 
ENDBRANCH   6  10
TORSDOF 1
ENDMDL
MODEL 4
REMARK VINA RESULT:       3.7      5.359      6.281
REMARK  1 active torsions:
REMARK  status: ('A' for Active; 'I' for Inactive)
REMARK       I    between atoms: N_4  and  C_1 
REMARK    1  A    between atoms: C_9  and  N_4 
ROOT
ATOM      1  C   UNL d   1      46.522 -19.081  43.745  0.00  0.00     0.121 A 
ATOM      2  C   UNL d   1      46.521 -18.586  43.087  0.00  0.00     0.046 A 
ATOM      3  C   UNL d   1      46.584 -19.897  43.643  0.00  0.00     0.119 A 
ATOM      4  O   UNL d   1      46.471 -18.932  44.552  0.00  0.00    -0.299 OA
ATOM      5  O   UNL d   1      46.570 -20.249  44.393  0.00  0.00    -0.300 OA
ATOM      6  C   UNL d   1      46.582 -18.908  42.321  0.00  0.00     0.102 A 
ATOM      7  C   UNL d   1      46.501 -19.659  44.950  0.00  0.00     0.304 A 
ATOM      8  C   UNL d   1      46.644 -20.215  42.884  0.00  0.00     0.028 A 
ATOM      9  C   UNL d   1      46.644 -19.722  42.219  0.00  0.00     0.022 A 
ENDROOT
BRANCH   6  10
ATOM     10  N   UNL d   1      46.581 -18.402  41.655  0.00  0.00    -0.056 NA
ATOM     11  C   UNL d   1      46.579 -18.720  40.888  0.00  0.00     0.787 C 
ATOM     12  N   UNL d   1      46.578 -18.220  40.234  0.00  0.00     0.064 N 
ATOM     13  N   UNL d   1      46.579 -19.537  40.779  0.00  0.00     0.064 N 
ENDBRANCH   6  10
TORSDOF 1
ENDMDL
