MODEL 1
REMARK VINA RESULT:     106.4      0.000      0.000
REMARK  7 active torsions:
REMARK  status: ('A' for Active; 'I' for Inactive)
REMARK       I    between atoms: N_2  and  C_13 
REMARK    1  A    between atoms: C_11  and  C_6 
REMARK    2  A    between atoms: C_14  and  C_7 
REMARK    3  A    between atoms: S_18  and  C_9 
REMARK    4  A    between atoms: C_13  and  C_19 
REMARK    5  A    between atoms: O_26  and  C_15 
REMARK    6  A    between atoms: C_19  and  S_18 
REMARK    7  A    between atoms: O_29  and  C_22 
ROOT
ATOM      1  N   UNL d   1     -48.796  30.362  33.979  0.00  0.00    -0.194 N 
ATOM      2  N   UNL d   1     -48.955  31.117  33.694  0.00  0.00    -0.162 NA
ATOM      3  C   UNL d   1     -48.133  30.414  34.468  0.00  0.00     0.090 A 
ATOM      4  C   UNL d   1     -48.385  31.631  34.012  0.00  0.00     0.109 A 
ATOM      5  C   UNL d   1     -47.894  31.186  34.480  0.00  0.00     0.041 A 
ATOM      6  C   UNL d   1     -49.219  29.696  33.805  0.00  0.00     0.287 C 
ATOM      7  O   UNL d   1     -49.871  29.733  33.306  0.00  0.00    -0.265 OA
ENDROOT
BRANCH   6   8
ATOM      8  C   UNL d   1     -49.000  28.968  34.129  0.00  0.00     0.100 C 
BRANCH   8   9
ATOM      9  S   UNL d   1     -48.956  28.298  33.643  0.00  0.00    -0.054 SA
BRANCH   9  10
ATOM     10  C   UNL d   1     -49.607  27.787  33.573  0.00  0.00     0.163 A 
ATOM     11  S   UNL d   1     -49.573  26.944  33.556  0.00  0.00    -0.021 SA
ATOM     12  C   UNL d   1     -50.354  26.658  33.480  0.00  0.00     0.200 A 
ATOM     13  N   UNL d   1     -50.403  25.840  33.456  0.00  0.00    -0.182 NA
ATOM     14  N   UNL d   1     -50.879  27.313  33.448  0.00  0.00    -0.204 N 
ATOM     15  C   UNL d   1     -51.142  25.556  33.383  0.00  0.00     0.281 A 
ATOM     16  O   UNL d   1     -50.776  24.804  33.398  0.00  0.00    -0.265 OA
ATOM     17  C   UNL d   1     -51.927  25.901  33.321  0.00  0.00     0.064 A 
ATOM     18  C   UNL d   1     -52.135  26.742  33.323  0.00  0.00     0.026 A 
ATOM     19  C   UNL d   1     -51.601  27.385  33.385  0.00  0.00     0.103 A 
ATOM     20  N   UNL d   1     -50.416  28.013  33.506  0.00  0.00    -0.150 NA
ENDBRANCH   9  10
ENDBRANCH   8   9
ENDBRANCH   6   8
BRANCH   3  21
ATOM     21  C   UNL d   1     -47.797  29.781  34.859  0.00  0.00     0.042 A 
ATOM     22  C   UNL d   1     -47.628  29.862  35.661  0.00  0.00     0.118 A 
ATOM     23  C   UNL d   1     -47.287  29.225  36.072  0.00  0.00     0.116 A 
ATOM     24  C   UNL d   1     -47.121  28.521  35.675  0.00  0.00     0.026 A 
ATOM     25  C   UNL d   1     -47.291  28.448  34.879  0.00  0.00     0.002 A 
ATOM     26  C   UNL d   1     -47.633  29.086  34.471  0.00  0.00     0.004 A 
BRANCH  22  27
ATOM     27  O   UNL d   1     -47.793  30.563  36.060  0.00  0.00    -0.326 OA
ATOM     28  C   UNL d   1     -48.148  30.521  36.799  0.00  0.00     0.181 C 
ENDBRANCH  22  27
BRANCH  23  29
ATOM     29  O   UNL d   1     -47.118  29.306  36.872  0.00  0.00    -0.326 OA
ATOM     30  C   UNL d   1     -46.616  28.770  37.245  0.00  0.00     0.181 C 
ENDBRANCH  23  29
ENDBRANCH   3  21
BRANCH   4  31
ATOM     31  C   UNL d   1     -48.341  32.433  33.870  0.00  0.00     0.049 A 
ATOM     32  S   UNL d   1     -48.928  32.897  33.528  0.00  0.00    -0.085 SA
ATOM     33  C   UNL d   1     -48.646  33.678  33.492  0.00  0.00     0.035 A 
ATOM     34  C   UNL d   1     -47.888  33.682  33.813  0.00  0.00     0.007 A 
ATOM     35  C   UNL d   1     -47.714  32.908  34.042  0.00  0.00     0.009 A 
ENDBRANCH   4  31
TORSDOF 7
ENDMDL
