MODEL 1
REMARK VINA RESULT:      -6.9      0.000      0.000
REMARK  6 active torsions:
REMARK  status: ('A' for Active; 'I' for Inactive)
REMARK    1  A    between atoms: C_7  and  C_1 
REMARK    2  A    between atoms: N_6  and  C_3 
REMARK    3  A    between atoms: N_8  and  N_6 
REMARK    4  A    between atoms: O_12  and  C_7 
REMARK    5  A    between atoms: C_9  and  N_8 
REMARK    6  A    between atoms: C_18  and  O_12 
ROOT
ATOM      1  C   UNL d   1     -46.711  12.927  22.974  0.00  0.00     0.084 A 
ATOM      2  N   UNL d   1     -47.977  12.717  23.128  0.00  0.00    -0.225 NA
ATOM      3  C   UNL d   1     -47.884  13.522  23.005  0.00  0.00     0.184 A 
ATOM      4  C   UNL d   1     -47.239  12.348  23.108  0.00  0.00     0.088 A 
ATOM      5  C   UNL d   1     -47.074  13.649  22.908  0.00  0.00     0.044 A 
ATOM      6  C   UNL d   1     -47.036  11.548  23.201  0.00  0.00     0.021 C 
ATOM      7  C   UNL d   1     -46.716  14.383  22.769  0.00  0.00     0.003 C 
ENDROOT
BRANCH   3   8
ATOM      8  N   UNL d   1     -48.403  14.143  22.968  0.00  0.00    -0.129 NA
BRANCH   8   9
ATOM      9  N   UNL d   1     -49.221  14.025  22.868  0.00  0.00    -0.147 NA
BRANCH   9  10
ATOM     10  C   UNL d   1     -49.787  14.625  23.013  0.00  0.00     0.103 A 
ATOM     11  C   UNL d   1     -50.513  14.624  22.631  0.00  0.00     0.019 A 
ATOM     12  C   UNL d   1     -50.712  13.990  22.060  0.00  0.00     0.002 C 
ATOM     13  C   UNL d   1     -51.064  15.207  22.772  0.00  0.00     0.002 A 
ATOM     14  C   UNL d   1     -50.883  15.798  23.302  0.00  0.00     0.000 A 
ATOM     15  C   UNL d   1     -50.183  15.828  23.692  0.00  0.00     0.002 A 
ATOM     16  C   UNL d   1     -49.636  15.238  23.544  0.00  0.00     0.021 A 
ENDBRANCH   9  10
ENDBRANCH   8   9
ENDBRANCH   3   8
BRANCH   1  17
ATOM     17  C   UNL d   1     -45.876  12.776  22.914  0.00  0.00     0.302 C 
ATOM     18  O   UNL d   1     -45.483  12.468  23.598  0.00  0.00    -0.259 OA
BRANCH  17  19
ATOM     19  O   UNL d   1     -45.478  12.924  22.218  0.00  0.00    -0.271 OA
BRANCH  19  20
ATOM     20  C   UNL d   1     -44.693  12.639  22.133  0.00  0.00     0.126 C 
ATOM     21  C   UNL d   1     -44.225  12.917  21.491  0.00  0.00     0.029 C 
ENDBRANCH  19  20
ENDBRANCH  17  19
ENDBRANCH   1  17
TORSDOF 6
ENDMDL
MODEL 2
REMARK VINA RESULT:      -6.2      1.972      5.156
REMARK  6 active torsions:
REMARK  status: ('A' for Active; 'I' for Inactive)
REMARK    1  A    between atoms: C_7  and  C_1 
REMARK    2  A    between atoms: N_6  and  C_3 
REMARK    3  A    between atoms: N_8  and  N_6 
REMARK    4  A    between atoms: O_12  and  C_7 
REMARK    5  A    between atoms: C_9  and  N_8 
REMARK    6  A    between atoms: C_18  and  O_12 
ROOT
ATOM      1  C   UNL d   1     -47.461  13.525  22.864  0.00  0.00     0.084 A 
ATOM      2  N   UNL d   1     -46.171  13.569  22.933  0.00  0.00    -0.225 NA
ATOM      3  C   UNL d   1     -46.391  12.798  23.104  0.00  0.00     0.184 A 
ATOM      4  C   UNL d   1     -46.845  14.021  22.783  0.00  0.00     0.088 A 
ATOM      5  C   UNL d   1     -47.215  12.777  23.058  0.00  0.00     0.044 A 
ATOM      6  C   UNL d   1     -46.918  14.825  22.586  0.00  0.00     0.021 C 
ATOM      7  C   UNL d   1     -47.687  12.109  23.189  0.00  0.00     0.003 C 
ENDROOT
BRANCH   3   8
ATOM      8  N   UNL d   1     -45.974  12.128  23.291  0.00  0.00    -0.129 NA
BRANCH   8   9
ATOM      9  N   UNL d   1     -45.191  12.015  23.036  0.00  0.00    -0.147 NA
BRANCH   9  10
ATOM     10  C   UNL d   1     -44.765  11.309  23.178  0.00  0.00     0.103 A 
ATOM     11  C   UNL d   1     -43.980  11.232  22.948  0.00  0.00     0.019 A 
ATOM     12  C   UNL d   1     -43.570  11.894  22.546  0.00  0.00     0.002 C 
ATOM     13  C   UNL d   1     -43.566  10.545  23.087  0.00  0.00     0.002 A 
ATOM     14  C   UNL d   1     -43.943   9.927  23.461  0.00  0.00     0.000 A 
ATOM     15  C   UNL d   1     -44.708   9.970  23.698  0.00  0.00     0.002 A 
ATOM     16  C   UNL d   1     -45.116  10.664  23.555  0.00  0.00     0.021 A 
ENDBRANCH   9  10
ENDBRANCH   8   9
ENDBRANCH   3   8
BRANCH   1  17
ATOM     17  C   UNL d   1     -48.265  13.778  22.753  0.00  0.00     0.302 C 
ATOM     18  O   UNL d   1     -48.680  14.074  23.430  0.00  0.00    -0.259 OA
BRANCH  17  19
ATOM     19  O   UNL d   1     -48.615  13.735  22.018  0.00  0.00    -0.271 OA
BRANCH  19  20
ATOM     20  C   UNL d   1     -49.441  13.872  21.956  0.00  0.00     0.126 C 
ATOM     21  C   UNL d   1     -49.851  13.588  21.277  0.00  0.00     0.029 C 
ENDBRANCH  19  20
ENDBRANCH  17  19
ENDBRANCH   1  17
TORSDOF 6
ENDMDL
MODEL 3
REMARK VINA RESULT:      -5.7      8.459      9.594
REMARK  6 active torsions:
REMARK  status: ('A' for Active; 'I' for Inactive)
REMARK    1  A    between atoms: C_7  and  C_1 
REMARK    2  A    between atoms: N_6  and  C_3 
REMARK    3  A    between atoms: N_8  and  N_6 
REMARK    4  A    between atoms: O_12  and  C_7 
REMARK    5  A    between atoms: C_9  and  N_8 
REMARK    6  A    between atoms: C_18  and  O_12 
ROOT
ATOM      1  C   UNL d   1     -39.970  14.476  18.858  0.00  0.00     0.084 A 
ATOM      2  N   UNL d   1     -38.941  14.189  19.585  0.00  0.00    -0.225 NA
ATOM      3  C   UNL d   1     -39.464  14.598  20.065  0.00  0.00     0.184 A 
ATOM      4  C   UNL d   1     -39.262  14.115  18.829  0.00  0.00     0.088 A 
ATOM      5  C   UNL d   1     -40.118  14.778  19.596  0.00  0.00     0.044 A 
ATOM      6  C   UNL d   1     -38.954  13.751  18.148  0.00  0.00     0.021 C 
ATOM      7  C   UNL d   1     -40.791  15.190  19.846  0.00  0.00     0.003 C 
ENDROOT
BRANCH   3   8
ATOM      8  N   UNL d   1     -39.442  14.828  20.843  0.00  0.00    -0.129 NA
BRANCH   8   9
ATOM      9  N   UNL d   1     -38.956  14.446  21.399  0.00  0.00    -0.147 NA
BRANCH   9  10
ATOM     10  C   UNL d   1     -38.838  14.738  22.175  0.00  0.00     0.103 A 
ATOM     11  C   UNL d   1     -38.655  14.233  22.795  0.00  0.00     0.019 A 
ATOM     12  C   UNL d   1     -38.579  13.371  22.657  0.00  0.00     0.002 C 
ATOM     13  C   UNL d   1     -38.540  14.517  23.550  0.00  0.00     0.002 A 
ATOM     14  C   UNL d   1     -38.610  15.318  23.683  0.00  0.00     0.000 A 
ATOM     15  C   UNL d   1     -38.788  15.838  23.099  0.00  0.00     0.002 A 
ATOM     16  C   UNL d   1     -38.901  15.543  22.345  0.00  0.00     0.021 A 
ENDBRANCH   9  10
ENDBRANCH   8   9
ENDBRANCH   3   8
BRANCH   1  17
ATOM     17  C   UNL d   1     -40.484  14.522  18.182  0.00  0.00     0.302 C 
ATOM     18  O   UNL d   1     -40.976  13.852  18.016  0.00  0.00    -0.259 OA
BRANCH  17  19
ATOM     19  O   UNL d   1     -40.496  15.191  17.716  0.00  0.00    -0.271 OA
BRANCH  19  20
ATOM     20  C   UNL d   1     -40.964  15.190  17.019  0.00  0.00     0.126 C 
ATOM     21  C   UNL d   1     -41.118  15.921  16.631  0.00  0.00     0.029 C 
ENDBRANCH  19  20
ENDBRANCH  17  19
ENDBRANCH   1  17
TORSDOF 6
ENDMDL
MODEL 4
REMARK VINA RESULT:      -5.3      7.768     10.145
REMARK  6 active torsions:
REMARK  status: ('A' for Active; 'I' for Inactive)
REMARK    1  A    between atoms: C_7  and  C_1 
REMARK    2  A    between atoms: N_6  and  C_3 
REMARK    3  A    between atoms: N_8  and  N_6 
REMARK    4  A    between atoms: O_12  and  C_7 
REMARK    5  A    between atoms: C_9  and  N_8 
REMARK    6  A    between atoms: C_18  and  O_12 
ROOT
ATOM      1  C   UNL d   1     -40.128  15.013  20.396  0.00  0.00     0.084 A 
ATOM      2  N   UNL d   1     -40.390  14.103  19.518  0.00  0.00    -0.225 NA
ATOM      3  C   UNL d   1     -39.814  14.587  19.192  0.00  0.00     0.184 A 
ATOM      4  C   UNL d   1     -40.583  14.374  20.272  0.00  0.00     0.088 A 
ATOM      5  C   UNL d   1     -39.652  15.166  19.757  0.00  0.00     0.044 A 
ATOM      6  C   UNL d   1     -41.128  14.078  20.825  0.00  0.00     0.021 C 
ATOM      7  C   UNL d   1     -39.103  15.780  19.673  0.00  0.00     0.003 C 
ENDROOT
BRANCH   3   8
ATOM      8  N   UNL d   1     -39.424  14.588  18.481  0.00  0.00    -0.129 NA
BRANCH   8   9
ATOM      9  N   UNL d   1     -39.298  13.888  18.050  0.00  0.00    -0.147 NA
BRANCH   9  10
ATOM     10  C   UNL d   1     -38.931  13.878  17.298  0.00  0.00     0.103 A 
ATOM     11  C   UNL d   1     -38.428  13.268  17.079  0.00  0.00     0.019 A 
ATOM     12  C   UNL d   1     -38.263  12.609  17.633  0.00  0.00     0.002 C 
ATOM     13  C   UNL d   1     -38.071  13.258  16.346  0.00  0.00     0.002 A 
ATOM     14  C   UNL d   1     -38.222  13.868  15.828  0.00  0.00     0.000 A 
ATOM     15  C   UNL d   1     -38.709  14.479  16.012  0.00  0.00     0.002 A 
ATOM     16  C   UNL d   1     -39.062  14.480  16.749  0.00  0.00     0.021 A 
ENDBRANCH   9  10
ENDBRANCH   8   9
ENDBRANCH   3   8
BRANCH   1  17
ATOM     17  C   UNL d   1     -40.159  15.460  21.119  0.00  0.00     0.302 C 
ATOM     18  O   UNL d   1     -40.854  15.922  21.265  0.00  0.00    -0.259 OA
BRANCH  17  19
ATOM     19  O   UNL d   1     -39.538  15.439  21.646  0.00  0.00    -0.271 OA
BRANCH  19  20
ATOM     20  C   UNL d   1     -39.576  15.917  22.335  0.00  0.00     0.126 C 
ATOM     21  C   UNL d   1     -38.943  15.885  22.889  0.00  0.00     0.029 C 
ENDBRANCH  19  20
ENDBRANCH  17  19
ENDBRANCH   1  17
TORSDOF 6
ENDMDL
MODEL 5
REMARK VINA RESULT:      -5.3      9.158      9.923
REMARK  6 active torsions:
REMARK  status: ('A' for Active; 'I' for Inactive)
REMARK    1  A    between atoms: C_7  and  C_1 
REMARK    2  A    between atoms: N_6  and  C_3 
REMARK    3  A    between atoms: N_8  and  N_6 
REMARK    4  A    between atoms: O_12  and  C_7 
REMARK    5  A    between atoms: C_9  and  N_8 
REMARK    6  A    between atoms: C_18  and  O_12 
ROOT
ATOM      1  C   UNL d   1     -39.370  13.931  18.373  0.00  0.00     0.084 A 
ATOM      2  N   UNL d   1     -40.047  14.406  19.366  0.00  0.00    -0.225 NA
ATOM      3  C   UNL d   1     -39.337  14.134  19.672  0.00  0.00     0.184 A 
ATOM      4  C   UNL d   1     -40.064  14.276  18.552  0.00  0.00     0.088 A 
ATOM      5  C   UNL d   1     -38.910  13.832  19.034  0.00  0.00     0.044 A 
ATOM      6  C   UNL d   1     -40.653  14.450  17.992  0.00  0.00     0.021 C 
ATOM      7  C   UNL d   1     -38.155  13.496  19.077  0.00  0.00     0.003 C 
ENDROOT
BRANCH   3   8
ATOM      8  N   UNL d   1     -39.023  14.117  20.420  0.00  0.00    -0.129 NA
BRANCH   8   9
ATOM      9  N   UNL d   1     -39.350  14.561  21.042  0.00  0.00    -0.147 NA
BRANCH   9  10
ATOM     10  C   UNL d   1     -39.116  14.465  21.840  0.00  0.00     0.103 A 
ATOM     11  C   UNL d   1     -39.030  15.111  22.339  0.00  0.00     0.019 A 
ATOM     12  C   UNL d   1     -39.184  15.922  22.043  0.00  0.00     0.002 C 
ATOM     13  C   UNL d   1     -38.803  15.017  23.115  0.00  0.00     0.002 A 
ATOM     14  C   UNL d   1     -38.659  14.265  23.394  0.00  0.00     0.000 A 
ATOM     15  C   UNL d   1     -38.734  13.613  22.933  0.00  0.00     0.002 A 
ATOM     16  C   UNL d   1     -38.962  13.718  22.155  0.00  0.00     0.021 A 
ENDBRANCH   9  10
ENDBRANCH   8   9
ENDBRANCH   3   8
BRANCH   1  17
ATOM     17  C   UNL d   1     -39.167  13.705  17.579  0.00  0.00     0.302 C 
ATOM     18  O   UNL d   1     -39.372  12.922  17.329  0.00  0.00    -0.259 OA
BRANCH  17  19
ATOM     19  O   UNL d   1     -38.788  14.229  17.084  0.00  0.00    -0.271 OA
BRANCH  19  20
ATOM     20  C   UNL d   1     -38.563  13.971  16.317  0.00  0.00     0.126 C 
ATOM     21  C   UNL d   1     -38.127  14.495  15.822  0.00  0.00     0.029 C 
ENDBRANCH  19  20
ENDBRANCH  17  19
ENDBRANCH   1  17
TORSDOF 6
ENDMDL
MODEL 6
REMARK VINA RESULT:      -5.2      7.990     10.295
REMARK  6 active torsions:
REMARK  status: ('A' for Active; 'I' for Inactive)
REMARK    1  A    between atoms: C_7  and  C_1 
REMARK    2  A    between atoms: N_6  and  C_3 
REMARK    3  A    between atoms: N_8  and  N_6 
REMARK    4  A    between atoms: O_12  and  C_7 
REMARK    5  A    between atoms: C_9  and  N_8 
REMARK    6  A    between atoms: C_18  and  O_12 
ROOT
ATOM      1  C   UNL d   1     -39.578  14.403  20.629  0.00  0.00     0.084 A 
ATOM      2  N   UNL d   1     -40.170  14.422  19.480  0.00  0.00    -0.225 NA
ATOM      3  C   UNL d   1     -39.391  14.211  19.342  0.00  0.00     0.184 A 
ATOM      4  C   UNL d   1     -40.283  14.542  20.289  0.00  0.00     0.088 A 
ATOM      5  C   UNL d   1     -39.019  14.201  20.078  0.00  0.00     0.044 A 
ATOM      6  C   UNL d   1     -40.966  14.760  20.709  0.00  0.00     0.021 C 
ATOM      7  C   UNL d   1     -38.223  14.017  20.212  0.00  0.00     0.003 C 
ENDROOT
BRANCH   3   8
ATOM      8  N   UNL d   1     -38.974  14.031  18.670  0.00  0.00    -0.129 NA
BRANCH   8   9
ATOM      9  N   UNL d   1     -39.257  14.228  17.913  0.00  0.00    -0.147 NA
BRANCH   9  10
ATOM     10  C   UNL d   1     -38.854  14.018  17.209  0.00  0.00     0.103 A 
ATOM     11  C   UNL d   1     -38.871  14.506  16.549  0.00  0.00     0.019 A 
ATOM     12  C   UNL d   1     -39.315  15.261  16.568  0.00  0.00     0.002 C 
ATOM     13  C   UNL d   1     -38.480  14.302  15.864  0.00  0.00     0.002 A 
ATOM     14  C   UNL d   1     -38.066  13.601  15.843  0.00  0.00     0.000 A 
ATOM     15  C   UNL d   1     -38.030  13.103  16.471  0.00  0.00     0.002 A 
ATOM     16  C   UNL d   1     -38.426  13.316  17.153  0.00  0.00     0.021 A 
ENDBRANCH   9  10
ENDBRANCH   8   9
ENDBRANCH   3   8
BRANCH   1  17
ATOM     17  C   UNL d   1     -39.459  14.468  21.468  0.00  0.00     0.302 C 
ATOM     18  O   UNL d   1     -39.610  13.781  21.940  0.00  0.00    -0.259 OA
BRANCH  17  19
ATOM     19  O   UNL d   1     -39.208  15.170  21.798  0.00  0.00    -0.271 OA
BRANCH  19  20
ATOM     20  C   UNL d   1     -39.037  15.193  22.620  0.00  0.00     0.126 C 
ATOM     21  C   UNL d   1     -38.772  15.916  22.961  0.00  0.00     0.029 C 
ENDBRANCH  19  20
ENDBRANCH  17  19
ENDBRANCH   1  17
TORSDOF 6
ENDMDL
MODEL 7
REMARK VINA RESULT:      -5.1      8.462      9.382
REMARK  6 active torsions:
REMARK  status: ('A' for Active; 'I' for Inactive)
REMARK    1  A    between atoms: C_7  and  C_1 
REMARK    2  A    between atoms: N_6  and  C_3 
REMARK    3  A    between atoms: N_8  and  N_6 
REMARK    4  A    between atoms: O_12  and  C_7 
REMARK    5  A    between atoms: C_9  and  N_8 
REMARK    6  A    between atoms: C_18  and  O_12 
ROOT
ATOM      1  C   UNL d   1     -39.150  14.297  21.209  0.00  0.00     0.084 A 
ATOM      2  N   UNL d   1     -38.886  14.029  19.972  0.00  0.00    -0.225 NA
ATOM      3  C   UNL d   1     -39.541  14.522  19.974  0.00  0.00     0.184 A 
ATOM      4  C   UNL d   1     -38.644  13.891  20.749  0.00  0.00     0.088 A 
ATOM      5  C   UNL d   1     -39.705  14.688  20.765  0.00  0.00     0.044 A 
ATOM      6  C   UNL d   1     -38.015  13.435  21.041  0.00  0.00     0.021 C 
ATOM      7  C   UNL d   1     -40.322  15.168  21.038  0.00  0.00     0.003 C 
ENDROOT
BRANCH   3   8
ATOM      8  N   UNL d   1     -40.003  14.836  19.385  0.00  0.00    -0.129 NA
BRANCH   8   9
ATOM      9  N   UNL d   1     -39.905  14.618  18.589  0.00  0.00    -0.147 NA
BRANCH   9  10
ATOM     10  C   UNL d   1     -40.300  15.007  17.961  0.00  0.00     0.103 A 
ATOM     11  C   UNL d   1     -40.080  14.882  17.179  0.00  0.00     0.019 A 
ATOM     12  C   UNL d   1     -39.422  14.336  16.986  0.00  0.00     0.002 C 
ATOM     13  C   UNL d   1     -40.463  15.260  16.568  0.00  0.00     0.002 A 
ATOM     14  C   UNL d   1     -41.075  15.769  16.744  0.00  0.00     0.000 A 
ATOM     15  C   UNL d   1     -41.314  15.912  17.496  0.00  0.00     0.002 A 
ATOM     16  C   UNL d   1     -40.923  15.528  18.102  0.00  0.00     0.021 A 
ENDBRANCH   9  10
ENDBRANCH   8   9
ENDBRANCH   3   8
BRANCH   1  17
ATOM     17  C   UNL d   1     -39.090  14.299  22.057  0.00  0.00     0.302 C 
ATOM     18  O   UNL d   1     -39.422  13.642  22.476  0.00  0.00    -0.259 OA
BRANCH  17  19
ATOM     19  O   UNL d   1     -38.725  14.916  22.444  0.00  0.00    -0.271 OA
BRANCH  19  20
ATOM     20  C   UNL d   1     -38.649  14.881  23.280  0.00  0.00     0.126 C 
ATOM     21  C   UNL d   1     -38.413  15.573  23.697  0.00  0.00     0.029 C 
ENDBRANCH  19  20
ENDBRANCH  17  19
ENDBRANCH   1  17
TORSDOF 6
ENDMDL
