MODEL 1
REMARK VINA RESULT:      24.1      0.000      0.000
REMARK  3 active torsions:
REMARK  status: ('A' for Active; 'I' for Inactive)
REMARK    1  A    between atoms: S_4  and  C_1 
REMARK    2  A    between atoms: N_2  and  C_5 
REMARK    3  A    between atoms: C_9  and  S_4 
ROOT
ATOM      1  C   UNL d   1     -54.776-100.673 -36.833  0.00  0.00     0.133 A 
ATOM      2  C   UNL d   1     -54.773-101.521 -36.877  0.00  0.00     0.051 A 
ATOM      3  C   UNL d   1     -54.826-100.346 -36.056  0.00  0.00     0.024 A 
ATOM      4  C   UNL d   1     -54.817-101.973 -36.202  0.00  0.00     0.008 A 
ATOM      5  C   UNL d   1     -54.868-100.821 -35.405  0.00  0.00     0.002 A 
ATOM      6  C   UNL d   1     -54.865-101.625 -35.453  0.00  0.00     0.001 A 
ENDROOT
BRANCH   2   7
ATOM      7  S   UNL d   1     -54.726-101.916 -37.611  0.00  0.00    -0.082 SA
BRANCH   7   8
ATOM      8  C   UNL d   1     -55.393-102.266 -37.924  0.00  0.00     0.068 A 
ATOM      9  C   UNL d   1     -56.063-102.603 -37.586  0.00  0.00     0.110 A 
ATOM     10  N   UNL d   1     -56.534-102.860 -38.170  0.00  0.00    -0.147 NA
ATOM     11  C   UNL d   1     -56.197-102.651 -36.755  0.00  0.00     0.023 C 
ATOM     12  N   UNL d   1     -56.211-102.711 -38.875  0.00  0.00    -0.147 NA
ATOM     13  C   UNL d   1     -55.475-102.329 -38.738  0.00  0.00     0.110 A 
ATOM     14  C   UNL d   1     -54.933-102.064 -39.305  0.00  0.00     0.023 C 
ENDBRANCH   7   8
ENDBRANCH   2   7
BRANCH   1  15
ATOM     15  N   UNL d   1     -54.734-100.162 -37.488  0.00  0.00    -0.113 N 
ATOM     16  O   UNL d   1     -54.713 -99.382 -37.376  0.00  0.00    -0.532 OA
ATOM     17  O   UNL d   1     -54.715-100.490 -38.259  0.00  0.00    -0.532 OA
ENDBRANCH   1  15
TORSDOF 3
ENDMDL
