MODEL 1
REMARK VINA RESULT:      14.7      0.000      0.000
REMARK  5 active torsions:
REMARK  status: ('A' for Active; 'I' for Inactive)
REMARK    1  A    between atoms: O_6  and  C_1 
REMARK    2  A    between atoms: C_2  and  C_4 
REMARK    3  A    between atoms: O_7  and  C_3 
REMARK    4  A    between atoms: C_8  and  O_6 
REMARK    5  A    between atoms: C_9  and  O_7 
ROOT
ATOM      1  C   UNL d   1      46.405 -18.114  43.387  0.00  0.00     0.126 A 
ATOM      2  C   UNL d   1      46.400 -18.613  44.043  0.00  0.00     0.126 A 
ATOM      3  C   UNL d   1      45.925 -17.040  44.206  0.00  0.00     0.067 A 
ATOM      4  C   UNL d   1      46.168 -17.328  43.467  0.00  0.00     0.033 A 
ATOM      5  C   UNL d   1      46.158 -18.325  44.783  0.00  0.00     0.027 A 
ATOM      6  C   UNL d   1      45.922 -17.541  44.858  0.00  0.00     0.008 A 
ENDROOT
BRANCH   1   7
ATOM      7  O   UNL d   1      46.647 -18.401  42.652  0.00  0.00    -0.271 OA
BRANCH   7   8
ATOM      8  C   UNL d   1      46.237 -18.185  41.970  0.00  0.00     0.300 C 
ATOM      9  O   UNL d   1      45.410 -18.317  41.917  0.00  0.00    -0.259 OA
ATOM     10  C   UNL d   1      46.642 -17.839  41.340  0.00  0.00     0.074 C 
ENDBRANCH   7   8
ENDBRANCH   1   7
BRANCH   2  11
ATOM     11  O   UNL d   1      46.643 -19.416  43.961  0.00  0.00    -0.271 OA
BRANCH  11  12
ATOM     12  C   UNL d   1      46.138 -20.024  44.184  0.00  0.00     0.300 C 
ATOM     13  O   UNL d   1      45.592 -20.329  43.644  0.00  0.00    -0.259 OA
ATOM     14  C   UNL d   1      46.178 -20.329  44.954  0.00  0.00     0.074 C 
ENDBRANCH  11  12
ENDBRANCH   2  11
BRANCH   3  15
ATOM     15  C   UNL d   1      45.681 -16.239  44.299  0.00  0.00     0.211 C 
ATOM     16  O   UNL d   1      44.873 -16.071  44.345  0.00  0.00    -0.644 OA
ATOM     17  O   UNL d   1      46.250 -15.629  44.341  0.00  0.00    -0.644 OA
ENDBRANCH   3  15
TORSDOF 5
ENDMDL
MODEL 2
REMARK VINA RESULT:      15.6      2.519      4.354
REMARK  5 active torsions:
REMARK  status: ('A' for Active; 'I' for Inactive)
REMARK    1  A    between atoms: O_6  and  C_1 
REMARK    2  A    between atoms: C_2  and  C_4 
REMARK    3  A    between atoms: O_7  and  C_3 
REMARK    4  A    between atoms: C_8  and  O_6 
REMARK    5  A    between atoms: C_9  and  O_7 
ROOT
ATOM      1  C   UNL d   1      44.884 -14.387  44.513  0.00  0.00     0.126 A 
ATOM      2  C   UNL d   1      45.490 -14.909  44.713  0.00  0.00     0.126 A 
ATOM      3  C   UNL d   1      45.831 -13.311  44.475  0.00  0.00     0.067 A 
ATOM      4  C   UNL d   1      45.053 -13.588  44.394  0.00  0.00     0.033 A 
ATOM      5  C   UNL d   1      46.268 -14.632  44.793  0.00  0.00     0.027 A 
ATOM      6  C   UNL d   1      46.432 -13.836  44.674  0.00  0.00     0.008 A 
ENDROOT
BRANCH   1   7
ATOM      7  O   UNL d   1      44.111 -14.663  44.433  0.00  0.00    -0.271 OA
BRANCH   7   8
ATOM      8  C   UNL d   1      43.485 -14.129  44.389  0.00  0.00     0.300 C 
ATOM      9  O   UNL d   1      43.499 -13.508  43.823  0.00  0.00    -0.259 OA
ATOM     10  C   UNL d   1      42.844 -14.205  44.902  0.00  0.00     0.074 C 
ENDBRANCH   7   8
ENDBRANCH   1   7
BRANCH   2  11
ATOM     11  O   UNL d   1      45.317 -15.725  44.834  0.00  0.00    -0.271 OA
BRANCH  11  12
ATOM     12  C   UNL d   1      45.785 -16.302  44.484  0.00  0.00     0.300 C 
ATOM     13  O   UNL d   1      46.213 -16.829  44.954  0.00  0.00    -0.259 OA
ATOM     14  C   UNL d   1      45.826 -16.352  43.657  0.00  0.00     0.074 C 
ENDBRANCH  11  12
ENDBRANCH   2  11
BRANCH   3  15
ATOM     15  C   UNL d   1      46.014 -12.497  44.356  0.00  0.00     0.211 C 
ATOM     16  O   UNL d   1      46.414 -12.087  44.951  0.00  0.00    -0.644 OA
ATOM     17  O   UNL d   1      45.793 -12.117  43.646  0.00  0.00    -0.644 OA
ENDBRANCH   3  15
TORSDOF 5
ENDMDL
MODEL 3
REMARK VINA RESULT:      16.6      5.726      7.704
REMARK  5 active torsions:
REMARK  status: ('A' for Active; 'I' for Inactive)
REMARK    1  A    between atoms: O_6  and  C_1 
REMARK    2  A    between atoms: C_2  and  C_4 
REMARK    3  A    between atoms: O_7  and  C_3 
REMARK    4  A    between atoms: C_8  and  O_6 
REMARK    5  A    between atoms: C_9  and  O_7 
ROOT
ATOM      1  C   UNL d   1      44.793 -15.969  37.169  0.00  0.00     0.126 A 
ATOM      2  C   UNL d   1      45.164 -15.361  36.755  0.00  0.00     0.126 A 
ATOM      3  C   UNL d   1      43.517 -15.469  36.749  0.00  0.00     0.067 A 
ATOM      4  C   UNL d   1      43.970 -16.025  37.167  0.00  0.00     0.033 A 
ATOM      5  C   UNL d   1      44.711 -14.805  36.337  0.00  0.00     0.027 A 
ATOM      6  C   UNL d   1      43.892 -14.863  36.338  0.00  0.00     0.008 A 
ENDROOT
BRANCH   1   7
ATOM      7  O   UNL d   1      45.243 -16.522  37.584  0.00  0.00    -0.271 OA
BRANCH   7   8
ATOM      8  C   UNL d   1      44.872 -17.093  38.048  0.00  0.00     0.300 C 
ATOM      9  O   UNL d   1      44.456 -17.726  37.684  0.00  0.00    -0.259 OA
ATOM     10  C   UNL d   1      44.909 -17.042  38.870  0.00  0.00     0.074 C 
ENDBRANCH   7   8
ENDBRANCH   1   7
BRANCH   2  11
ATOM     11  O   UNL d   1      46.005 -15.306  36.757  0.00  0.00    -0.271 OA
BRANCH  11  12
ATOM     12  C   UNL d   1      46.371 -14.591  36.931  0.00  0.00     0.300 C 
ATOM     13  O   UNL d   1      46.470 -14.022  36.340  0.00  0.00    -0.259 OA
ATOM     14  C   UNL d   1      46.639 -14.444  37.702  0.00  0.00     0.074 C 
ENDBRANCH  11  12
ENDBRANCH   2  11
BRANCH   3  15
ATOM     15  C   UNL d   1      42.675 -15.516  36.741  0.00  0.00     0.211 C 
ATOM     16  O   UNL d   1      42.240 -14.941  37.143  0.00  0.00    -0.644 OA
ATOM     17  O   UNL d   1      42.294 -16.136  36.332  0.00  0.00    -0.644 OA
ENDBRANCH   3  15
TORSDOF 5
ENDMDL
MODEL 4
REMARK VINA RESULT:      17.2      1.095      3.316
REMARK  5 active torsions:
REMARK  status: ('A' for Active; 'I' for Inactive)
REMARK    1  A    between atoms: O_6  and  C_1 
REMARK    2  A    between atoms: C_2  and  C_4 
REMARK    3  A    between atoms: O_7  and  C_3 
REMARK    4  A    between atoms: C_8  and  O_6 
REMARK    5  A    between atoms: C_9  and  O_7 
ROOT
ATOM      1  C   UNL d   1      45.758 -18.627  43.517  0.00  0.00     0.126 A 
ATOM      2  C   UNL d   1      45.589 -17.834  43.374  0.00  0.00     0.126 A 
ATOM      3  C   UNL d   1      46.136 -18.788  42.143  0.00  0.00     0.067 A 
ATOM      4  C   UNL d   1      46.031 -19.106  42.903  0.00  0.00     0.033 A 
ATOM      5  C   UNL d   1      45.694 -17.516  42.615  0.00  0.00     0.027 A 
ATOM      6  C   UNL d   1      45.966 -17.995  42.006  0.00  0.00     0.008 A 
ENDROOT
BRANCH   1   7
ATOM      7  O   UNL d   1      45.654 -18.943  44.272  0.00  0.00    -0.271 OA
BRANCH   7   8
ATOM      8  C   UNL d   1      45.842 -19.732  44.419  0.00  0.00     0.300 C 
ATOM      9  O   UNL d   1      46.566 -19.929  44.796  0.00  0.00    -0.259 OA
ATOM     10  C   UNL d   1      45.318 -20.328  44.194  0.00  0.00     0.074 C 
ENDBRANCH   7   8
ENDBRANCH   1   7
BRANCH   2  11
ATOM     11  O   UNL d   1      45.310 -17.346  44.002  0.00  0.00    -0.271 OA
BRANCH  11  12
ATOM     12  C   UNL d   1      45.689 -16.637  44.173  0.00  0.00     0.300 C 
ATOM     13  O   UNL d   1      46.200 -16.296  43.620  0.00  0.00    -0.259 OA
ATOM     14  C   UNL d   1      45.556 -16.266  44.903  0.00  0.00     0.074 C 
ENDBRANCH  11  12
ENDBRANCH   2  11
BRANCH   3  15
ATOM     15  C   UNL d   1      46.415 -19.268  41.508  0.00  0.00     0.211 C 
ATOM     16  O   UNL d   1      46.639 -20.047  41.667  0.00  0.00    -0.644 OA
ATOM     17  O   UNL d   1      46.461 -18.955  40.736  0.00  0.00    -0.644 OA
ENDBRANCH   3  15
TORSDOF 5
ENDMDL
MODEL 5
REMARK VINA RESULT:      17.3      5.721      7.715
REMARK  5 active torsions:
REMARK  status: ('A' for Active; 'I' for Inactive)
REMARK    1  A    between atoms: O_6  and  C_1 
REMARK    2  A    between atoms: C_2  and  C_4 
REMARK    3  A    between atoms: O_7  and  C_3 
REMARK    4  A    between atoms: C_8  and  O_6 
REMARK    5  A    between atoms: C_9  and  O_7 
ROOT
ATOM      1  C   UNL d   1      44.464 -16.130  37.151  0.00  0.00     0.126 A 
ATOM      2  C   UNL d   1      43.810 -15.803  36.770  0.00  0.00     0.126 A 
ATOM      3  C   UNL d   1      45.254 -15.003  36.750  0.00  0.00     0.067 A 
ATOM      4  C   UNL d   1      45.186 -15.732  37.141  0.00  0.00     0.033 A 
ATOM      5  C   UNL d   1      43.878 -15.074  36.379  0.00  0.00     0.027 A 
ATOM      6  C   UNL d   1      44.599 -14.681  36.372  0.00  0.00     0.008 A 
ENDROOT
BRANCH   1   7
ATOM      7  O   UNL d   1      44.396 -16.854  37.540  0.00  0.00    -0.271 OA
BRANCH   7   8
ATOM      8  C   UNL d   1      44.519 -16.899  38.354  0.00  0.00     0.300 C 
ATOM      9  O   UNL d   1      43.877 -16.789  38.883  0.00  0.00    -0.259 OA
ATOM     10  C   UNL d   1      45.275 -17.052  38.647  0.00  0.00     0.074 C 
ENDBRANCH   7   8
ENDBRANCH   1   7
BRANCH   2  11
ATOM     11  O   UNL d   1      43.072 -16.210  36.780  0.00  0.00    -0.271 OA
BRANCH  11  12
ATOM     12  C   UNL d   1      42.395 -15.842  36.497  0.00  0.00     0.300 C 
ATOM     13  O   UNL d   1      42.386 -15.025  36.377  0.00  0.00    -0.259 OA
ATOM     14  C   UNL d   1      41.720 -16.296  36.333  0.00  0.00     0.074 C 
ENDBRANCH  11  12
ENDBRANCH   2  11
BRANCH   3  15
ATOM     15  C   UNL d   1      45.988 -14.588  36.734  0.00  0.00     0.211 C 
ATOM     16  O   UNL d   1      46.646 -14.954  36.394  0.00  0.00    -0.644 OA
ATOM     17  O   UNL d   1      46.042 -13.821  37.058  0.00  0.00    -0.644 OA
ENDBRANCH   3  15
TORSDOF 5
ENDMDL
