MODEL 1
REMARK VINA RESULT:      88.6      0.000      0.000
REMARK  8 active torsions:
REMARK  status: ('A' for Active; 'I' for Inactive)
REMARK    1  A    between atoms: N_7  and  N_1 
REMARK    2  A    between atoms: S_9  and  C_2 
REMARK       I    between atoms: C_8  and  N_7 
REMARK    3  A    between atoms: C_19  and  C_8 
REMARK    4  A    between atoms: C_18  and  S_9 
REMARK    5  A    between atoms: C_10  and  C_18 
REMARK       I    between atoms: N_13  and  C_10 
REMARK    6  A    between atoms: C_12  and  C_14 
REMARK    7  A    between atoms: C_14  and  N_13 
REMARK    8  A    between atoms: C_22  and  C_19 
ROOT
ATOM      1  N   UNL d   1     -49.049  28.017  36.057  0.00  0.00    -0.168 N 
ATOM      2  C   UNL d   1     -49.584  27.576  35.640  0.00  0.00     0.199 A 
ATOM      3  C   UNL d   1     -49.140  28.117  36.874  0.00  0.00     0.283 A 
ATOM      4  N   UNL d   1     -50.236  27.213  36.026  0.00  0.00    -0.221 NA
ATOM      5  C   UNL d   1     -49.789  27.757  37.264  0.00  0.00     0.076 A 
ATOM      6  C   UNL d   1     -50.334  27.307  36.839  0.00  0.00     0.088 A 
ATOM      7  O   UNL d   1     -48.598  28.566  37.304  0.00  0.00    -0.265 OA
ATOM      8  C   UNL d   1     -49.874  27.861  38.083  0.00  0.00     0.006 A 
ATOM      9  C   UNL d   1     -50.965  26.960  37.228  0.00  0.00     0.019 A 
ATOM     10  C   UNL d   1     -50.516  27.505  38.464  0.00  0.00     0.000 A 
ATOM     11  C   UNL d   1     -51.061  27.055  38.038  0.00  0.00     0.002 A 
ENDROOT
BRANCH   2  12
ATOM     12  S   UNL d   1     -49.495  27.477  34.837  0.00  0.00    -0.043 SA
BRANCH  12  13
ATOM     13  C   UNL d   1     -50.155  27.347  34.360  0.00  0.00     0.101 C 
BRANCH  13  14
ATOM     14  C   UNL d   1     -50.199  26.675  33.897  0.00  0.00     0.286 C 
ATOM     15  N   UNL d   1     -50.923  26.309  33.770  0.00  0.00    -0.206 NA
ATOM     16  O   UNL d   1     -49.515  26.363  33.557  0.00  0.00    -0.265 OA
BRANCH  15  17
ATOM     17  C   UNL d   1     -50.967  25.636  33.306  0.00  0.00     0.103 C 
BRANCH  17  18
ATOM     18  C   UNL d   1     -51.539  25.068  33.459  0.00  0.00     0.030 A 
ATOM     19  C   UNL d   1     -51.332  24.270  33.509  0.00  0.00     0.059 A 
ATOM     20 CL   UNL d   1     -50.545  24.045  33.404  0.00  0.00    -0.082 Cl
ATOM     21  C   UNL d   1     -51.904  23.702  33.662  0.00  0.00     0.011 A 
ATOM     22  C   UNL d   1     -52.689  23.928  33.767  0.00  0.00     0.001 A 
ATOM     23  C   UNL d   1     -52.895  24.727  33.716  0.00  0.00     0.000 A 
ATOM     24  C   UNL d   1     -52.324  25.293  33.564  0.00  0.00     0.002 A 
ENDBRANCH  17  18
ENDBRANCH  15  17
ENDBRANCH  13  14
ENDBRANCH  12  13
ENDBRANCH   2  12
BRANCH   1  25
ATOM     25  N   UNL d   1     -48.417  28.368  35.678  0.00  0.00    -0.119 NA
ATOM     26  C   UNL d   1     -48.104  29.062  35.971  0.00  0.00     0.296 C 
ATOM     27  O   UNL d   1     -48.419  29.416  36.647  0.00  0.00    -0.264 OA
BRANCH  26  28
ATOM     28  C   UNL d   1     -47.463  29.415  35.585  0.00  0.00     0.064 C 
BRANCH  28  29
ATOM     29  C   UNL d   1     -47.461  30.217  35.462  0.00  0.00     0.005 A 
ATOM     30  C   UNL d   1     -48.007  30.548  34.940  0.00  0.00     0.000 A 
ATOM     31  C   UNL d   1     -48.005  31.363  34.814  0.00  0.00     0.000 A 
ATOM     32  C   UNL d   1     -47.469  31.836  35.202  0.00  0.00     0.000 A 
ATOM     33  C   UNL d   1     -46.923  31.495  35.725  0.00  0.00     0.000 A 
ATOM     34  C   UNL d   1     -46.925  30.690  35.849  0.00  0.00     0.000 A 
ENDBRANCH  28  29
ENDBRANCH  26  28
ENDBRANCH   1  25
TORSDOF 8
ENDMDL
MODEL 2
REMARK VINA RESULT:      89.8      1.835      5.443
REMARK  8 active torsions:
REMARK  status: ('A' for Active; 'I' for Inactive)
REMARK    1  A    between atoms: N_7  and  N_1 
REMARK    2  A    between atoms: S_9  and  C_2 
REMARK       I    between atoms: C_8  and  N_7 
REMARK    3  A    between atoms: C_19  and  C_8 
REMARK    4  A    between atoms: C_18  and  S_9 
REMARK    5  A    between atoms: C_10  and  C_18 
REMARK       I    between atoms: N_13  and  C_10 
REMARK    6  A    between atoms: C_12  and  C_14 
REMARK    7  A    between atoms: C_14  and  N_13 
REMARK    8  A    between atoms: C_22  and  C_19 
ROOT
ATOM      1  N   UNL d   1     -50.026  27.102  35.904  0.00  0.00    -0.168 N 
ATOM      2  C   UNL d   1     -49.564  27.702  36.191  0.00  0.00     0.199 A 
ATOM      3  C   UNL d   1     -50.582  26.735  36.395  0.00  0.00     0.283 A 
ATOM      4  N   UNL d   1     -49.641  27.961  36.987  0.00  0.00    -0.221 NA
ATOM      5  C   UNL d   1     -50.664  26.989  37.189  0.00  0.00     0.076 A 
ATOM      6  C   UNL d   1     -50.193  27.601  37.481  0.00  0.00     0.088 A 
ATOM      7  O   UNL d   1     -51.056  26.123  36.108  0.00  0.00    -0.265 OA
ATOM      8  C   UNL d   1     -51.223  26.618  37.676  0.00  0.00     0.006 A 
ATOM      9  C   UNL d   1     -50.279  27.843  38.259  0.00  0.00     0.019 A 
ATOM     10  C   UNL d   1     -51.300  26.872  38.459  0.00  0.00     0.000 A 
ATOM     11  C   UNL d   1     -50.829  27.483  38.751  0.00  0.00     0.002 A 
ENDROOT
BRANCH   2  12
ATOM     12  S   UNL d   1     -49.017  28.063  35.709  0.00  0.00    -0.043 SA
BRANCH  12  13
ATOM     13  C   UNL d   1     -48.537  28.664  36.005  0.00  0.00     0.101 C 
BRANCH  13  14
ATOM     14  C   UNL d   1     -48.026  29.063  35.506  0.00  0.00     0.286 C 
ATOM     15  N   UNL d   1     -48.010  29.884  35.504  0.00  0.00    -0.206 NA
ATOM     16  O   UNL d   1     -47.526  28.641  35.003  0.00  0.00    -0.265 OA
BRANCH  15  17
ATOM     17  C   UNL d   1     -47.499  30.284  35.005  0.00  0.00     0.103 C 
BRANCH  17  18
ATOM     18  C   UNL d   1     -47.688  31.037  34.742  0.00  0.00     0.030 A 
ATOM     19  C   UNL d   1     -47.276  31.694  35.026  0.00  0.00     0.059 A 
ATOM     20 CL   UNL d   1     -46.672  31.590  35.578  0.00  0.00    -0.082 Cl
ATOM     21  C   UNL d   1     -47.464  32.448  34.763  0.00  0.00     0.011 A 
ATOM     22  C   UNL d   1     -48.067  32.552  34.211  0.00  0.00     0.001 A 
ATOM     23  C   UNL d   1     -48.479  31.893  33.927  0.00  0.00     0.000 A 
ATOM     24  C   UNL d   1     -48.291  31.141  34.190  0.00  0.00     0.002 A 
ENDBRANCH  17  18
ENDBRANCH  15  17
ENDBRANCH  13  14
ENDBRANCH  12  13
ENDBRANCH   2  12
BRANCH   1  25
ATOM     25  N   UNL d   1     -49.947  26.853  35.130  0.00  0.00    -0.119 NA
ATOM     26  C   UNL d   1     -50.600  26.845  34.640  0.00  0.00     0.296 C 
ATOM     27  O   UNL d   1     -51.339  27.084  34.917  0.00  0.00    -0.264 OA
BRANCH  26  28
ATOM     28  C   UNL d   1     -50.518  26.592  33.856  0.00  0.00     0.064 C 
BRANCH  28  29
ATOM     29  C   UNL d   1     -50.620  25.809  33.674  0.00  0.00     0.005 A 
ATOM     30  C   UNL d   1     -51.381  25.489  33.673  0.00  0.00     0.000 A 
ATOM     31  C   UNL d   1     -51.485  24.692  33.488  0.00  0.00     0.000 A 
ATOM     32  C   UNL d   1     -50.844  24.226  33.308  0.00  0.00     0.000 A 
ATOM     33  C   UNL d   1     -50.083  24.556  33.311  0.00  0.00     0.000 A 
ATOM     34  C   UNL d   1     -49.980  25.342  33.494  0.00  0.00     0.000 A 
ENDBRANCH  28  29
ENDBRANCH  26  28
ENDBRANCH   1  25
TORSDOF 8
ENDMDL
MODEL 3
REMARK VINA RESULT:      91.3      1.677      4.516
REMARK  8 active torsions:
REMARK  status: ('A' for Active; 'I' for Inactive)
REMARK    1  A    between atoms: N_7  and  N_1 
REMARK    2  A    between atoms: S_9  and  C_2 
REMARK       I    between atoms: C_8  and  N_7 
REMARK    3  A    between atoms: C_19  and  C_8 
REMARK    4  A    between atoms: C_18  and  S_9 
REMARK    5  A    between atoms: C_10  and  C_18 
REMARK       I    between atoms: N_13  and  C_10 
REMARK    6  A    between atoms: C_12  and  C_14 
REMARK    7  A    between atoms: C_14  and  N_13 
REMARK    8  A    between atoms: C_22  and  C_19 
ROOT
ATOM      1  N   UNL d   1     -48.833  27.688  35.188  0.00  0.00    -0.168 N 
ATOM      2  C   UNL d   1     -49.099  27.840  35.937  0.00  0.00     0.199 A 
ATOM      3  C   UNL d   1     -48.274  28.187  34.836  0.00  0.00     0.283 A 
ATOM      4  N   UNL d   1     -48.813  28.503  36.369  0.00  0.00    -0.221 NA
ATOM      5  C   UNL d   1     -47.986  28.849  35.262  0.00  0.00     0.076 A 
ATOM      6  C   UNL d   1     -48.257  29.004  36.026  0.00  0.00     0.088 A 
ATOM      7  O   UNL d   1     -47.999  28.037  34.073  0.00  0.00    -0.265 OA
ATOM      8  C   UNL d   1     -47.426  29.345  34.904  0.00  0.00     0.006 A 
ATOM      9  C   UNL d   1     -47.970  29.653  36.434  0.00  0.00     0.019 A 
ATOM     10  C   UNL d   1     -47.144  29.997  35.327  0.00  0.00     0.000 A 
ATOM     11  C   UNL d   1     -47.415  30.152  36.091  0.00  0.00     0.002 A 
ENDROOT
BRANCH   2  12
ATOM     12  S   UNL d   1     -49.649  27.350  36.284  0.00  0.00    -0.043 SA
BRANCH  12  13
ATOM     13  C   UNL d   1     -49.654  27.246  37.101  0.00  0.00     0.101 C 
BRANCH  13  14
ATOM     14  C   UNL d   1     -50.361  27.267  37.511  0.00  0.00     0.286 C 
ATOM     15  N   UNL d   1     -50.827  26.593  37.563  0.00  0.00    -0.206 NA
ATOM     16  O   UNL d   1     -50.608  27.966  37.874  0.00  0.00    -0.265 OA
BRANCH  15  17
ATOM     17  C   UNL d   1     -51.535  26.613  37.974  0.00  0.00     0.103 C 
BRANCH  17  18
ATOM     18  C   UNL d   1     -51.868  25.918  38.253  0.00  0.00     0.030 A 
ATOM     19  C   UNL d   1     -52.629  25.696  38.021  0.00  0.00     0.059 A 
ATOM     20 CL   UNL d   1     -53.055  26.178  37.505  0.00  0.00    -0.082 Cl
ATOM     21  C   UNL d   1     -52.962  25.001  38.301  0.00  0.00     0.011 A 
ATOM     22  C   UNL d   1     -52.537  24.520  38.817  0.00  0.00     0.001 A 
ATOM     23  C   UNL d   1     -51.775  24.742  39.049  0.00  0.00     0.000 A 
ATOM     24  C   UNL d   1     -51.443  25.436  38.769  0.00  0.00     0.002 A 
ENDBRANCH  17  18
ENDBRANCH  15  17
ENDBRANCH  13  14
ENDBRANCH  12  13
ENDBRANCH   2  12
BRANCH   1  25
ATOM     25  N   UNL d   1     -49.113  27.044  34.773  0.00  0.00    -0.119 NA
ATOM     26  C   UNL d   1     -49.619  27.157  34.142  0.00  0.00     0.296 C 
ATOM     27  O   UNL d   1     -49.851  27.917  33.919  0.00  0.00    -0.264 OA
BRANCH  26  28
ATOM     28  C   UNL d   1     -49.901  26.502  33.723  0.00  0.00     0.064 C 
BRANCH  28  29
ATOM     29  C   UNL d   1     -50.697  26.425  33.586  0.00  0.00     0.005 A 
ATOM     30  C   UNL d   1     -51.167  27.102  33.539  0.00  0.00     0.000 A 
ATOM     31  C   UNL d   1     -51.976  27.023  33.400  0.00  0.00     0.000 A 
ATOM     32  C   UNL d   1     -52.308  26.286  33.311  0.00  0.00     0.000 A 
ATOM     33  C   UNL d   1     -51.827  25.611  33.361  0.00  0.00     0.000 A 
ATOM     34  C   UNL d   1     -51.028  25.689  33.498  0.00  0.00     0.000 A 
ENDBRANCH  28  29
ENDBRANCH  26  28
ENDBRANCH   1  25
TORSDOF 8
ENDMDL
