MODEL 1
REMARK VINA RESULT:      48.1      0.000      0.000
REMARK  1 active torsions:
REMARK  status: ('A' for Active; 'I' for Inactive)
REMARK       I    between atoms: N_3  and  C_1 
REMARK       I    between atoms: N_5  and  C_1 
REMARK       I    between atoms: C_2  and  N_4 
REMARK    1  A    between atoms: C_6  and  C_2 
ROOT
ATOM      1  C   UNL d   1      46.061 -14.862  42.875  0.00  0.00     0.340 C 
ATOM      2  C   UNL d   1      45.781 -17.879  44.188  0.00  0.00     0.265 C 
ATOM      3  N   UNL d   1      45.900 -15.622  43.156  0.00  0.00    -0.254 N 
ATOM      4  N   UNL d   1      45.844 -17.114  43.842  0.00  0.00    -0.269 N 
ATOM      5  N   UNL d   1      45.825 -14.201  43.308  0.00  0.00    -0.253 N 
ATOM      6  O   UNL d   1      46.460 -14.769  42.153  0.00  0.00    -0.245 OA
ATOM      7  C   UNL d   1      46.161 -16.284  42.736  0.00  0.00     0.104 A 
ATOM      8  C   UNL d   1      45.590 -15.718  43.921  0.00  0.00     0.104 A 
ATOM      9  C   UNL d   1      46.143 -17.048  43.087  0.00  0.00     0.102 A 
ATOM     10  C   UNL d   1      45.557 -16.466  44.267  0.00  0.00     0.102 A 
ATOM     11  O   UNL d   1      45.473 -17.968  44.951  0.00  0.00    -0.267 OA
ATOM     12  O   UNL d   1      45.615 -12.881  44.309  0.00  0.00    -0.300 OA
ATOM     13  C   UNL d   1      45.685 -14.304  44.165  0.00  0.00     0.111 C 
ATOM     14  C   UNL d   1      46.245 -13.450  43.162  0.00  0.00     0.111 C 
ATOM     15  C   UNL d   1      46.011 -12.789  43.592  0.00  0.00     0.142 C 
ATOM     16  C   UNL d   1      45.450 -13.637  44.597  0.00  0.00     0.142 C 
ENDROOT
BRANCH   2  17
ATOM     17  C   UNL d   1      46.049 -18.542  43.773  0.00  0.00     0.057 C 
ATOM     18  C   UNL d   1      45.681 -18.736  43.047  0.00  0.00     0.011 C 
ATOM     19  C   UNL d   1      45.918 -19.421  42.638  0.00  0.00     0.035 C 
ATOM     20 BR   UNL d   1      45.668 -19.537  41.852  0.00  0.00    -0.049 Br
ATOM     21  C   UNL d   1      46.397 -19.980  43.010  0.00  0.00     0.007 C 
ATOM     22  C   UNL d   1      46.642 -19.857  43.795  0.00  0.00     0.001 C 
ATOM     23  C   UNL d   1      46.405 -19.175  44.201  0.00  0.00     0.005 C 
ENDBRANCH   2  17
TORSDOF 1
ENDMDL
