MODEL 1
REMARK VINA RESULT:      18.3      0.000      0.000
REMARK  3 active torsions:
REMARK  status: ('A' for Active; 'I' for Inactive)
REMARK    1  A    between atoms: C_10  and  C_3 
REMARK    2  A    between atoms: C_13  and  C_7 
REMARK    3  A    between atoms: C_12  and  C_13 
ROOT
ATOM      1  C   UNL d   1      23.182  12.733  -1.485  0.00  0.00     0.171 A 
ATOM      2  N   UNL d   1      23.870  12.320  -1.671  0.00  0.00    -0.212 N 
ATOM      3  C   UNL d   1      23.124  12.769  -0.658  0.00  0.00     0.121 A 
ATOM      4  N   UNL d   1      22.698  13.022  -2.082  0.00  0.00    -0.227 NA
ATOM      5  N   UNL d   1      24.242  12.099  -0.960  0.00  0.00    -0.162 NA
ATOM      6  C   UNL d   1      24.078  12.195  -2.455  0.00  0.00     0.086 A 
ATOM      7  C   UNL d   1      23.593  12.484  -3.056  0.00  0.00     0.035 A 
ATOM      8  C   UNL d   1      22.905  12.897  -2.870  0.00  0.00     0.085 A 
ATOM      9  C   UNL d   1      23.775  12.380  -0.334  0.00  0.00     0.130 A 
ATOM     10  C   UNL d   1      24.768  11.781  -2.642  0.00  0.00     0.021 C 
ATOM     11  C   UNL d   1      22.420  13.186  -3.474  0.00  0.00     0.021 C 
ENDROOT
BRANCH   3  12
ATOM     12  C   UNL d   1      22.517  13.133  -0.234  0.00  0.00     0.215 C 
ATOM     13  O   UNL d   1      21.841  12.703  -0.022  0.00  0.00    -0.644 OA
ATOM     14  O   UNL d   1      22.577  13.930  -0.016  0.00  0.00    -0.644 OA
ENDBRANCH   3  12
BRANCH   7  15
ATOM     15  C   UNL d   1      23.800  12.359  -3.844  0.00  0.00     0.003 C 
BRANCH  15  16
ATOM     16  C   UNL d   1      24.582  12.464  -4.083  0.00  0.00     0.000 C 
ATOM     17  C   UNL d   1      24.744  12.774  -4.832  0.00  0.00     0.000 C 
ENDBRANCH  15  16
ENDBRANCH   7  15
TORSDOF 3
ENDMDL
MODEL 2
REMARK VINA RESULT:      20.1      8.678      9.501
REMARK  3 active torsions:
REMARK  status: ('A' for Active; 'I' for Inactive)
REMARK    1  A    between atoms: C_10  and  C_3 
REMARK    2  A    between atoms: C_13  and  C_7 
REMARK    3  A    between atoms: C_12  and  C_13 
ROOT
ATOM      1  C   UNL d   1      14.382  12.843  -1.512  0.00  0.00     0.171 A 
ATOM      2  N   UNL d   1      13.812  12.296  -1.743  0.00  0.00    -0.212 N 
ATOM      3  C   UNL d   1      14.599  12.669  -0.730  0.00  0.00     0.121 A 
ATOM      4  N   UNL d   1      14.632  13.426  -2.033  0.00  0.00    -0.227 NA
ATOM      5  N   UNL d   1      13.672  11.779  -1.106  0.00  0.00    -0.162 NA
ATOM      6  C   UNL d   1      13.488  12.329  -2.497  0.00  0.00     0.086 A 
ATOM      7  C   UNL d   1      13.738  12.914  -3.022  0.00  0.00     0.035 A 
ATOM      8  C   UNL d   1      14.308  13.461  -2.790  0.00  0.00     0.085 A 
ATOM      9  C   UNL d   1      14.163  12.015  -0.479  0.00  0.00     0.130 A 
ATOM     10  C   UNL d   1      12.916  11.780  -2.729  0.00  0.00     0.021 C 
ATOM     11  C   UNL d   1      14.558  14.047  -3.318  0.00  0.00     0.021 C 
ENDROOT
BRANCH   3  12
ATOM     12  C   UNL d   1      15.156  13.080  -0.282  0.00  0.00     0.215 C 
ATOM     13  O   UNL d   1      14.999  13.855  -0.032  0.00  0.00    -0.644 OA
ATOM     14  O   UNL d   1      15.876  12.724  -0.078  0.00  0.00    -0.644 OA
ENDBRANCH   3  12
BRANCH   7  15
ATOM     15  C   UNL d   1      13.414  12.949  -3.779  0.00  0.00     0.003 C 
BRANCH  15  16
ATOM     16  C   UNL d   1      13.356  12.262  -4.231  0.00  0.00     0.000 C 
ATOM     17  C   UNL d   1      12.770  12.199  -4.810  0.00  0.00     0.000 C 
ENDBRANCH  15  16
ENDBRANCH   7  15
TORSDOF 3
ENDMDL
