MODEL 1
REMARK VINA RESULT:      20.3      0.000      0.000
REMARK  1 active torsions:
REMARK  status: ('A' for Active; 'I' for Inactive)
REMARK    1  A    between atoms: C_12  and  N_4 
ROOT
ATOM      1  C   UNL d   1      58.384  49.706  50.451  0.00  0.00     0.081 A 
ATOM      2  C   UNL d   1      58.763  49.707  49.725  0.00  0.00     0.118 A 
ATOM      3  C   UNL d   1      58.842  49.706  51.155  0.00  0.00     0.268 A 
ATOM      4  N   UNL d   1      59.664  49.706  51.115  0.00  0.00    -0.249 N 
ATOM      5  N   UNL d   1      59.582  49.707  49.661  0.00  0.00    -0.212 NA
ATOM      6  C   UNL d   1      60.040  49.707  50.365  0.00  0.00     0.209 A 
ATOM      7  S   UNL d   1      58.145  49.707  49.146  0.00  0.00    -0.068 SA
ATOM      8  C   UNL d   1      57.569  49.706  50.324  0.00  0.00     0.013 A 
ATOM      9  C   UNL d   1      57.450  49.707  49.494  0.00  0.00     0.031 A 
ATOM     10  S   UNL d   1      60.874  49.707  50.285  0.00  0.00    -0.038 SA
ATOM     11  O   UNL d   1      58.472  49.705  51.920  0.00  0.00    -0.267 OA
ATOM     12  C   UNL d   1      56.926  49.706  50.839  0.00  0.00     0.001 A 
ATOM     13  C   UNL d   1      56.673  49.707  49.195  0.00  0.00     0.006 A 
ATOM     14  C   UNL d   1      56.164  49.706  50.538  0.00  0.00     0.000 A 
ATOM     15  C   UNL d   1      56.034  49.707  49.724  0.00  0.00     0.001 A 
ENDROOT
BRANCH   4  16
ATOM     16  C   UNL d   1      60.107  49.706  51.821  0.00  0.00     0.085 C 
ATOM     17  C   UNL d   1      60.926  49.691  51.796  0.00  0.00     0.021 C 
ENDBRANCH   4  16
TORSDOF 1
ENDMDL
MODEL 2
REMARK VINA RESULT:      20.5      1.121      1.527
REMARK  1 active torsions:
REMARK  status: ('A' for Active; 'I' for Inactive)
REMARK    1  A    between atoms: C_12  and  N_4 
ROOT
ATOM      1  C   UNL d   1      58.316  49.706  50.451  0.00  0.00     0.081 A 
ATOM      2  C   UNL d   1      58.152  49.707  51.253  0.00  0.00     0.118 A 
ATOM      3  C   UNL d   1      59.116  49.706  50.194  0.00  0.00     0.268 A 
ATOM      4  N   UNL d   1      59.728  49.706  50.744  0.00  0.00    -0.249 N 
ATOM      5  N   UNL d   1      58.747  49.707  51.820  0.00  0.00    -0.212 NA
ATOM      6  C   UNL d   1      59.547  49.707  51.563  0.00  0.00     0.209 A 
ATOM      7  S   UNL d   1      57.307  49.707  51.313  0.00  0.00    -0.068 SA
ATOM      8  C   UNL d   1      57.604  49.706  50.035  0.00  0.00     0.013 A 
ATOM      9  C   UNL d   1      56.988  49.707  50.605  0.00  0.00     0.031 A 
ATOM     10  S   UNL d   1      60.142  49.707  52.152  0.00  0.00    -0.038 SA
ATOM     11  O   UNL d   1      59.311  49.706  49.368  0.00  0.00    -0.267 OA
ATOM     12  C   UNL d   1      57.429  49.706  49.230  0.00  0.00     0.001 A 
ATOM     13  C   UNL d   1      56.196  49.706  50.345  0.00  0.00     0.006 A 
ATOM     14  C   UNL d   1      56.649  49.706  48.983  0.00  0.00     0.000 A 
ATOM     15  C   UNL d   1      56.035  49.706  49.532  0.00  0.00     0.001 A 
ENDROOT
BRANCH   4  16
ATOM     16  C   UNL d   1      60.517  49.706  50.476  0.00  0.00     0.085 C 
ATOM     17  C   UNL d   1      61.032  49.110  50.704  0.00  0.00     0.021 C 
ENDBRANCH   4  16
TORSDOF 1
ENDMDL
