MODEL 1
REMARK VINA RESULT:      54.0      0.000      0.000
REMARK  6 active torsions:
REMARK  status: ('A' for Active; 'I' for Inactive)
REMARK    1  A    between atoms: C_14  and  N_1 
REMARK    2  A    between atoms: S_12  and  C_3 
REMARK    3  A    between atoms: C_5  and  N_11 
REMARK    4  A    between atoms: C_15  and  C_8 
REMARK       I    between atoms: N_11  and  C_13 
REMARK    5  A    between atoms: C_17  and  S_12 
REMARK    6  A    between atoms: C_13  and  C_17 
ROOT
ATOM      1  N   UNL d   1      13.444  13.648  -2.906  0.00  0.00    -0.181 NA
ATOM      2  C   UNL d   1      13.671  12.846  -2.849  0.00  0.00     0.288 C 
ATOM      3  O   UNL d   1      13.853  12.429  -3.524  0.00  0.00    -0.265 OA
ENDROOT
BRANCH   2   4
ATOM      4  C   UNL d   1      13.707  12.491  -2.107  0.00  0.00     0.101 C 
BRANCH   4   5
ATOM      5  S   UNL d   1      14.063  12.895  -1.485  0.00  0.00    -0.041 SA
BRANCH   5   6
ATOM      6  C   UNL d   1      14.705  12.560  -1.102  0.00  0.00     0.219 A 
ATOM      7  N   UNL d   1      15.177  13.012  -0.599  0.00  0.00    -0.186 N 
ATOM      8  N   UNL d   1      15.770  12.531  -0.300  0.00  0.00    -0.038 NA
ATOM      9  N   UNL d   1      15.674  11.785  -0.610  0.00  0.00    -0.022 NA
ATOM     10  N   UNL d   1      15.013  11.791  -1.112  0.00  0.00    -0.101 NA
BRANCH   7  11
ATOM     11  C   UNL d   1      15.101  13.806  -0.405  0.00  0.00     0.087 A 
ATOM     12  C   UNL d   1      15.780  14.282  -0.327  0.00  0.00     0.019 A 
ATOM     13  C   UNL d   1      15.703  15.075  -0.133  0.00  0.00     0.002 A 
ATOM     14  C   UNL d   1      14.961  15.408  -0.014  0.00  0.00     0.000 A 
ATOM     15  C   UNL d   1      14.283  14.935  -0.091  0.00  0.00     0.002 A 
ATOM     16  C   UNL d   1      14.352  14.133  -0.287  0.00  0.00     0.019 A 
ENDBRANCH   7  11
ENDBRANCH   5   6
ENDBRANCH   4   5
ENDBRANCH   2   4
BRANCH   1  17
ATOM     17  C   UNL d   1      13.405  14.018  -3.652  0.00  0.00     0.216 A 
ATOM     18  N   UNL d   1      13.665  14.778  -3.844  0.00  0.00    -0.200 NA
ATOM     19  C   UNL d   1      13.513  14.901  -4.640  0.00  0.00     0.172 A 
ATOM     20  N   UNL d   1      13.162  14.227  -4.941  0.00  0.00    -0.187 NA
ATOM     21  S   UNL d   1      13.097  13.677  -4.318  0.00  0.00     0.054 SA
BRANCH  19  22
ATOM     22  C   UNL d   1      13.650  15.549  -5.137  0.00  0.00     0.036 A 
ATOM     23  C   UNL d   1      13.029  15.873  -5.564  0.00  0.00     0.003 A 
ATOM     24  C   UNL d   1      13.164  16.524  -6.064  0.00  0.00     0.000 A 
ATOM     25  C   UNL d   1      13.915  16.840  -6.129  0.00  0.00     0.000 A 
ATOM     26  C   UNL d   1      14.544  16.508  -5.694  0.00  0.00     0.000 A 
ATOM     27  C   UNL d   1      14.416  15.866  -5.200  0.00  0.00     0.003 A 
ENDBRANCH  19  22
ENDBRANCH   1  17
TORSDOF 6
ENDMDL
MODEL 2
REMARK VINA RESULT:      54.6      1.976      5.109
REMARK  6 active torsions:
REMARK  status: ('A' for Active; 'I' for Inactive)
REMARK    1  A    between atoms: C_14  and  N_1 
REMARK    2  A    between atoms: S_12  and  C_3 
REMARK    3  A    between atoms: C_5  and  N_11 
REMARK    4  A    between atoms: C_15  and  C_8 
REMARK       I    between atoms: N_11  and  C_13 
REMARK    5  A    between atoms: C_17  and  S_12 
REMARK    6  A    between atoms: C_13  and  C_17 
ROOT
ATOM      1  N   UNL d   1      13.348  13.400  -4.505  0.00  0.00    -0.181 NA
ATOM      2  C   UNL d   1      13.200  14.212  -4.377  0.00  0.00     0.288 C 
ATOM      3  O   UNL d   1      13.122  14.493  -3.617  0.00  0.00    -0.265 OA
ENDROOT
BRANCH   2   4
ATOM      4  C   UNL d   1      13.136  14.716  -5.025  0.00  0.00     0.101 C 
BRANCH   4   5
ATOM      5  S   UNL d   1      13.741  15.254  -5.177  0.00  0.00    -0.041 SA
BRANCH   5   6
ATOM      6  C   UNL d   1      13.575  15.936  -5.598  0.00  0.00     0.219 A 
ATOM      7  N   UNL d   1      14.041  16.611  -5.506  0.00  0.00    -0.186 N 
ATOM      8  N   UNL d   1      13.744  17.199  -5.993  0.00  0.00    -0.038 NA
ATOM      9  N   UNL d   1      13.099  16.900  -6.389  0.00  0.00    -0.022 NA
ATOM     10  N   UNL d   1      12.984  16.114  -6.150  0.00  0.00    -0.101 NA
BRANCH   7  11
ATOM     11  C   UNL d   1      14.695  16.716  -5.021  0.00  0.00     0.087 A 
ATOM     12  C   UNL d   1      15.445  16.852  -5.359  0.00  0.00     0.019 A 
ATOM     13  C   UNL d   1      16.098  16.957  -4.874  0.00  0.00     0.002 A 
ATOM     14  C   UNL d   1      16.023  16.928  -4.056  0.00  0.00     0.000 A 
ATOM     15  C   UNL d   1      15.277  16.792  -3.718  0.00  0.00     0.002 A 
ATOM     16  C   UNL d   1      14.612  16.686  -4.200  0.00  0.00     0.019 A 
ENDBRANCH   7  11
ENDBRANCH   5   6
ENDBRANCH   4   5
ENDBRANCH   2   4
BRANCH   1  17
ATOM     17  C   UNL d   1      13.414  12.882  -3.856  0.00  0.00     0.216 A 
ATOM     18  N   UNL d   1      13.704  13.062  -3.103  0.00  0.00    -0.200 NA
ATOM     19  C   UNL d   1      13.664  12.380  -2.650  0.00  0.00     0.172 A 
ATOM     20  N   UNL d   1      13.354  11.782  -3.112  0.00  0.00    -0.187 NA
ATOM     21  S   UNL d   1      13.199  12.101  -3.866  0.00  0.00     0.054 SA
BRANCH  19  22
ATOM     22  C   UNL d   1      13.873  12.224  -1.863  0.00  0.00     0.036 A 
ATOM     23  C   UNL d   1      14.650  12.323  -1.621  0.00  0.00     0.003 A 
ATOM     24  C   UNL d   1      14.862  12.167  -0.833  0.00  0.00     0.000 A 
ATOM     25  C   UNL d   1      14.296  11.916  -0.300  0.00  0.00     0.000 A 
ATOM     26  C   UNL d   1      13.507  11.817  -0.549  0.00  0.00     0.000 A 
ATOM     27  C   UNL d   1      13.292  11.970  -1.325  0.00  0.00     0.003 A 
ENDBRANCH  19  22
ENDBRANCH   1  17
TORSDOF 6
ENDMDL
MODEL 3
REMARK VINA RESULT:      56.8      2.238      3.095
REMARK  6 active torsions:
REMARK  status: ('A' for Active; 'I' for Inactive)
REMARK    1  A    between atoms: C_14  and  N_1 
REMARK    2  A    between atoms: S_12  and  C_3 
REMARK    3  A    between atoms: C_5  and  N_11 
REMARK    4  A    between atoms: C_15  and  C_8 
REMARK       I    between atoms: N_11  and  C_13 
REMARK    5  A    between atoms: C_17  and  S_12 
REMARK    6  A    between atoms: C_13  and  C_17 
ROOT
ATOM      1  N   UNL d   1      15.417  16.598  -3.603  0.00  0.00    -0.181 NA
ATOM      2  C   UNL d   1      15.014  15.952  -3.261  0.00  0.00     0.288 C 
ATOM      3  O   UNL d   1      14.327  15.679  -3.601  0.00  0.00    -0.265 OA
ENDROOT
BRANCH   2   4
ATOM      4  C   UNL d   1      15.320  15.601  -2.582  0.00  0.00     0.101 C 
BRANCH   4   5
ATOM      5  S   UNL d   1      14.821  15.161  -2.097  0.00  0.00    -0.041 SA
BRANCH   5   6
ATOM      6  C   UNL d   1      14.879  15.240  -1.284  0.00  0.00     0.219 A 
ATOM      7  N   UNL d   1      14.845  14.577  -0.793  0.00  0.00    -0.186 N 
ATOM      8  N   UNL d   1      14.917  14.827  -0.016  0.00  0.00    -0.038 NA
ATOM      9  N   UNL d   1      14.996  15.636  -0.015  0.00  0.00    -0.022 NA
ATOM     10  N   UNL d   1      14.973  15.905  -0.799  0.00  0.00    -0.101 NA
BRANCH   7  11
ATOM     11  C   UNL d   1      14.756  13.790  -1.007  0.00  0.00     0.087 A 
ATOM     12  C   UNL d   1      14.305  13.590  -1.679  0.00  0.00     0.019 A 
ATOM     13  C   UNL d   1      14.216  12.803  -1.892  0.00  0.00     0.002 A 
ATOM     14  C   UNL d   1      14.567  12.206  -1.450  0.00  0.00     0.000 A 
ATOM     15  C   UNL d   1      15.016  12.403  -0.780  0.00  0.00     0.002 A 
ATOM     16  C   UNL d   1      15.112  13.196  -0.558  0.00  0.00     0.019 A 
ENDBRANCH   7  11
ENDBRANCH   5   6
ENDBRANCH   4   5
ENDBRANCH   2   4
BRANCH   1  17
ATOM     17  C   UNL d   1      15.115  16.960  -4.290  0.00  0.00     0.216 A 
ATOM     18  N   UNL d   1      14.899  17.753  -4.381  0.00  0.00    -0.200 NA
ATOM     19  C   UNL d   1      14.634  17.854  -5.149  0.00  0.00     0.172 A 
ATOM     20  N   UNL d   1      14.683  17.135  -5.535  0.00  0.00    -0.187 NA
ATOM     21  S   UNL d   1      14.985  16.579  -4.992  0.00  0.00     0.054 SA
BRANCH  19  22
ATOM     22  C   UNL d   1      14.349  18.518  -5.555  0.00  0.00     0.036 A 
ATOM     23  C   UNL d   1      14.776  19.218  -5.541  0.00  0.00     0.003 A 
ATOM     24  C   UNL d   1      14.493  19.886  -5.947  0.00  0.00     0.000 A 
ATOM     25  C   UNL d   1      13.789  19.844  -6.360  0.00  0.00     0.000 A 
ATOM     26  C   UNL d   1      13.356  19.131  -6.372  0.00  0.00     0.000 A 
ATOM     27  C   UNL d   1      13.632  18.469  -5.973  0.00  0.00     0.003 A 
ENDBRANCH  19  22
ENDBRANCH   1  17
TORSDOF 6
ENDMDL
