MODEL 1
REMARK VINA RESULT:      21.8      0.000      0.000
REMARK  1 active torsions:
REMARK  status: ('A' for Active; 'I' for Inactive)
REMARK    1  A    between atoms: C_7  and  C_2 
ROOT
ATOM      1  C   UNL d   1      59.815  49.613  51.170  0.00  0.00     0.070 A 
ATOM      2  C   UNL d   1      60.615  49.601  51.245  0.00  0.00     0.170 A 
ATOM      3  C   UNL d   1      59.611  49.644  50.368  0.00  0.00     0.108 A 
ATOM      4  N   UNL d   1      60.948  49.626  50.470  0.00  0.00    -0.142 NA
ATOM      5  N   UNL d   1      60.314  49.653  49.937  0.00  0.00    -0.148 NA
ATOM      6  C   UNL d   1      58.811  49.660  50.153  0.00  0.00     0.042 A 
ATOM      7  C   UNL d   1      59.227  49.597  51.749  0.00  0.00     0.126 A 
ATOM      8  O   UNL d   1      58.428  49.614  51.534  0.00  0.00    -0.305 OA
ATOM      9  C   UNL d   1      58.224  49.645  50.732  0.00  0.00     0.102 A 
ATOM     10  C   UNL d   1      58.607  49.692  49.351  0.00  0.00     0.004 A 
ATOM     11  C   UNL d   1      57.424  49.661  50.517  0.00  0.00     0.025 A 
ATOM     12  C   UNL d   1      57.815  49.708  49.143  0.00  0.00     0.000 A 
ATOM     13  C   UNL d   1      57.227  49.693  49.723  0.00  0.00     0.002 A 
ENDROOT
BRANCH   2  14
ATOM     14  C   UNL d   1      60.999  49.571  51.963  0.00  0.00     0.231 C 
ATOM     15  O   UNL d   1      60.586  49.702  52.655  0.00  0.00    -0.643 OA
ATOM     16  O   UNL d   1      61.809  49.408  51.993  0.00  0.00    -0.643 OA
ENDBRANCH   2  14
TORSDOF 1
ENDMDL
