MODEL 1
REMARK VINA RESULT:       0.4      0.000      0.000
REMARK  7 active torsions:
REMARK  status: ('A' for Active; 'I' for Inactive)
REMARK    1  A    between atoms: C_12  and  N_3 
REMARK    2  A    between atoms: C_10  and  C_4 
REMARK    3  A    between atoms: C_15  and  C_12 
REMARK    4  A    between atoms: N_14  and  C_21 
REMARK    5  A    between atoms: C_22  and  N_14 
REMARK    6  A    between atoms: C_21  and  C_15 
REMARK    7  A    between atoms: C_20  and  C_22 
ROOT
ATOM      1  C   UNL d   1      33.179  21.792 -22.306  0.00  0.00     0.137 A 
ATOM      2  N   UNL d   1      33.150  22.272 -21.621  0.00  0.00    -0.259 N 
ATOM      3  N   UNL d   1      33.209  20.966 -22.231  0.00  0.00    -0.287 N 
ATOM      4  C   UNL d   1      33.178  22.142 -23.056  0.00  0.00     0.054 A 
ATOM      5  C   UNL d   1      33.119  23.102 -21.685  0.00  0.00     0.266 A 
ATOM      6  C   UNL d   1      33.181  21.084 -20.798  0.00  0.00     0.084 A 
ATOM      7  C   UNL d   1      33.210  20.616 -21.482  0.00  0.00     0.082 A 
ATOM      8  C   UNL d   1      33.148  22.975 -23.131  0.00  0.00     0.009 A 
ATOM      9  C   UNL d   1      33.118  23.455 -22.444  0.00  0.00     0.061 A 
ATOM     10  O   UNL d   1      33.090  23.575 -21.009  0.00  0.00    -0.267 OA
ATOM     11  C   UNL d   1      33.182  20.737 -20.052  0.00  0.00     0.019 A 
ATOM     12  C   UNL d   1      33.147  23.322 -23.877  0.00  0.00     0.000 C 
ATOM     13  C   UNL d   1      33.240  19.789 -21.406  0.00  0.00     0.019 A 
ATOM     14  C   UNL d   1      33.212  19.918 -19.980  0.00  0.00     0.002 A 
ATOM     15  C   UNL d   1      33.241  19.443 -20.659  0.00  0.00     0.002 A 
ENDROOT
BRANCH   3  16
ATOM     16  C   UNL d   1      33.238  20.500 -22.910  0.00  0.00     0.126 C 
BRANCH  16  17
ATOM     17  C   UNL d   1      32.619  19.981 -23.073  0.00  0.00     0.232 C 
ATOM     18  O   UNL d   1      31.858  20.133 -22.794  0.00  0.00    -0.283 OA
BRANCH  17  19
ATOM     19  C   UNL d   1      32.758  19.300 -23.518  0.00  0.00     0.142 C 
BRANCH  19  20
ATOM     20  N   UNL d   1      32.320  18.614 -23.369  0.00  0.00    -0.239 NA
BRANCH  20  21
ATOM     21  C   UNL d   1      32.233  18.045 -23.956  0.00  0.00     0.099 C 
BRANCH  21  22
ATOM     22  C   UNL d   1      32.053  17.268 -23.751  0.00  0.00     0.019 A 
ATOM     23  C   UNL d   1      31.309  16.952 -23.919  0.00  0.00     0.002 A 
ATOM     24  C   UNL d   1      31.132  16.176 -23.713  0.00  0.00     0.000 A 
ATOM     25  C   UNL d   1      31.705  15.708 -23.335  0.00  0.00     0.000 A 
ATOM     26  C   UNL d   1      32.447  16.028 -23.170  0.00  0.00     0.000 A 
ATOM     27  C   UNL d   1      32.620  16.802 -23.376  0.00  0.00     0.002 A 
ENDBRANCH  21  22
ENDBRANCH  20  21
ENDBRANCH  19  20
ENDBRANCH  17  19
ENDBRANCH  16  17
ENDBRANCH   3  16
BRANCH   4  28
ATOM     28  C   UNL d   1      33.207  21.670 -23.731  0.00  0.00     0.125 C 
ATOM     29  N   UNL d   1      33.234  22.024 -24.482  0.00  0.00    -0.146 N 
ENDBRANCH   4  28
TORSDOF 7
ENDMDL
