MODEL 1
REMARK VINA RESULT:     115.6      0.000      0.000
REMARK  3 active torsions:
REMARK  status: ('A' for Active; 'I' for Inactive)
REMARK    1  A    between atoms: C_21  and  N_1 
REMARK       I    between atoms: N_6  and  C_8 
REMARK    2  A    between atoms: C_8  and  C_9 
REMARK    3  A    between atoms: C_24  and  C_21 
ROOT
ATOM      1  N   UNL d   1      60.723  48.862  51.000  0.00  0.00    -0.249 N 
ATOM      2  C   UNL d   1      61.165  48.943  50.318  0.00  0.00     0.208 A 
ATOM      3  C   UNL d   1      60.547  48.109  51.292  0.00  0.00     0.268 A 
ATOM      4  C   UNL d   1      60.823  47.445  50.887  0.00  0.00     0.074 A 
ATOM      5  N   UNL d   1      61.441  48.273  49.913  0.00  0.00    -0.218 NA
ATOM      6  C   UNL d   1      61.262  47.533  50.209  0.00  0.00     0.088 A 
ATOM      7  C   UNL d   1      61.364  46.109  50.092  0.00  0.00     0.058 A 
ATOM      8  C   UNL d   1      61.536  46.868  49.806  0.00  0.00     0.024 A 
ATOM      9  C   UNL d   1      60.646  46.698  51.179  0.00  0.00     0.006 A 
ATOM     10  S   UNL d   1      61.342  49.707  50.024  0.00  0.00    -0.038 SA
ATOM     11  O   UNL d   1      60.101  48.023  51.979  0.00  0.00    -0.267 OA
ATOM     12  C   UNL d   1      60.920  46.027  50.777  0.00  0.00     0.005 A 
ENDROOT
BRANCH   7  13
ATOM     13  C   UNL d   1      61.640  45.440  49.688  0.00  0.00     0.265 C 
ATOM     14  N   UNL d   1      61.838  44.762  50.111  0.00  0.00    -0.272 N 
ATOM     15  C   UNL d   1      62.110  44.100  49.710  0.00  0.00     0.083 A 
ATOM     16  C   UNL d   1      61.765  44.740  50.931  0.00  0.00     0.083 A 
ATOM     17  C   UNL d   1      62.306  43.431  50.124  0.00  0.00     0.018 A 
ATOM     18  C   UNL d   1      62.580  42.768  49.709  0.00  0.00     0.002 A 
ATOM     19  C   UNL d   1      62.235  43.406  50.942  0.00  0.00     0.003 A 
ATOM     20  C   UNL d   1      62.785  42.073  50.122  0.00  0.00     0.000 A 
ATOM     21  C   UNL d   1      62.714  42.046  50.943  0.00  0.00     0.000 A 
ATOM     22  C   UNL d   1      62.439  42.715  51.348  0.00  0.00     0.000 A 
ATOM     23  C   UNL d   1      61.964  44.063  51.345  0.00  0.00     0.019 A 
ATOM     24  O   UNL d   1      61.712  45.462  48.867  0.00  0.00    -0.267 OA
ENDBRANCH   7  13
BRANCH   1  25
ATOM     25  C   UNL d   1      60.444  49.538  51.409  0.00  0.00     0.085 C 
BRANCH  25  26
ATOM     26  C   UNL d   1      60.725  49.699  52.166  0.00  0.00     0.019 C 
ATOM     27  C   UNL d   1      60.190  49.706  52.799  0.00  0.00     0.002 C 
ENDBRANCH  25  26
ENDBRANCH   1  25
TORSDOF 3
ENDMDL
MODEL 2
REMARK VINA RESULT:     116.8      2.213      5.484
REMARK  3 active torsions:
REMARK  status: ('A' for Active; 'I' for Inactive)
REMARK    1  A    between atoms: C_21  and  N_1 
REMARK       I    between atoms: N_6  and  C_8 
REMARK    2  A    between atoms: C_8  and  C_9 
REMARK    3  A    between atoms: C_24  and  C_21 
ROOT
ATOM      1  N   UNL d   1      61.816  45.483  50.069  0.00  0.00    -0.249 N 
ATOM      2  C   UNL d   1      61.113  45.264  50.423  0.00  0.00     0.208 A 
ATOM      3  C   UNL d   1      62.016  46.282  50.004  0.00  0.00     0.268 A 
ATOM      4  C   UNL d   1      61.498  46.852  50.300  0.00  0.00     0.074 A 
ATOM      5  N   UNL d   1      60.594  45.840  50.719  0.00  0.00    -0.218 NA
ATOM      6  C   UNL d   1      60.800  46.628  50.650  0.00  0.00     0.088 A 
ATOM      7  C   UNL d   1      60.478  48.004  50.884  0.00  0.00     0.058 A 
ATOM      8  C   UNL d   1      60.285  47.200  50.945  0.00  0.00     0.024 A 
ATOM      9  C   UNL d   1      61.699  47.645  50.234  0.00  0.00     0.006 A 
ATOM     10  S   UNL d   1      60.912  44.454  50.488  0.00  0.00    -0.038 SA
ATOM     11  O   UNL d   1      62.724  46.506  49.648  0.00  0.00    -0.267 OA
ATOM     12  C   UNL d   1      61.183  48.223  50.529  0.00  0.00     0.005 A 
ENDROOT
BRANCH   7  13
ATOM     13  C   UNL d   1      59.960  48.579  51.180  0.00  0.00     0.265 C 
ATOM     14  N   UNL d   1      59.167  48.565  50.958  0.00  0.00    -0.272 N 
ATOM     15  C   UNL d   1      58.654  49.134  51.251  0.00  0.00     0.083 A 
ATOM     16  C   UNL d   1      58.882  47.987  50.446  0.00  0.00     0.083 A 
ATOM     17  C   UNL d   1      57.873  49.123  51.035  0.00  0.00     0.018 A 
ATOM     18  C   UNL d   1      57.364  49.704  51.337  0.00  0.00     0.002 A 
ATOM     19  C   UNL d   1      57.586  48.547  50.524  0.00  0.00     0.003 A 
ATOM     20  C   UNL d   1      56.559  49.704  51.123  0.00  0.00     0.000 A 
ATOM     21  C   UNL d   1      56.268  49.127  50.610  0.00  0.00     0.000 A 
ATOM     22  C   UNL d   1      56.786  48.552  50.314  0.00  0.00     0.000 A 
ATOM     23  C   UNL d   1      58.093  47.979  50.230  0.00  0.00     0.019 A 
ATOM     24  O   UNL d   1      60.245  49.158  51.693  0.00  0.00    -0.267 OA
ENDBRANCH   7  13
BRANCH   1  25
ATOM     25  C   UNL d   1      62.339  44.901  49.770  0.00  0.00     0.085 C 
BRANCH  25  26
ATOM     26  C   UNL d   1      62.051  44.314  49.270  0.00  0.00     0.019 C 
ATOM     27  C   UNL d   1      62.484  43.612  49.183  0.00  0.00     0.002 C 
ENDBRANCH  25  26
ENDBRANCH   1  25
TORSDOF 3
ENDMDL
