MODEL 1
REMARK VINA RESULT:      64.8      0.000      0.000
REMARK  5 active torsions:
REMARK  status: ('A' for Active; 'I' for Inactive)
REMARK    1  A    between atoms: N_4  and  S_1 
REMARK    2  A    between atoms: C_5  and  S_1 
REMARK       I    between atoms: N_2  and  C_3 
REMARK    3  A    between atoms: C_3  and  C_11 
REMARK    4  A    between atoms: C_21  and  N_4 
REMARK    5  A    between atoms: C_12  and  C_13 
ROOT
ATOM      1  C   UNL d   1      13.708  14.815  -4.368  0.00  0.00     0.057 A 
ATOM      2  C   UNL d   1      13.582  15.759  -5.712  0.00  0.00     0.094 A 
ATOM      3  C   UNL d   1      14.326  14.841  -4.907  0.00  0.00     0.006 A 
ATOM      4  C   UNL d   1      13.022  15.262  -4.498  0.00  0.00     0.006 A 
ATOM      5  C   UNL d   1      14.268  15.312  -5.582  0.00  0.00     0.020 A 
ATOM      6  C   UNL d   1      12.964  15.733  -5.173  0.00  0.00     0.020 A 
ENDROOT
BRANCH   2   7
ATOM      7  N   UNL d   1      13.525  16.230  -6.387  0.00  0.00    -0.158 NA
BRANCH   7   8
ATOM      8  S   UNL d   1      13.604  17.054  -6.331  0.00  0.00     0.285 S 
ATOM      9  O   UNL d   1      14.425  16.974  -6.295  0.00  0.00    -0.198 OA
ATOM     10  O   UNL d   1      12.777  17.132  -6.367  0.00  0.00    -0.198 OA
BRANCH   8  11
ATOM     11  C   UNL d   1      13.681  17.884  -6.273  0.00  0.00     0.105 A 
ATOM     12  C   UNL d   1      14.415  18.212  -6.103  0.00  0.00     0.013 A 
ATOM     13  C   UNL d   1      14.494  19.027  -6.046  0.00  0.00    -0.004 A 
ATOM     14  C   UNL d   1      13.840  19.517  -6.159  0.00  0.00    -0.023 A 
ATOM     15  C   UNL d   1      13.109  19.178  -6.330  0.00  0.00    -0.004 A 
ATOM     16  C   UNL d   1      13.023  18.366  -6.388  0.00  0.00     0.013 A 
BRANCH  14  17
ATOM     17  C   UNL d   1      13.907  20.346  -6.105  0.00  0.00     0.019 C 
ATOM     18  C   UNL d   1      13.970  21.170  -6.051  0.00  0.00     0.004 C 
ATOM     19  C   UNL d   1      13.096  20.423  -6.263  0.00  0.00     0.004 C 
ATOM     20  C   UNL d   1      14.715  20.264  -5.947  0.00  0.00     0.004 C 
ENDBRANCH  14  17
ENDBRANCH   8  11
ENDBRANCH   7   8
ENDBRANCH   2   7
BRANCH   1  21
ATOM     21  C   UNL d   1      13.765  14.344  -3.693  0.00  0.00     0.265 C 
ATOM     22  N   UNL d   1      13.561  13.536  -3.741  0.00  0.00    -0.268 N 
ATOM     23  C   UNL d   1      13.305  13.211  -4.456  0.00  0.00     0.108 A 
ATOM     24  C   UNL d   1      13.619  13.065  -3.067  0.00  0.00     0.108 A 
ATOM     25  C   UNL d   1      13.104  12.405  -4.496  0.00  0.00     0.118 A 
ATOM     26  C   UNL d   1      12.847  12.078  -5.214  0.00  0.00     0.028 C 
ATOM     27  O   UNL d   1      13.162  11.934  -3.822  0.00  0.00    -0.304 OA
ATOM     28  C   UNL d   1      13.418  12.256  -3.104  0.00  0.00     0.118 A 
ATOM     29  C   UNL d   1      13.474  11.779  -2.429  0.00  0.00     0.028 C 
ATOM     30  O   UNL d   1      14.020  14.669  -2.984  0.00  0.00    -0.267 OA
ENDBRANCH   1  21
TORSDOF 5
ENDMDL
