MODEL 1
REMARK VINA RESULT:      25.9      0.000      0.000
REMARK  7 active torsions:
REMARK  status: ('A' for Active; 'I' for Inactive)
REMARK    1  A    between atoms: C_4  and  N_1 
REMARK    2  A    between atoms: O_2  and  C_10 
REMARK    3  A    between atoms: C_3  and  O_2 
REMARK    4  A    between atoms: C_9  and  C_4 
REMARK    5  A    between atoms: C_12  and  C_6 
REMARK    6  A    between atoms: C_7  and  C_12 
REMARK    7  A    between atoms: C_10  and  C_9 
ROOT
ATOM      1  O   UNL d   1      14.036  12.697  -2.306  0.00  0.00    -0.302 OA
ENDROOT
BRANCH   1   2
ATOM      2  C   UNL d   1      14.028  12.187  -2.956  0.00  0.00     0.166 C 
BRANCH   2   3
ATOM      3  C   UNL d   1      13.530  12.325  -3.592  0.00  0.00     0.238 C 
ATOM      4  O   UNL d   1      13.487  11.798  -4.206  0.00  0.00    -0.283 OA
BRANCH   3   5
ATOM      5  C   UNL d   1      13.073  13.012  -3.596  0.00  0.00     0.125 C 
BRANCH   5   6
ATOM      6  N   UNL d   1      13.121  13.534  -4.213  0.00  0.00    -0.296 N 
ATOM      7  C   UNL d   1      13.289  13.267  -4.976  0.00  0.00     0.107 A 
ATOM      8  C   UNL d   1      13.338  13.799  -5.606  0.00  0.00     0.142 A 
ATOM      9  O   UNL d   1      13.217  14.596  -5.470  0.00  0.00    -0.300 OA
ATOM     10  C   UNL d   1      13.051  14.865  -4.727  0.00  0.00     0.142 A 
ATOM     11  C   UNL d   1      13.003  14.333  -4.097  0.00  0.00     0.107 A 
ENDBRANCH   5   6
ENDBRANCH   3   5
ENDBRANCH   2   3
ENDBRANCH   1   2
BRANCH   1  12
ATOM     12  C   UNL d   1      13.950  12.393  -1.537  0.00  0.00     0.100 A 
ATOM     13  C   UNL d   1      14.596  12.398  -1.013  0.00  0.00     0.023 A 
ATOM     14  C   UNL d   1      14.516  12.099  -0.255  0.00  0.00     0.002 A 
ATOM     15  C   UNL d   1      13.791  11.795  -0.014  0.00  0.00     0.000 A 
ATOM     16  C   UNL d   1      13.144  11.791  -0.538  0.00  0.00     0.002 A 
ATOM     17  C   UNL d   1      13.240  12.091  -1.289  0.00  0.00     0.025 A 
BRANCH  13  18
ATOM     18  C   UNL d   1      15.336  12.706  -1.253  0.00  0.00     0.002 C 
BRANCH  18  19
ATOM     19  C   UNL d   1      15.943  12.830  -0.697  0.00  0.00     0.000 C 
ATOM     20  C   UNL d   1      16.268  13.566  -0.623  0.00  0.00     0.000 C 
ENDBRANCH  18  19
ENDBRANCH  13  18
ENDBRANCH   1  12
TORSDOF 7
ENDMDL
MODEL 2
REMARK VINA RESULT:      26.4      2.197      3.593
REMARK  7 active torsions:
REMARK  status: ('A' for Active; 'I' for Inactive)
REMARK    1  A    between atoms: C_4  and  N_1 
REMARK    2  A    between atoms: O_2  and  C_10 
REMARK    3  A    between atoms: C_3  and  O_2 
REMARK    4  A    between atoms: C_9  and  C_4 
REMARK    5  A    between atoms: C_12  and  C_6 
REMARK    6  A    between atoms: C_7  and  C_12 
REMARK    7  A    between atoms: C_10  and  C_9 
ROOT
ATOM      1  O   UNL d   1      13.378  13.940  -3.318  0.00  0.00    -0.302 OA
ENDROOT
BRANCH   1   2
ATOM      2  C   UNL d   1      14.028  14.418  -3.494  0.00  0.00     0.166 C 
BRANCH   2   3
ATOM      3  C   UNL d   1      14.027  15.214  -3.300  0.00  0.00     0.238 C 
ATOM      4  O   UNL d   1      13.334  15.633  -3.272  0.00  0.00    -0.283 OA
BRANCH   3   5
ATOM      5  C   UNL d   1      14.746  15.582  -3.132  0.00  0.00     0.125 C 
BRANCH   5   6
ATOM      6  N   UNL d   1      14.861  15.957  -2.423  0.00  0.00    -0.296 N 
ATOM      7  C   UNL d   1      14.830  15.534  -1.715  0.00  0.00     0.107 A 
ATOM      8  C   UNL d   1      14.947  15.916  -0.993  0.00  0.00     0.142 A 
ATOM      9  O   UNL d   1      15.094  16.720  -0.981  0.00  0.00    -0.300 OA
ATOM     10  C   UNL d   1      15.126  17.141  -1.670  0.00  0.00     0.142 A 
ATOM     11  C   UNL d   1      15.009  16.759  -2.393  0.00  0.00     0.107 A 
ENDBRANCH   5   6
ENDBRANCH   3   5
ENDBRANCH   2   3
ENDBRANCH   1   2
BRANCH   1  12
ATOM     12  C   UNL d   1      13.273  13.217  -3.716  0.00  0.00     0.100 A 
ATOM     13  C   UNL d   1      13.440  12.500  -3.327  0.00  0.00     0.023 A 
ATOM     14  C   UNL d   1      13.339  11.787  -3.716  0.00  0.00     0.002 A 
ATOM     15  C   UNL d   1      13.070  11.783  -4.493  0.00  0.00     0.000 A 
ATOM     16  C   UNL d   1      12.903  12.499  -4.881  0.00  0.00     0.002 A 
ATOM     17  C   UNL d   1      13.009  13.201  -4.482  0.00  0.00     0.025 A 
BRANCH  13  18
ATOM     18  C   UNL d   1      13.714  12.498  -2.537  0.00  0.00     0.002 C 
BRANCH  18  19
ATOM     19  C   UNL d   1      13.815  11.781  -2.126  0.00  0.00     0.000 C 
ATOM     20  C   UNL d   1      14.180  11.785  -1.405  0.00  0.00     0.000 C 
ENDBRANCH  18  19
ENDBRANCH  13  18
ENDBRANCH   1  12
TORSDOF 7
ENDMDL
