MODEL 1
REMARK VINA RESULT:      55.1      0.000      0.000
REMARK  6 active torsions:
REMARK  status: ('A' for Active; 'I' for Inactive)
REMARK    1  A    between atoms: N_3  and  S_1 
REMARK    2  A    between atoms: C_7  and  S_1 
REMARK    3  A    between atoms: C_2  and  N_3 
REMARK    4  A    between atoms: N_9  and  C_5 
REMARK    5  A    between atoms: C_22  and  N_9 
REMARK    6  A    between atoms: C_21  and  C_22 
ROOT
ATOM      1  C   UNL d   1      13.244  13.845  -3.853  0.00  0.00     0.211 A 
ATOM      2  N   UNL d   1      13.329  13.889  -4.667  0.00  0.00    -0.222 NA
ATOM      3  C   UNL d   1      13.187  13.111  -3.479  0.00  0.00     0.200 A 
ATOM      4  N   UNL d   1      13.216  12.415  -3.936  0.00  0.00    -0.223 NA
ATOM      5  C   UNL d   1      13.357  13.205  -5.113  0.00  0.00     0.101 A 
ATOM      6  C   UNL d   1      13.301  12.466  -4.757  0.00  0.00     0.101 A 
ATOM      7  C   UNL d   1      13.330  11.779  -5.212  0.00  0.00     0.021 A 
ATOM      8  C   UNL d   1      13.442  13.259  -5.937  0.00  0.00     0.021 A 
ATOM      9  C   UNL d   1      13.415  11.835  -6.026  0.00  0.00     0.002 A 
ATOM     10  C   UNL d   1      13.470  12.569  -6.389  0.00  0.00     0.002 A 
ENDROOT
BRANCH   1  11
ATOM     11  N   UNL d   1      13.216  14.531  -3.403  0.00  0.00    -0.136 NA
BRANCH  11  12
ATOM     12  S   UNL d   1      13.500  15.290  -3.781  0.00  0.00     0.287 S 
ATOM     13  O   UNL d   1      13.045  15.593  -4.486  0.00  0.00    -0.198 OA
ATOM     14  O   UNL d   1      12.831  15.052  -4.228  0.00  0.00    -0.198 OA
BRANCH  12  15
ATOM     15  C   UNL d   1      14.123  15.804  -3.616  0.00  0.00     0.105 A 
ATOM     16  C   UNL d   1      14.500  16.216  -4.229  0.00  0.00     0.013 A 
ATOM     17  C   UNL d   1      15.131  16.737  -4.064  0.00  0.00     0.001 A 
ATOM     18  C   UNL d   1      15.500  17.141  -4.674  0.00  0.00     0.000 C 
ATOM     19  C   UNL d   1      15.380  16.841  -3.277  0.00  0.00     0.000 A 
ATOM     20  C   UNL d   1      15.001  16.427  -2.667  0.00  0.00     0.001 A 
ATOM     21  C   UNL d   1      14.378  15.913  -2.832  0.00  0.00     0.013 A 
ENDBRANCH  12  15
ENDBRANCH  11  12
ENDBRANCH   1  11
BRANCH   3  22
ATOM     22  N   UNL d   1      13.102  13.058  -2.655  0.00  0.00    -0.223 NA
BRANCH  22  23
ATOM     23  C   UNL d   1      13.433  12.418  -2.237  0.00  0.00     0.101 C 
BRANCH  23  24
ATOM     24  C   UNL d   1      14.042  12.550  -1.697  0.00  0.00     0.021 A 
ATOM     25  C   UNL d   1      14.453  13.236  -1.474  0.00  0.00     0.028 A 
ATOM     26  C   UNL d   1      15.053  13.186  -0.901  0.00  0.00     0.119 A 
ATOM     27  O   UNL d   1      15.548  13.760  -0.574  0.00  0.00    -0.300 OA
ATOM     28  C   UNL d   1      15.234  12.459  -0.560  0.00  0.00     0.119 A 
ATOM     29  C   UNL d   1      16.038  13.388  -0.026  0.00  0.00     0.304 A 
ATOM     30  O   UNL d   1      15.849  12.587  -0.014  0.00  0.00    -0.300 OA
ATOM     31  C   UNL d   1      14.824  11.781  -0.783  0.00  0.00     0.026 A 
ATOM     32  C   UNL d   1      14.230  11.823  -1.350  0.00  0.00     0.004 A 
ENDBRANCH  23  24
ENDBRANCH  22  23
ENDBRANCH   3  22
TORSDOF 6
ENDMDL
