MODEL 1
REMARK VINA RESULT:      -4.5      0.000      0.000
REMARK  6 active torsions:
REMARK  status: ('A' for Active; 'I' for Inactive)
REMARK    1  A    between atoms: C_6  and  C_1 
REMARK    2  A    between atoms: N_7  and  C_2 
REMARK    3  A    between atoms: C_8  and  N_5 
REMARK    4  A    between atoms: O_13  and  C_6 
REMARK    5  A    between atoms: C_18  and  O_13 
REMARK    6  A    between atoms: O_17  and  C_14 
ROOT
ATOM      1  C   UNL d   1     -41.540-122.704 -50.678  0.00  0.00     0.112 A 
ATOM      2  C   UNL d   1     -41.315-121.730 -51.576  0.00  0.00     0.172 A 
ATOM      3  C   UNL d   1     -41.680-123.007 -51.432  0.00  0.00     0.077 A 
ATOM      4  S   UNL d   1     -41.314-121.913 -50.764  0.00  0.00    -0.044 SA
ATOM      5  N   UNL d   1     -41.541-122.405 -51.987  0.00  0.00    -0.287 N 
ATOM      6  C   UNL d   1     -41.920-123.786 -51.598  0.00  0.00     0.020 C 
ENDROOT
BRANCH   5   7
ATOM      7  C   UNL d   1     -41.607-122.439 -52.809  0.00  0.00     0.066 A 
ATOM      8  C   UNL d   1     -42.163-121.967 -53.193  0.00  0.00     0.020 A 
ATOM      9  C   UNL d   1     -42.227-122.004 -54.014  0.00  0.00     0.026 A 
ATOM     10  C   UNL d   1     -41.742-122.505 -54.446  0.00  0.00     0.094 A 
ATOM     11  C   UNL d   1     -41.186-122.975 -54.057  0.00  0.00     0.026 A 
ATOM     12  C   UNL d   1     -41.123-122.939 -53.236  0.00  0.00     0.020 A 
BRANCH  10  13
ATOM     13  O   UNL d   1     -41.806-122.541 -55.275  0.00  0.00    -0.328 OA
ATOM     14  C   UNL d   1     -41.825-121.843 -55.715  0.00  0.00     0.181 C 
ENDBRANCH  10  13
ENDBRANCH   5   7
BRANCH   2  15
ATOM     15  N   UNL d   1     -41.123-120.997 -51.906  0.00  0.00    -0.277 NA
ATOM     16  H   UNL d   1     -41.469-120.761 -52.615  0.00  0.00     0.189 HD
ENDBRANCH   2  15
BRANCH   1  17
ATOM     17  C   UNL d   1     -41.612-123.116 -49.965  0.00  0.00     0.308 C 
ATOM     18  O   UNL d   1     -41.123-123.753 -49.807  0.00  0.00    -0.258 OA
BRANCH  17  19
ATOM     19  O   UNL d   1     -42.182-122.881 -49.409  0.00  0.00    -0.271 OA
BRANCH  19  20
ATOM     20  C   UNL d   1     -42.123-123.118 -48.623  0.00  0.00     0.126 C 
ATOM     21  C   UNL d   1     -42.761-123.018 -48.109  0.00  0.00     0.029 C 
ENDBRANCH  19  20
ENDBRANCH  17  19
ENDBRANCH   1  17
TORSDOF 6
ENDMDL
MODEL 2
REMARK VINA RESULT:      -2.2      1.120      1.557
REMARK  6 active torsions:
REMARK  status: ('A' for Active; 'I' for Inactive)
REMARK    1  A    between atoms: C_6  and  C_1 
REMARK    2  A    between atoms: N_7  and  C_2 
REMARK    3  A    between atoms: C_8  and  N_5 
REMARK    4  A    between atoms: O_13  and  C_6 
REMARK    5  A    between atoms: C_18  and  O_13 
REMARK    6  A    between atoms: O_17  and  C_14 
ROOT
ATOM      1  C   UNL d   1     -42.246-122.987 -49.441  0.00  0.00     0.112 A 
ATOM      2  C   UNL d   1     -42.801-122.244 -50.414  0.00  0.00     0.172 A 
ATOM      3  C   UNL d   1     -41.800-123.083 -50.129  0.00  0.00     0.077 A 
ATOM      4  S   UNL d   1     -42.866-122.468 -49.615  0.00  0.00    -0.044 SA
ATOM      5  N   UNL d   1     -42.144-122.624 -50.730  0.00  0.00    -0.287 N 
ATOM      6  C   UNL d   1     -41.123-123.561 -50.198  0.00  0.00     0.020 C 
ENDROOT
BRANCH   5   7
ATOM      7  C   UNL d   1     -41.899-122.538 -51.514  0.00  0.00     0.066 A 
ATOM      8  C   UNL d   1     -41.825-121.784 -51.838  0.00  0.00     0.020 A 
ATOM      9  C   UNL d   1     -41.580-121.702 -52.620  0.00  0.00     0.026 A 
ATOM     10  C   UNL d   1     -41.412-122.364 -53.074  0.00  0.00     0.094 A 
ATOM     11  C   UNL d   1     -41.488-123.118 -52.746  0.00  0.00     0.026 A 
ATOM     12  C   UNL d   1     -41.733-123.199 -51.963  0.00  0.00     0.020 A 
BRANCH  10  13
ATOM     13  O   UNL d   1     -41.166-122.280 -53.864  0.00  0.00    -0.328 OA
ATOM     14  C   UNL d   1     -41.702-122.413 -54.477  0.00  0.00     0.181 C 
ENDBRANCH  10  13
ENDBRANCH   5   7
BRANCH   2  15
ATOM     15  N   UNL d   1     -43.309-121.731 -50.815  0.00  0.00    -0.277 NA
ATOM     16  H   UNL d   1     -43.153-120.923 -50.828  0.00  0.00     0.189 HD
ENDBRANCH   2  15
BRANCH   1  17
ATOM     17  C   UNL d   1     -42.099-123.344 -48.711  0.00  0.00     0.308 C 
ATOM     18  O   UNL d   1     -41.438-123.817 -48.610  0.00  0.00    -0.258 OA
BRANCH  17  19
ATOM     19  O   UNL d   1     -42.623-123.223 -48.079  0.00  0.00    -0.271 OA
BRANCH  19  20
ATOM     20  C   UNL d   1     -42.340-123.109 -47.315  0.00  0.00     0.126 C 
ATOM     21  C   UNL d   1     -42.854-122.888 -46.708  0.00  0.00     0.029 C 
ENDBRANCH  19  20
ENDBRANCH  17  19
ENDBRANCH   1  17
TORSDOF 6
ENDMDL
