MODEL 1
REMARK VINA RESULT:      76.8      0.000      0.000
REMARK  5 active torsions:
REMARK  status: ('A' for Active; 'I' for Inactive)
REMARK    1  A    between atoms: O_4  and  C_1 
REMARK    2  A    between atoms: C_9  and  C_2 
REMARK    3  A    between atoms: C_5  and  O_4 
REMARK    4  A    between atoms: C_12  and  C_5 
REMARK    5  A    between atoms: N_10  and  C_9 
ROOT
ATOM      1  C   UNL d   1      60.019  49.684  51.515  0.00  0.00     0.122 A 
ATOM      2  C   UNL d   1      59.207  49.695  51.376  0.00  0.00     0.043 A 
ATOM      3  C   UNL d   1      60.304  49.676  52.289  0.00  0.00     0.105 A 
ATOM      4  C   UNL d   1      59.777  49.679  52.923  0.00  0.00     0.030 A 
ATOM      5  C   UNL d   1      58.971  49.689  52.776  0.00  0.00     0.059 A 
ATOM      6  C   UNL d   1      58.680  49.697  52.010  0.00  0.00     0.015 A 
ATOM      7  N   UNL d   1      61.111  49.665  52.423  0.00  0.00    -0.242 NA
ATOM      8 CL   UNL d   1      58.456  49.692  53.434  0.00  0.00    -0.082 Cl
ATOM      9  C   UNL d   1      60.062  49.671  53.684  0.00  0.00     0.004 A 
ATOM     10  C   UNL d   1      61.396  49.657  53.197  0.00  0.00     0.099 A 
ATOM     11  C   UNL d   1      60.869  49.660  53.831  0.00  0.00     0.021 A 
ENDROOT
BRANCH   1  12
ATOM     12  O   UNL d   1      60.506  49.681  50.948  0.00  0.00    -0.271 OA
BRANCH  12  13
ATOM     13  C   UNL d   1      60.725  49.182  50.153  0.00  0.00     0.300 C 
ATOM     14  O   UNL d   1      60.583  49.689  49.298  0.00  0.00    -0.259 OA
BRANCH  13  15
ATOM     15  C   UNL d   1      61.003  48.408  50.196  0.00  0.00     0.064 A 
ATOM     16  C   UNL d   1      61.774  48.230  49.941  0.00  0.00     0.008 A 
ATOM     17  C   UNL d   1      62.052  47.445  49.986  0.00  0.00     0.030 A 
ATOM     18  C   UNL d   1      61.562  46.838  50.285  0.00  0.00     0.140 A 
ATOM     19  C   UNL d   1      60.793  47.020  50.538  0.00  0.00     0.030 A 
ATOM     20  F   UNL d   1      61.776  46.272  50.313  0.00  0.00    -0.204 F 
ATOM     21  C   UNL d   1      60.516  47.805  50.493  0.00  0.00     0.008 A 
ENDBRANCH  13  15
ENDBRANCH  12  13
ENDBRANCH   1  12
BRANCH   2  22
ATOM     22  C   UNL d   1      58.714  49.705  50.610  0.00  0.00     0.082 C 
BRANCH  22  23
ATOM     23  N   UNL d   1      57.914  49.525  50.642  0.00  0.00    -0.299 N 
ATOM     24  C   UNL d   1      57.608  49.158  51.305  0.00  0.00     0.107 A 
ATOM     25  C   UNL d   1      56.804  48.971  51.351  0.00  0.00     0.142 A 
ATOM     26  O   UNL d   1      56.317  49.157  50.723  0.00  0.00    -0.300 OA
ATOM     27  C   UNL d   1      56.626  49.529  50.049  0.00  0.00     0.142 A 
ATOM     28  C   UNL d   1      57.425  49.708  50.019  0.00  0.00     0.107 A 
ENDBRANCH  22  23
ENDBRANCH   2  22
TORSDOF 5
ENDMDL
