MODEL 1
REMARK VINA RESULT:       1.9      0.000      0.000
REMARK  7 active torsions:
REMARK  status: ('A' for Active; 'I' for Inactive)
REMARK    1  A    between atoms: N_6  and  C_1 
REMARK    2  A    between atoms: C_10  and  C_2 
REMARK       I    between atoms: C_8  and  N_6 
REMARK       I    between atoms: C_9  and  N_7 
REMARK    3  A    between atoms: C_12  and  C_8 
REMARK    4  A    between atoms: O_22  and  C_9 
REMARK    5  A    between atoms: O_23  and  C_10 
REMARK    6  A    between atoms: C_24  and  O_22 
REMARK    7  A    between atoms: C_25  and  O_23 
ROOT
ATOM      1  C   UNL d   1      57.461  -0.872  30.925  0.00  0.00     0.119 A 
ATOM      2  C   UNL d   1      58.103  -0.570  30.502  0.00  0.00     0.088 A 
ATOM      3  C   UNL d   1      57.999  -1.867  30.223  0.00  0.00     0.049 A 
ATOM      4  C   UNL d   1      58.431  -1.197  30.068  0.00  0.00     0.016 A 
ATOM      5  S   UNL d   1      57.396  -1.682  30.751  0.00  0.00    -0.066 SA
ATOM      6  N   UNL d   1      58.846  -2.617  29.344  0.00  0.00    -0.251 N 
ATOM      7  C   UNL d   1      59.056  -3.329  28.981  0.00  0.00     0.378 C 
ATOM      8  C   UNL d   1      58.207  -2.594  29.856  0.00  0.00     0.091 A 
ATOM      9  C   UNL d   1      59.083  -1.215  29.548  0.00  0.00     0.020 A 
ATOM     10  C   UNL d   1      59.281  -1.933  29.191  0.00  0.00     0.085 A 
ATOM     11  O   UNL d   1      58.622  -4.012  29.134  0.00  0.00    -0.237 OA
ENDROOT
BRANCH   1  12
ATOM     12  N   UNL d   1      56.964  -0.442  31.437  0.00  0.00    -0.201 NA
ATOM     13  C   UNL d   1      56.732  -0.774  32.148  0.00  0.00     0.286 C 
ATOM     14  O   UNL d   1      56.981  -1.530  32.367  0.00  0.00    -0.265 OA
BRANCH  13  15
ATOM     15  C   UNL d   1      56.240  -0.349  32.655  0.00  0.00     0.087 A 
ATOM     16  S   UNL d   1      56.356  -0.217  33.463  0.00  0.00    -0.082 SA
ATOM     17  C   UNL d   1      55.724   0.238  33.748  0.00  0.00     0.036 A 
ATOM     18  C   UNL d   1      55.231   0.380  33.118  0.00  0.00     0.008 A 
ATOM     19  C   UNL d   1      55.537   0.026  32.445  0.00  0.00     0.012 A 
ENDBRANCH  13  15
ENDBRANCH   1  12
BRANCH   2  20
ATOM     20  C   UNL d   1      58.361   0.213  30.515  0.00  0.00     0.302 C 
ATOM     21  O   UNL d   1      58.227   0.680  29.846  0.00  0.00    -0.259 OA
BRANCH  20  22
ATOM     22  O   UNL d   1      58.747   0.517  31.190  0.00  0.00    -0.271 OA
BRANCH  22  23
ATOM     23  C   UNL d   1      59.560   0.643  31.175  0.00  0.00     0.126 C 
ATOM     24  C   UNL d   1      59.990   0.680  31.883  0.00  0.00     0.029 C 
ENDBRANCH  22  23
ENDBRANCH  20  22
ENDBRANCH   2  20
BRANCH   7  25
ATOM     25  O   UNL d   1      59.698  -3.354  28.466  0.00  0.00    -0.257 OA
BRANCH  25  26
ATOM     26  C   UNL d   1      60.219  -3.993  28.477  0.00  0.00     0.128 C 
ATOM     27  C   UNL d   1      61.025  -3.881  28.616  0.00  0.00     0.029 C 
ENDBRANCH  25  26
ENDBRANCH   7  25
TORSDOF 7
ENDMDL
MODEL 2
REMARK VINA RESULT:       3.9      1.979      3.201
REMARK  7 active torsions:
REMARK  status: ('A' for Active; 'I' for Inactive)
REMARK    1  A    between atoms: N_6  and  C_1 
REMARK    2  A    between atoms: C_10  and  C_2 
REMARK       I    between atoms: C_8  and  N_6 
REMARK       I    between atoms: C_9  and  N_7 
REMARK    3  A    between atoms: C_12  and  C_8 
REMARK    4  A    between atoms: O_22  and  C_9 
REMARK    5  A    between atoms: O_23  and  C_10 
REMARK    6  A    between atoms: C_24  and  O_22 
REMARK    7  A    between atoms: C_25  and  O_23 
ROOT
ATOM      1  C   UNL d   1      57.060   0.309  32.834  0.00  0.00     0.119 A 
ATOM      2  C   UNL d   1      56.833  -0.196  32.222  0.00  0.00     0.088 A 
ATOM      3  C   UNL d   1      58.019   0.321  31.911  0.00  0.00     0.049 A 
ATOM      4  C   UNL d   1      57.437  -0.182  31.651  0.00  0.00     0.016 A 
ATOM      5  S   UNL d   1      57.801   0.632  32.640  0.00  0.00    -0.066 SA
ATOM      6  N   UNL d   1      58.777   0.055  30.724  0.00  0.00    -0.251 N 
ATOM      7  C   UNL d   1      59.449   0.172  30.258  0.00  0.00     0.378 C 
ATOM      8  C   UNL d   1      58.705   0.445  31.441  0.00  0.00     0.091 A 
ATOM      9  C   UNL d   1      57.505  -0.582  30.923  0.00  0.00     0.020 A 
ATOM     10  C   UNL d   1      58.182  -0.455  30.467  0.00  0.00     0.085 A 
ATOM     11  O   UNL d   1      60.044   0.681  30.515  0.00  0.00    -0.237 OA
ENDROOT
BRANCH   1  12
ATOM     12  N   UNL d   1      56.625   0.468  33.526  0.00  0.00    -0.201 NA
ATOM     13  C   UNL d   1      56.924   0.240  34.253  0.00  0.00     0.286 C 
ATOM     14  O   UNL d   1      57.651  -0.146  34.313  0.00  0.00    -0.265 OA
BRANCH  13  15
ATOM     15  C   UNL d   1      56.493   0.398  34.939  0.00  0.00     0.087 A 
ATOM     16  S   UNL d   1      56.785   0.426  35.712  0.00  0.00    -0.082 SA
ATOM     17  C   UNL d   1      56.156   0.603  36.222  0.00  0.00     0.036 A 
ATOM     18  C   UNL d   1      55.491   0.681  35.762  0.00  0.00     0.008 A 
ATOM     19  C   UNL d   1      55.686   0.558  34.976  0.00  0.00     0.012 A 
ENDBRANCH  13  15
ENDBRANCH   1  12
BRANCH   2  20
ATOM     20  C   UNL d   1      56.133  -0.630  32.192  0.00  0.00     0.302 C 
ATOM     21  O   UNL d   1      55.449  -0.250  31.925  0.00  0.00    -0.259 OA
BRANCH  20  22
ATOM     22  O   UNL d   1      56.124  -1.431  32.426  0.00  0.00    -0.271 OA
BRANCH  22  23
ATOM     23  C   UNL d   1      55.407  -1.826  32.509  0.00  0.00     0.126 C 
ATOM     24  C   UNL d   1      55.240  -2.249  33.202  0.00  0.00     0.029 C 
ENDBRANCH  22  23
ENDBRANCH  20  22
ENDBRANCH   2  20
BRANCH   7  25
ATOM     25  O   UNL d   1      59.524  -0.219  29.538  0.00  0.00    -0.257 OA
BRANCH  25  26
ATOM     26  C   UNL d   1      60.261  -0.296  29.176  0.00  0.00     0.128 C 
ATOM     27  C   UNL d   1      60.415  -0.917  28.655  0.00  0.00     0.029 C 
ENDBRANCH  25  26
ENDBRANCH   7  25
TORSDOF 7
ENDMDL
