MODEL 1
REMARK VINA RESULT:      -6.3      0.000      0.000
REMARK  3 active torsions:
REMARK  status: ('A' for Active; 'I' for Inactive)
REMARK    1  A    between atoms: C_11  and  C_3 
REMARK       I    between atoms: C_7  and  N_9 
REMARK    2  A    between atoms: C_8  and  C_7 
REMARK    3  A    between atoms: N_9  and  C_13 
ROOT
ATOM      1  C   UNL d   1     -39.719  15.275  17.670  0.00  0.00     0.021 A 
ATOM      2  C   UNL d   1     -39.857  15.461  19.080  0.00  0.00     0.085 A 
ATOM      3  C   UNL d   1     -39.412  15.208  18.433  0.00  0.00     0.021 A 
ATOM      4  C   UNL d   1     -40.472  15.594  17.554  0.00  0.00     0.002 A 
ATOM      5  C   UNL d   1     -40.917  15.847  18.203  0.00  0.00     0.002 A 
ATOM      6  C   UNL d   1     -40.609  15.780  18.965  0.00  0.00     0.019 A 
ENDROOT
BRANCH   2   7
ATOM      7  N   UNL d   1     -39.552  15.394  19.839  0.00  0.00    -0.207 NA
ATOM      8  C   UNL d   1     -39.920  14.918  20.391  0.00  0.00     0.297 C 
ATOM      9  O   UNL d   1     -40.609  14.496  20.186  0.00  0.00    -0.264 OA
BRANCH   8  10
ATOM     10  C   UNL d   1     -39.613  14.851  21.154  0.00  0.00     0.139 A 
ATOM     11  N   UNL d   1     -39.292  14.143  21.409  0.00  0.00    -0.241 NA
ATOM     12  C   UNL d   1     -38.985  14.076  22.172  0.00  0.00     0.082 A 
ATOM     13  C   UNL d   1     -38.661  13.360  22.425  0.00  0.00     0.019 A 
ATOM     14  C   UNL d   1     -38.999  14.717  22.680  0.00  0.00     0.018 A 
ATOM     15  C   UNL d   1     -38.354  13.294  23.188  0.00  0.00     0.002 A 
ATOM     16  C   UNL d   1     -38.370  13.943  23.698  0.00  0.00     0.000 A 
ATOM     17  C   UNL d   1     -38.692  14.650  23.442  0.00  0.00     0.002 A 
ATOM     18  C   UNL d   1     -39.324  15.442  22.429  0.00  0.00     0.003 A 
ATOM     19  C   UNL d   1     -39.631  15.509  21.666  0.00  0.00     0.024 A 
ENDBRANCH   8  10
ENDBRANCH   2   7
BRANCH   1  20
ATOM     20  C   UNL d   1     -39.275  15.022  17.022  0.00  0.00     0.101 A 
ATOM     21  N   UNL d   1     -38.863  15.480  16.470  0.00  0.00    -0.221 NA
ATOM     22  C   UNL d   1     -38.516  14.969  15.942  0.00  0.00     0.179 A 
ATOM     23  N   UNL d   1     -38.704  14.196  16.156  0.00  0.00    -0.282 N 
ATOM     24  S   UNL d   1     -38.045  14.934  15.273  0.00  0.00    -0.048 SA
ATOM     25  C   UNL d   1     -39.177  14.229  16.830  0.00  0.00     0.101 A 
ATOM     26  C   UNL d   1     -38.341  13.687  15.607  0.00  0.00     0.089 A 
ATOM     27  C   UNL d   1     -37.940  14.145  15.070  0.00  0.00     0.057 A 
ENDBRANCH   1  20
TORSDOF 3
ENDMDL
MODEL 2
REMARK VINA RESULT:      -5.8      8.553      9.731
REMARK  3 active torsions:
REMARK  status: ('A' for Active; 'I' for Inactive)
REMARK    1  A    between atoms: C_11  and  C_3 
REMARK       I    between atoms: C_7  and  N_9 
REMARK    2  A    between atoms: C_8  and  C_7 
REMARK    3  A    between atoms: N_9  and  C_13 
ROOT
ATOM      1  C   UNL d   1     -45.867  12.028  22.931  0.00  0.00     0.021 A 
ATOM      2  C   UNL d   1     -47.205  12.301  23.349  0.00  0.00     0.085 A 
ATOM      3  C   UNL d   1     -46.514  12.538  22.966  0.00  0.00     0.021 A 
ATOM      4  C   UNL d   1     -45.911  11.281  23.280  0.00  0.00     0.002 A 
ATOM      5  C   UNL d   1     -46.603  11.044  23.664  0.00  0.00     0.002 A 
ATOM      6  C   UNL d   1     -47.250  11.555  23.698  0.00  0.00     0.019 A 
ENDROOT
BRANCH   2   7
ATOM      7  N   UNL d   1     -47.849  12.809  23.383  0.00  0.00    -0.207 NA
ATOM      8  C   UNL d   1     -48.475  12.717  22.865  0.00  0.00     0.297 C 
ATOM      9  O   UNL d   1     -48.462  12.105  22.300  0.00  0.00    -0.264 OA
BRANCH   8  10
ATOM     10  C   UNL d   1     -49.122  13.227  22.900  0.00  0.00     0.139 A 
ATOM     11  N   UNL d   1     -49.021  14.009  23.118  0.00  0.00    -0.241 NA
ATOM     12  C   UNL d   1     -49.668  14.519  23.153  0.00  0.00     0.082 A 
ATOM     13  C   UNL d   1     -49.560  15.307  23.374  0.00  0.00     0.019 A 
ATOM     14  C   UNL d   1     -50.417  14.248  22.968  0.00  0.00     0.018 A 
ATOM     15  C   UNL d   1     -50.208  15.817  23.408  0.00  0.00     0.002 A 
ATOM     16  C   UNL d   1     -50.963  15.540  23.221  0.00  0.00     0.000 A 
ATOM     17  C   UNL d   1     -51.064  14.758  23.003  0.00  0.00     0.002 A 
ATOM     18  C   UNL d   1     -50.530  13.453  22.745  0.00  0.00     0.003 A 
ATOM     19  C   UNL d   1     -49.883  12.943  22.710  0.00  0.00     0.024 A 
ENDBRANCH   8  10
ENDBRANCH   2   7
BRANCH   1  20
ATOM     20  C   UNL d   1     -45.175  12.264  22.548  0.00  0.00     0.101 A 
ATOM     21  N   UNL d   1     -45.038  12.952  22.109  0.00  0.00    -0.221 NA
ATOM     22  C   UNL d   1     -44.269  12.923  21.848  0.00  0.00     0.179 A 
ATOM     23  N   UNL d   1     -43.922  12.226  22.117  0.00  0.00    -0.282 N 
ATOM     24  S   UNL d   1     -43.706  13.331  21.414  0.00  0.00    -0.048 SA
ATOM     25  C   UNL d   1     -44.487  11.815  22.554  0.00  0.00     0.101 A 
ATOM     26  C   UNL d   1     -43.136  12.213  21.841  0.00  0.00     0.089 A 
ATOM     27  C   UNL d   1     -43.012  12.892  21.412  0.00  0.00     0.057 A 
ENDBRANCH   1  20
TORSDOF 3
ENDMDL
MODEL 3
REMARK VINA RESULT:      -5.5      1.791      5.607
REMARK  3 active torsions:
REMARK  status: ('A' for Active; 'I' for Inactive)
REMARK    1  A    between atoms: C_11  and  C_3 
REMARK       I    between atoms: C_7  and  N_9 
REMARK    2  A    between atoms: C_8  and  C_7 
REMARK    3  A    between atoms: N_9  and  C_13 
ROOT
ATOM      1  C   UNL d   1     -40.050  14.866  20.728  0.00  0.00     0.021 A 
ATOM      2  C   UNL d   1     -40.078  14.953  19.302  0.00  0.00     0.085 A 
ATOM      3  C   UNL d   1     -39.655  14.964  20.010  0.00  0.00     0.021 A 
ATOM      4  C   UNL d   1     -40.868  14.757  20.737  0.00  0.00     0.002 A 
ATOM      5  C   UNL d   1     -41.291  14.746  20.028  0.00  0.00     0.002 A 
ATOM      6  C   UNL d   1     -40.896  14.845  19.310  0.00  0.00     0.019 A 
ENDROOT
BRANCH   2   7
ATOM      7  N   UNL d   1     -39.685  15.051  18.588  0.00  0.00    -0.207 NA
ATOM      8  C   UNL d   1     -39.912  14.622  17.930  0.00  0.00     0.297 C 
ATOM      9  O   UNL d   1     -40.544  14.082  17.982  0.00  0.00    -0.264 OA
BRANCH   8  10
ATOM     10  C   UNL d   1     -39.517  14.720  17.213  0.00  0.00     0.139 A 
ATOM     11  N   UNL d   1     -39.124  14.091  16.868  0.00  0.00    -0.241 NA
ATOM     12  C   UNL d   1     -38.730  14.189  16.150  0.00  0.00     0.082 A 
ATOM     13  C   UNL d   1     -38.335  13.551  15.807  0.00  0.00     0.019 A 
ATOM     14  C   UNL d   1     -38.727  14.917  15.777  0.00  0.00     0.018 A 
ATOM     15  C   UNL d   1     -37.940  13.650  15.089  0.00  0.00     0.002 A 
ATOM     16  C   UNL d   1     -37.940  14.386  14.715  0.00  0.00     0.000 A 
ATOM     17  C   UNL d   1     -38.333  15.015  15.060  0.00  0.00     0.002 A 
ATOM     18  C   UNL d   1     -39.125  15.563  16.121  0.00  0.00     0.003 A 
ATOM     19  C   UNL d   1     -39.520  15.465  16.839  0.00  0.00     0.024 A 
ENDBRANCH   8  10
ENDBRANCH   2   7
BRANCH   1  20
ATOM     20  C   UNL d   1     -39.627  14.876  21.437  0.00  0.00     0.101 A 
ATOM     21  N   UNL d   1     -39.290  14.240  21.845  0.00  0.00    -0.221 NA
ATOM     22  C   UNL d   1     -38.935  14.541  22.511  0.00  0.00     0.179 A 
ATOM     23  N   UNL d   1     -39.044  15.357  22.526  0.00  0.00    -0.282 N 
ATOM     24  S   UNL d   1     -38.506  14.334  23.178  0.00  0.00    -0.048 SA
ATOM     25  C   UNL d   1     -39.476  15.566  21.855  0.00  0.00     0.101 A 
ATOM     26  C   UNL d   1     -38.675  15.648  23.213  0.00  0.00     0.089 A 
ATOM     27  C   UNL d   1     -38.348  15.018  23.606  0.00  0.00     0.057 A 
ENDBRANCH   1  20
TORSDOF 3
ENDMDL
MODEL 4
REMARK VINA RESULT:      -5.1      9.298     10.413
REMARK  3 active torsions:
REMARK  status: ('A' for Active; 'I' for Inactive)
REMARK    1  A    between atoms: C_11  and  C_3 
REMARK       I    between atoms: C_7  and  N_9 
REMARK    2  A    between atoms: C_8  and  C_7 
REMARK    3  A    between atoms: N_9  and  C_13 
ROOT
ATOM      1  C   UNL d   1     -49.544  12.624  23.194  0.00  0.00     0.021 A 
ATOM      2  C   UNL d   1     -48.355  11.889  23.492  0.00  0.00     0.085 A 
ATOM      3  C   UNL d   1     -48.721  12.585  23.240  0.00  0.00     0.021 A 
ATOM      4  C   UNL d   1     -50.001  11.968  23.400  0.00  0.00     0.002 A 
ATOM      5  C   UNL d   1     -49.634  11.272  23.652  0.00  0.00     0.002 A 
ATOM      6  C   UNL d   1     -48.811  11.233  23.698  0.00  0.00     0.019 A 
ENDROOT
BRANCH   2   7
ATOM      7  N   UNL d   1     -47.536  11.850  23.538  0.00  0.00    -0.207 NA
ATOM      8  C   UNL d   1     -47.123  11.313  23.080  0.00  0.00     0.297 C 
ATOM      9  O   UNL d   1     -47.532  10.803  22.564  0.00  0.00    -0.264 OA
BRANCH   8  10
ATOM     10  C   UNL d   1     -46.301  11.274  23.126  0.00  0.00     0.139 A 
ATOM     11  N   UNL d   1     -45.933  10.584  23.365  0.00  0.00    -0.241 NA
ATOM     12  C   UNL d   1     -45.110  10.544  23.410  0.00  0.00     0.082 A 
ATOM     13  C   UNL d   1     -44.744   9.845  23.652  0.00  0.00     0.019 A 
ATOM     14  C   UNL d   1     -44.655  11.195  23.217  0.00  0.00     0.018 A 
ATOM     15  C   UNL d   1     -43.921   9.806  23.698  0.00  0.00     0.002 A 
ATOM     16  C   UNL d   1     -43.464  10.466  23.502  0.00  0.00     0.000 A 
ATOM     17  C   UNL d   1     -43.832  11.156  23.263  0.00  0.00     0.002 A 
ATOM     18  C   UNL d   1     -45.021  11.903  22.973  0.00  0.00     0.003 A 
ATOM     19  C   UNL d   1     -45.843  11.942  22.927  0.00  0.00     0.024 A 
ENDBRANCH   8  10
ENDBRANCH   2   7
BRANCH   1  20
ATOM     20  C   UNL d   1     -49.910  13.319  22.942  0.00  0.00     0.101 A 
ATOM     21  N   UNL d   1     -49.938  14.054  23.321  0.00  0.00    -0.221 NA
ATOM     22  C   UNL d   1     -50.365  14.556  22.847  0.00  0.00     0.179 A 
ATOM     23  N   UNL d   1     -50.607  14.146  22.175  0.00  0.00    -0.282 N 
ATOM     24  S   UNL d   1     -50.648  15.322  22.787  0.00  0.00    -0.048 SA
ATOM     25  C   UNL d   1     -50.323  13.374  22.234  0.00  0.00     0.101 A 
ATOM     26  C   UNL d   1     -51.043  14.673  21.701  0.00  0.00     0.089 A 
ATOM     27  C   UNL d   1     -51.064  15.391  22.081  0.00  0.00     0.057 A 
ENDBRANCH   1  20
TORSDOF 3
ENDMDL
MODEL 5
REMARK VINA RESULT:      -5.0      8.286      9.599
REMARK  3 active torsions:
REMARK  status: ('A' for Active; 'I' for Inactive)
REMARK    1  A    between atoms: C_11  and  C_3 
REMARK       I    between atoms: C_7  and  N_9 
REMARK    2  A    between atoms: C_8  and  C_7 
REMARK    3  A    between atoms: N_9  and  C_13 
ROOT
ATOM      1  C   UNL d   1     -48.652  12.770  23.057  0.00  0.00     0.021 A 
ATOM      2  C   UNL d   1     -47.408  12.086  22.891  0.00  0.00     0.085 A 
ATOM      3  C   UNL d   1     -47.893  12.736  22.735  0.00  0.00     0.021 A 
ATOM      4  C   UNL d   1     -48.926  12.154  23.535  0.00  0.00     0.002 A 
ATOM      5  C   UNL d   1     -48.440  11.505  23.690  0.00  0.00     0.002 A 
ATOM      6  C   UNL d   1     -47.681  11.471  23.368  0.00  0.00     0.019 A 
ENDROOT
BRANCH   2   7
ATOM      7  N   UNL d   1     -46.653  12.053  22.571  0.00  0.00    -0.207 NA
ATOM      8  C   UNL d   1     -46.023  12.392  22.965  0.00  0.00     0.297 C 
ATOM      9  O   UNL d   1     -46.144  12.775  23.695  0.00  0.00    -0.264 OA
BRANCH   8  10
ATOM     10  C   UNL d   1     -45.264  12.358  22.643  0.00  0.00     0.139 A 
ATOM     11  N   UNL d   1     -44.998  12.953  22.148  0.00  0.00    -0.241 NA
ATOM     12  C   UNL d   1     -44.239  12.919  21.826  0.00  0.00     0.082 A 
ATOM     13  C   UNL d   1     -43.976  13.521  21.327  0.00  0.00     0.019 A 
ATOM     14  C   UNL d   1     -43.746  12.291  22.000  0.00  0.00     0.018 A 
ATOM     15  C   UNL d   1     -43.217  13.487  21.006  0.00  0.00     0.002 A 
ATOM     16  C   UNL d   1     -42.721  12.851  21.183  0.00  0.00     0.000 A 
ATOM     17  C   UNL d   1     -42.987  12.257  21.678  0.00  0.00     0.002 A 
ATOM     18  C   UNL d   1     -44.008  11.681  22.503  0.00  0.00     0.003 A 
ATOM     19  C   UNL d   1     -44.766  11.715  22.825  0.00  0.00     0.024 A 
ENDBRANCH   8  10
ENDBRANCH   2   7
BRANCH   1  20
ATOM     20  C   UNL d   1     -49.138  13.419  22.902  0.00  0.00     0.101 A 
ATOM     21  N   UNL d   1     -49.507  13.628  22.191  0.00  0.00    -0.221 NA
ATOM     22  C   UNL d   1     -49.923  14.312  22.327  0.00  0.00     0.179 A 
ATOM     23  N   UNL d   1     -49.819  14.536  23.112  0.00  0.00    -0.282 N 
ATOM     24  S   UNL d   1     -50.410  14.867  21.971  0.00  0.00    -0.048 SA
ATOM     25  C   UNL d   1     -49.329  13.978  23.471  0.00  0.00     0.101 A 
ATOM     26  C   UNL d   1     -50.251  15.237  23.234  0.00  0.00     0.089 A 
ATOM     27  C   UNL d   1     -50.609  15.434  22.532  0.00  0.00     0.057 A 
ENDBRANCH   1  20
TORSDOF 3
ENDMDL
MODEL 6
REMARK VINA RESULT:      -4.9      5.952      7.050
REMARK  3 active torsions:
REMARK  status: ('A' for Active; 'I' for Inactive)
REMARK    1  A    between atoms: C_11  and  C_3 
REMARK       I    between atoms: C_7  and  N_9 
REMARK    2  A    between atoms: C_8  and  C_7 
REMARK    3  A    between atoms: N_9  and  C_13 
ROOT
ATOM      1  C   UNL d   1     -42.892  13.060  21.391  0.00  0.00     0.021 A 
ATOM      2  C   UNL d   1     -44.266  12.925  21.756  0.00  0.00     0.085 A 
ATOM      3  C   UNL d   1     -43.660  13.360  21.404  0.00  0.00     0.021 A 
ATOM      4  C   UNL d   1     -42.730  12.325  21.729  0.00  0.00     0.002 A 
ATOM      5  C   UNL d   1     -43.337  11.890  22.081  0.00  0.00     0.002 A 
ATOM      6  C   UNL d   1     -44.105  12.190  22.094  0.00  0.00     0.019 A 
ENDROOT
BRANCH   2   7
ATOM      7  N   UNL d   1     -45.031  13.224  21.769  0.00  0.00    -0.207 NA
ATOM      8  C   UNL d   1     -45.505  13.115  22.426  0.00  0.00     0.297 C 
ATOM      9  O   UNL d   1     -45.213  12.699  23.087  0.00  0.00    -0.264 OA
BRANCH   8  10
ATOM     10  C   UNL d   1     -46.273  13.415  22.439  0.00  0.00     0.139 A 
ATOM     11  N   UNL d   1     -46.873  13.031  22.037  0.00  0.00    -0.241 NA
ATOM     12  C   UNL d   1     -47.642  13.332  22.051  0.00  0.00     0.082 A 
ATOM     13  C   UNL d   1     -48.244  12.941  21.644  0.00  0.00     0.019 A 
ATOM     14  C   UNL d   1     -47.810  14.015  22.466  0.00  0.00     0.018 A 
ATOM     15  C   UNL d   1     -49.012  13.241  21.657  0.00  0.00     0.002 A 
ATOM     16  C   UNL d   1     -49.178  13.932  22.077  0.00  0.00     0.000 A 
ATOM     17  C   UNL d   1     -48.578  14.316  22.479  0.00  0.00     0.002 A 
ATOM     18  C   UNL d   1     -47.205  14.413  22.878  0.00  0.00     0.003 A 
ATOM     19  C   UNL d   1     -46.436  14.113  22.865  0.00  0.00     0.024 A 
ENDBRANCH   8  10
ENDBRANCH   2   7
BRANCH   1  20
ATOM     20  C   UNL d   1     -42.284  13.495  21.039  0.00  0.00     0.101 A 
ATOM     21  N   UNL d   1     -41.994  13.442  20.266  0.00  0.00    -0.221 NA
ATOM     22  C   UNL d   1     -41.396  13.988  20.194  0.00  0.00     0.179 A 
ATOM     23  N   UNL d   1     -41.308  14.383  20.912  0.00  0.00    -0.282 N 
ATOM     24  S   UNL d   1     -40.845  14.295  19.671  0.00  0.00    -0.048 SA
ATOM     25  C   UNL d   1     -41.862  14.075  21.439  0.00  0.00     0.101 A 
ATOM     26  C   UNL d   1     -40.694  14.937  20.820  0.00  0.00     0.089 A 
ATOM     27  C   UNL d   1     -40.415  14.877  20.060  0.00  0.00     0.057 A 
ENDBRANCH   1  20
TORSDOF 3
ENDMDL
MODEL 7
REMARK VINA RESULT:      -4.7      4.886      6.695
REMARK  3 active torsions:
REMARK  status: ('A' for Active; 'I' for Inactive)
REMARK    1  A    between atoms: C_11  and  C_3 
REMARK       I    between atoms: C_7  and  N_9 
REMARK    2  A    between atoms: C_8  and  C_7 
REMARK    3  A    between atoms: N_9  and  C_13 
ROOT
ATOM      1  C   UNL d   1     -44.401  12.879  21.971  0.00  0.00     0.021 A 
ATOM      2  C   UNL d   1     -43.155  13.072  21.301  0.00  0.00     0.085 A 
ATOM      3  C   UNL d   1     -43.914  13.335  21.486  0.00  0.00     0.021 A 
ATOM      4  C   UNL d   1     -44.128  12.160  22.271  0.00  0.00     0.002 A 
ATOM      5  C   UNL d   1     -43.368  11.897  22.085  0.00  0.00     0.002 A 
ATOM      6  C   UNL d   1     -42.881  12.354  21.600  0.00  0.00     0.019 A 
ENDROOT
BRANCH   2   7
ATOM      7  N   UNL d   1     -42.670  13.527  20.818  0.00  0.00    -0.207 NA
ATOM      8  C   UNL d   1     -41.930  13.758  21.077  0.00  0.00     0.297 C 
ATOM      9  O   UNL d   1     -41.664  13.533  21.834  0.00  0.00    -0.264 OA
BRANCH   8  10
ATOM     10  C   UNL d   1     -41.443  14.214  20.592  0.00  0.00     0.139 A 
ATOM     11  N   UNL d   1     -41.215  13.937  19.857  0.00  0.00    -0.241 NA
ATOM     12  C   UNL d   1     -40.729  14.393  19.372  0.00  0.00     0.082 A 
ATOM     13  C   UNL d   1     -40.502  14.108  18.632  0.00  0.00     0.019 A 
ATOM     14  C   UNL d   1     -40.469  15.127  19.622  0.00  0.00     0.018 A 
ATOM     15  C   UNL d   1     -40.015  14.565  18.147  0.00  0.00     0.002 A 
ATOM     16  C   UNL d   1     -39.755  15.306  18.402  0.00  0.00     0.000 A 
ATOM     17  C   UNL d   1     -39.983  15.583  19.137  0.00  0.00     0.002 A 
ATOM     18  C   UNL d   1     -40.696  15.418  20.369  0.00  0.00     0.003 A 
ATOM     19  C   UNL d   1     -41.183  14.961  20.854  0.00  0.00     0.024 A 
ENDBRANCH   8  10
ENDBRANCH   2   7
BRANCH   1  20
ATOM     20  C   UNL d   1     -45.162  13.141  22.157  0.00  0.00     0.101 A 
ATOM     21  N   UNL d   1     -45.384  13.785  22.628  0.00  0.00    -0.221 NA
ATOM     22  C   UNL d   1     -46.196  13.808  22.638  0.00  0.00     0.179 A 
ATOM     23  N   UNL d   1     -46.486  13.188  22.180  0.00  0.00    -0.282 N 
ATOM     24  S   UNL d   1     -46.838  14.221  22.935  0.00  0.00    -0.048 SA
ATOM     25  C   UNL d   1     -45.841  12.772  21.881  0.00  0.00     0.101 A 
ATOM     26  C   UNL d   1     -47.317  13.227  22.201  0.00  0.00     0.089 A 
ATOM     27  C   UNL d   1     -47.526  13.861  22.665  0.00  0.00     0.057 A 
ENDBRANCH   1  20
TORSDOF 3
ENDMDL
MODEL 8
REMARK VINA RESULT:      -3.9      6.175      7.689
REMARK  3 active torsions:
REMARK  status: ('A' for Active; 'I' for Inactive)
REMARK    1  A    between atoms: C_11  and  C_3 
REMARK       I    between atoms: C_7  and  N_9 
REMARK    2  A    between atoms: C_8  and  C_7 
REMARK    3  A    between atoms: N_9  and  C_13 
ROOT
ATOM      1  C   UNL d   1     -46.231  13.165  22.484  0.00  0.00     0.021 A 
ATOM      2  C   UNL d   1     -44.830  13.129  22.204  0.00  0.00     0.085 A 
ATOM      3  C   UNL d   1     -45.557  13.516  22.162  0.00  0.00     0.021 A 
ATOM      4  C   UNL d   1     -46.177  12.426  22.848  0.00  0.00     0.002 A 
ATOM      5  C   UNL d   1     -45.449  12.039  22.890  0.00  0.00     0.002 A 
ATOM      6  C   UNL d   1     -44.775  12.390  22.568  0.00  0.00     0.019 A 
ENDROOT
BRANCH   2   7
ATOM      7  N   UNL d   1     -44.160  13.478  21.883  0.00  0.00    -0.207 NA
ATOM      8  C   UNL d   1     -43.511  13.022  21.687  0.00  0.00     0.297 C 
ATOM      9  O   UNL d   1     -43.527  12.198  21.811  0.00  0.00    -0.264 OA
BRANCH   8  10
ATOM     10  C   UNL d   1     -42.838  13.373  21.365  0.00  0.00     0.139 A 
ATOM     11  N   UNL d   1     -42.735  14.183  21.406  0.00  0.00    -0.241 NA
ATOM     12  C   UNL d   1     -42.061  14.535  21.084  0.00  0.00     0.082 A 
ATOM     13  C   UNL d   1     -41.962  15.353  21.129  0.00  0.00     0.019 A 
ATOM     14  C   UNL d   1     -41.491  14.076  20.721  0.00  0.00     0.018 A 
ATOM     15  C   UNL d   1     -41.289  15.704  20.806  0.00  0.00     0.002 A 
ATOM     16  C   UNL d   1     -40.714  15.237  20.440  0.00  0.00     0.000 A 
ATOM     17  C   UNL d   1     -40.817  14.427  20.399  0.00  0.00     0.002 A 
ATOM     18  C   UNL d   1     -41.587  13.250  20.674  0.00  0.00     0.003 A 
ATOM     19  C   UNL d   1     -42.260  12.898  20.996  0.00  0.00     0.024 A 
ENDBRANCH   8  10
ENDBRANCH   2   7
BRANCH   1  20
ATOM     20  C   UNL d   1     -46.959  13.552  22.442  0.00  0.00     0.101 A 
ATOM     21  N   UNL d   1     -47.198  14.242  22.831  0.00  0.00    -0.221 NA
ATOM     22  C   UNL d   1     -47.963  14.394  22.604  0.00  0.00     0.179 A 
ATOM     23  N   UNL d   1     -48.207  13.809  22.079  0.00  0.00    -0.282 N 
ATOM     24  S   UNL d   1     -48.587  14.916  22.704  0.00  0.00    -0.048 SA
ATOM     25  C   UNL d   1     -47.580  13.284  21.977  0.00  0.00     0.101 A 
ATOM     26  C   UNL d   1     -48.991  13.980  21.857  0.00  0.00     0.089 A 
ATOM     27  C   UNL d   1     -49.217  14.658  22.244  0.00  0.00     0.057 A 
ENDBRANCH   1  20
TORSDOF 3
ENDMDL
MODEL 9
REMARK VINA RESULT:      -3.8      3.852      4.603
REMARK  3 active torsions:
REMARK  status: ('A' for Active; 'I' for Inactive)
REMARK    1  A    between atoms: C_11  and  C_3 
REMARK       I    between atoms: C_7  and  N_9 
REMARK    2  A    between atoms: C_8  and  C_7 
REMARK    3  A    between atoms: N_9  and  C_13 
ROOT
ATOM      1  C   UNL d   1     -40.858  14.444  20.029  0.00  0.00     0.021 A 
ATOM      2  C   UNL d   1     -41.658  13.989  21.122  0.00  0.00     0.085 A 
ATOM      3  C   UNL d   1     -41.598  14.272  20.349  0.00  0.00     0.021 A 
ATOM      4  C   UNL d   1     -40.176  14.331  20.481  0.00  0.00     0.002 A 
ATOM      5  C   UNL d   1     -40.236  14.048  21.255  0.00  0.00     0.002 A 
ATOM      6  C   UNL d   1     -40.977  13.877  21.575  0.00  0.00     0.019 A 
ENDROOT
BRANCH   2   7
ATOM      7  N   UNL d   1     -42.395  13.819  21.440  0.00  0.00    -0.207 NA
ATOM      8  C   UNL d   1     -42.697  13.061  21.397  0.00  0.00     0.297 C 
ATOM      9  O   UNL d   1     -42.258  12.456  21.028  0.00  0.00    -0.264 OA
BRANCH   8  10
ATOM     10  C   UNL d   1     -43.438  12.890  21.717  0.00  0.00     0.139 A 
ATOM     11  N   UNL d   1     -44.027  13.457  21.722  0.00  0.00    -0.241 NA
ATOM     12  C   UNL d   1     -44.768  13.286  22.042  0.00  0.00     0.082 A 
ATOM     13  C   UNL d   1     -45.359  13.862  22.044  0.00  0.00     0.019 A 
ATOM     14  C   UNL d   1     -44.920  12.547  22.357  0.00  0.00     0.018 A 
ATOM     15  C   UNL d   1     -46.100  13.691  22.365  0.00  0.00     0.002 A 
ATOM     16  C   UNL d   1     -46.250  12.944  22.682  0.00  0.00     0.000 A 
ATOM     17  C   UNL d   1     -45.661  12.376  22.678  0.00  0.00     0.002 A 
ATOM     18  C   UNL d   1     -44.326  11.963  22.357  0.00  0.00     0.003 A 
ATOM     19  C   UNL d   1     -43.586  12.134  22.037  0.00  0.00     0.024 A 
ENDBRANCH   8  10
ENDBRANCH   2   7
BRANCH   1  20
ATOM     20  C   UNL d   1     -40.797  14.727  19.256  0.00  0.00     0.101 A 
ATOM     21  N   UNL d   1     -41.052  15.454  18.952  0.00  0.00    -0.221 NA
ATOM     22  C   UNL d   1     -40.864  15.465  18.162  0.00  0.00     0.179 A 
ATOM     23  N   UNL d   1     -40.495  14.755  17.966  0.00  0.00    -0.282 N 
ATOM     24  S   UNL d   1     -40.905  15.921  17.483  0.00  0.00    -0.048 SA
ATOM     25  C   UNL d   1     -40.453  14.295  18.648  0.00  0.00     0.101 A 
ATOM     26  C   UNL d   1     -40.310  14.783  17.154  0.00  0.00     0.089 A 
ATOM     27  C   UNL d   1     -40.564  15.499  16.866  0.00  0.00     0.057 A 
ENDBRANCH   1  20
TORSDOF 3
ENDMDL
