MODEL 1
REMARK VINA RESULT:      -2.7      0.000      0.000
REMARK  6 active torsions:
REMARK  status: ('A' for Active; 'I' for Inactive)
REMARK    1  A    between atoms: C_2  and  C_1 
REMARK       I    between atoms: N_5  and  C_2 
REMARK    2  A    between atoms: C_13  and  N_5 
REMARK    3  A    between atoms: C_14  and  C_6 
REMARK       I    between atoms: C_8  and  N_9 
REMARK    4  A    between atoms: N_9  and  C_15 
REMARK    5  A    between atoms: S_11  and  C_14 
REMARK    6  A    between atoms: C_16  and  S_11 
ROOT
ATOM      1  C   UNL d   1      32.557  16.686 -24.537  0.00  0.00     0.158 A 
ATOM      2  O   UNL d   1      32.728  16.955 -23.777  0.00  0.00    -0.302 OA
ATOM      3  C   UNL d   1      32.391  17.350 -25.003  0.00  0.00     0.032 A 
ATOM      4  C   UNL d   1      32.669  17.770 -23.770  0.00  0.00     0.107 A 
ATOM      5  C   UNL d   1      32.461  18.021 -24.529  0.00  0.00     0.027 A 
ENDROOT
BRANCH   1   6
ATOM      6  C   UNL d   1      32.550  15.901 -24.795  0.00  0.00     0.302 C 
ATOM      7  N   UNL d   1      31.861  15.454 -24.750  0.00  0.00    -0.206 NA
ATOM      8  O   UNL d   1      33.239  15.571 -25.097  0.00  0.00    -0.263 OA
BRANCH   7   9
ATOM      9  C   UNL d   1      31.170  15.801 -24.441  0.00  0.00     0.085 A 
ATOM     10  C   UNL d   1      31.006  15.755 -23.634  0.00  0.00     0.021 A 
ATOM     11  C   UNL d   1      30.317  16.104 -23.342  0.00  0.00     0.021 A 
ATOM     12  C   UNL d   1      29.801  16.492 -23.852  0.00  0.00     0.085 A 
ATOM     13  C   UNL d   1      29.972  16.534 -24.661  0.00  0.00     0.021 A 
ATOM     14  C   UNL d   1      30.657  16.189 -24.960  0.00  0.00     0.021 A 
BRANCH  12  15
ATOM     15  N   UNL d   1      29.109  16.842 -23.556  0.00  0.00    -0.208 NA
ATOM     16  C   UNL d   1      28.400  16.419 -23.573  0.00  0.00     0.279 C 
ATOM     17  O   UNL d   1      28.373  15.659 -23.881  0.00  0.00    -0.265 OA
ATOM     18  C   UNL d   1      27.716  16.767 -23.279  0.00  0.00     0.068 C 
ENDBRANCH  12  15
ENDBRANCH   7   9
ENDBRANCH   1   6
BRANCH   4  19
ATOM     19  C   UNL d   1      32.795  18.266 -23.122  0.00  0.00     0.060 C 
BRANCH  19  20
ATOM     20  S   UNL d   1      32.908  19.073 -23.239  0.00  0.00    -0.084 SA
BRANCH  20  21
ATOM     21  C   UNL d   1      33.018  19.576 -22.600  0.00  0.00     0.029 A 
ATOM     22  C   UNL d   1      33.040  20.391 -22.730  0.00  0.00     0.006 A 
ATOM     23  C   UNL d   1      33.149  20.894 -22.091  0.00  0.00     0.001 A 
ATOM     24  C   UNL d   1      33.235  20.592 -21.330  0.00  0.00     0.000 A 
ATOM     25  C   UNL d   1      33.212  19.774 -21.202  0.00  0.00     0.001 A 
ATOM     26  C   UNL d   1      33.103  19.271 -21.841  0.00  0.00     0.006 A 
ENDBRANCH  20  21
ENDBRANCH  19  20
ENDBRANCH   4  19
TORSDOF 6
ENDMDL
MODEL 2
REMARK VINA RESULT:      -0.0      1.613      4.444
REMARK  6 active torsions:
REMARK  status: ('A' for Active; 'I' for Inactive)
REMARK    1  A    between atoms: C_2  and  C_1 
REMARK       I    between atoms: N_5  and  C_2 
REMARK    2  A    between atoms: C_13  and  N_5 
REMARK    3  A    between atoms: C_14  and  C_6 
REMARK       I    between atoms: C_8  and  N_9 
REMARK    4  A    between atoms: N_9  and  C_15 
REMARK    5  A    between atoms: S_11  and  C_14 
REMARK    6  A    between atoms: C_16  and  S_11 
ROOT
ATOM      1  C   UNL d   1      31.872  16.601 -24.680  0.00  0.00     0.158 A 
ATOM      2  O   UNL d   1      31.167  16.369 -24.322  0.00  0.00    -0.302 OA
ATOM      3  C   UNL d   1      31.719  17.300 -25.097  0.00  0.00     0.032 A 
ATOM      4  C   UNL d   1      30.587  16.912 -24.512  0.00  0.00     0.107 A 
ATOM      5  C   UNL d   1      30.924  17.493 -24.993  0.00  0.00     0.027 A 
ENDROOT
BRANCH   1   6
ATOM      6  C   UNL d   1      32.601  16.215 -24.637  0.00  0.00     0.302 C 
ATOM      7  N   UNL d   1      33.240  16.571 -24.262  0.00  0.00    -0.206 NA
ATOM      8  O   UNL d   1      32.682  15.469 -24.972  0.00  0.00    -0.263 OA
BRANCH   7   9
ATOM      9  C   UNL d   1      33.145  17.327 -23.926  0.00  0.00     0.085 A 
ATOM     10  C   UNL d   1      33.022  17.410 -23.114  0.00  0.00     0.021 A 
ATOM     11  C   UNL d   1      32.929  18.165 -22.794  0.00  0.00     0.021 A 
ATOM     12  C   UNL d   1      32.959  18.828 -23.282  0.00  0.00     0.085 A 
ATOM     13  C   UNL d   1      33.083  18.737 -24.096  0.00  0.00     0.021 A 
ATOM     14  C   UNL d   1      33.177  17.988 -24.422  0.00  0.00     0.021 A 
BRANCH  12  15
ATOM     15  N   UNL d   1      32.865  19.586 -22.958  0.00  0.00    -0.208 NA
ATOM     16  C   UNL d   1      32.866  19.680 -22.137  0.00  0.00     0.279 C 
ATOM     17  O   UNL d   1      32.959  19.033 -21.641  0.00  0.00    -0.265 OA
ATOM     18  C   UNL d   1      32.773  20.432 -21.819  0.00  0.00     0.068 C 
ENDBRANCH  12  15
ENDBRANCH   7   9
ENDBRANCH   1   6
BRANCH   4  19
ATOM     19  C   UNL d   1      29.798  16.893 -24.270  0.00  0.00     0.060 C 
BRANCH  19  20
ATOM     20  S   UNL d   1      29.543  16.309 -23.748  0.00  0.00    -0.084 SA
BRANCH  20  21
ATOM     21  C   UNL d   1      28.751  16.250 -23.543  0.00  0.00     0.029 A 
ATOM     22  C   UNL d   1      28.312  16.940 -23.428  0.00  0.00     0.006 A 
ATOM     23  C   UNL d   1      27.520  16.880 -23.223  0.00  0.00     0.001 A 
ATOM     24  C   UNL d   1      27.165  16.143 -23.132  0.00  0.00     0.000 A 
ATOM     25  C   UNL d   1      27.607  15.453 -23.248  0.00  0.00     0.001 A 
ATOM     26  C   UNL d   1      28.400  15.512 -23.453  0.00  0.00     0.006 A 
ENDBRANCH  20  21
ENDBRANCH  19  20
ENDBRANCH   4  19
TORSDOF 6
ENDMDL
