MODEL 1
REMARK VINA RESULT:      -2.6      0.000      0.000
REMARK  1 active torsions:
REMARK  status: ('A' for Active; 'I' for Inactive)
REMARK    1  A    between atoms: C_6  and  C_2 
ROOT
ATOM      1  O   UNL d   1      32.873  20.746 -22.053  0.00  0.00    -0.260 OA
ATOM      2  C   UNL d   1      32.831  21.238 -21.385  0.00  0.00     0.207 A 
ATOM      3  N   UNL d   1      33.059  20.787 -20.733  0.00  0.00    -0.120 NA
ATOM      4  C   UNL d   1      33.126  19.999 -21.807  0.00  0.00     0.262 A 
ATOM      5  N   UNL d   1      33.241  20.026 -20.986  0.00  0.00    -0.109 NA
ATOM      6  S   UNL d   1      33.241  19.346 -22.298  0.00  0.00    -0.029 SA
ENDROOT
BRANCH   2   7
ATOM      7  C   UNL d   1      32.605  22.025 -21.381  0.00  0.00     0.062 A 
ATOM      8  C   UNL d   1      31.938  22.264 -20.960  0.00  0.00     0.102 A 
ATOM      9  N   UNL d   1      31.715  23.065 -20.962  0.00  0.00    -0.242 NA
ATOM     10  C   UNL d   1      32.156  23.619 -21.380  0.00  0.00     0.099 A 
ATOM     11  C   UNL d   1      32.821  23.379 -21.799  0.00  0.00     0.021 A 
ATOM     12  C   UNL d   1      33.052  22.584 -21.805  0.00  0.00     0.007 A 
ENDBRANCH   2   7
TORSDOF 1
ENDMDL
MODEL 2
REMARK VINA RESULT:      -2.6      1.982      2.986
REMARK  1 active torsions:
REMARK  status: ('A' for Active; 'I' for Inactive)
REMARK    1  A    between atoms: C_6  and  C_2 
ROOT
ATOM      1  O   UNL d   1      33.019  22.486 -20.250  0.00  0.00    -0.260 OA
ATOM      2  C   UNL d   1      32.581  22.166 -20.879  0.00  0.00     0.207 A 
ATOM      3  N   UNL d   1      31.909  22.635 -20.974  0.00  0.00    -0.120 NA
ATOM      4  C   UNL d   1      32.614  23.148 -19.965  0.00  0.00     0.262 A 
ATOM      5  N   UNL d   1      31.925  23.239 -20.416  0.00  0.00    -0.109 NA
ATOM      6  S   UNL d   1      32.860  23.628 -19.340  0.00  0.00    -0.029 SA
ENDROOT
BRANCH   2   7
ATOM      7  C   UNL d   1      32.784  21.506 -21.319  0.00  0.00     0.062 A 
ATOM      8  C   UNL d   1      33.037  21.588 -22.099  0.00  0.00     0.102 A 
ATOM      9  N   UNL d   1      33.241  20.912 -22.538  0.00  0.00    -0.242 NA
ATOM     10  C   UNL d   1      33.192  20.164 -22.199  0.00  0.00     0.099 A 
ATOM     11  C   UNL d   1      32.940  20.085 -21.421  0.00  0.00     0.021 A 
ATOM     12  C   UNL d   1      32.734  20.750 -20.974  0.00  0.00     0.007 A 
ENDBRANCH   2   7
TORSDOF 1
ENDMDL
MODEL 3
REMARK VINA RESULT:      -2.4      5.595      6.580
REMARK  1 active torsions:
REMARK  status: ('A' for Active; 'I' for Inactive)
REMARK    1  A    between atoms: C_6  and  C_2 
ROOT
ATOM      1  O   UNL d   1      31.348  16.938 -23.580  0.00  0.00    -0.260 OA
ATOM      2  C   UNL d   1      31.007  16.181 -23.612  0.00  0.00     0.207 A 
ATOM      3  N   UNL d   1      31.625  15.634 -23.617  0.00  0.00    -0.120 NA
ATOM      4  C   UNL d   1      32.169  16.850 -23.566  0.00  0.00     0.262 A 
ATOM      5  N   UNL d   1      32.339  16.039 -23.589  0.00  0.00    -0.109 NA
ATOM      6  S   UNL d   1      32.717  17.467 -23.534  0.00  0.00    -0.029 SA
ENDROOT
BRANCH   2   7
ATOM      7  C   UNL d   1      30.205  16.015 -23.635  0.00  0.00     0.062 A 
ATOM      8  C   UNL d   1      29.753  16.239 -24.286  0.00  0.00     0.102 A 
ATOM      9  N   UNL d   1      28.939  16.066 -24.300  0.00  0.00    -0.242 NA
ATOM     10  C   UNL d   1      28.585  15.675 -23.669  0.00  0.00     0.099 A 
ATOM     11  C   UNL d   1      29.039  15.453 -23.021  0.00  0.00     0.021 A 
ATOM     12  C   UNL d   1      29.849  15.620 -22.995  0.00  0.00     0.007 A 
ENDBRANCH   2   7
TORSDOF 1
ENDMDL
MODEL 4
REMARK VINA RESULT:      -2.4      4.522      5.280
REMARK  1 active torsions:
REMARK  status: ('A' for Active; 'I' for Inactive)
REMARK    1  A    between atoms: C_6  and  C_2 
ROOT
ATOM      1  O   UNL d   1      30.983  16.639 -23.522  0.00  0.00    -0.260 OA
ATOM      2  C   UNL d   1      31.799  16.754 -23.624  0.00  0.00     0.207 A 
ATOM      3  N   UNL d   1      32.163  16.018 -23.538  0.00  0.00    -0.120 NA
ATOM      4  C   UNL d   1      30.852  15.837 -23.375  0.00  0.00     0.262 A 
ATOM      5  N   UNL d   1      31.587  15.453 -23.385  0.00  0.00    -0.109 NA
ATOM      6  S   UNL d   1      30.116  15.487 -23.242  0.00  0.00    -0.029 SA
ENDROOT
BRANCH   2   7
ATOM      7  C   UNL d   1      32.168  17.468 -23.780  0.00  0.00     0.062 A 
ATOM      8  C   UNL d   1      32.130  17.799 -24.534  0.00  0.00     0.102 A 
ATOM      9  N   UNL d   1      32.508  18.525 -24.684  0.00  0.00    -0.242 NA
ATOM     10  C   UNL d   1      32.917  18.913 -24.085  0.00  0.00     0.099 A 
ATOM     11  C   UNL d   1      32.953  18.581 -23.334  0.00  0.00     0.021 A 
ATOM     12  C   UNL d   1      32.581  17.859 -23.174  0.00  0.00     0.007 A 
ENDBRANCH   2   7
TORSDOF 1
ENDMDL
MODEL 5
REMARK VINA RESULT:      -2.3      3.614      5.404
REMARK  1 active torsions:
REMARK  status: ('A' for Active; 'I' for Inactive)
REMARK    1  A    between atoms: C_6  and  C_2 
ROOT
ATOM      1  O   UNL d   1      32.693  18.247 -22.790  0.00  0.00    -0.260 OA
ATOM      2  C   UNL d   1      32.523  17.850 -23.500  0.00  0.00     0.207 A 
ATOM      3  N   UNL d   1      32.704  18.365 -24.119  0.00  0.00    -0.120 NA
ATOM      4  C   UNL d   1      32.977  19.000 -22.978  0.00  0.00     0.262 A 
ATOM      5  N   UNL d   1      32.983  19.071 -23.804  0.00  0.00    -0.109 NA
ATOM      6  S   UNL d   1      33.211  19.574 -22.433  0.00  0.00    -0.029 SA
ENDROOT
BRANCH   2   7
ATOM      7  C   UNL d   1      32.229  17.088 -23.566  0.00  0.00     0.062 A 
ATOM      8  C   UNL d   1      32.718  16.441 -23.420  0.00  0.00     0.102 A 
ATOM      9  N   UNL d   1      32.411  15.671 -23.489  0.00  0.00    -0.242 NA
ATOM     10  C   UNL d   1      31.625  15.553 -23.703  0.00  0.00     0.099 A 
ATOM     11  C   UNL d   1      31.141  16.200 -23.848  0.00  0.00     0.021 A 
ATOM     12  C   UNL d   1      31.435  16.971 -23.782  0.00  0.00     0.007 A 
ENDBRANCH   2   7
TORSDOF 1
ENDMDL
