MODEL 1
REMARK VINA RESULT:      -4.3      0.000      0.000
REMARK  3 active torsions:
REMARK  status: ('A' for Active; 'I' for Inactive)
REMARK    1  A    between atoms: N_7  and  C_6 
REMARK       I    between atoms: C_8  and  N_7 
REMARK    2  A    between atoms: C_12  and  C_8 
REMARK    3  A    between atoms: C_16  and  C_12 
ROOT
ATOM      1  C   UNL d   1      59.003  -2.421  29.131  0.00  0.00     0.269 A 
ATOM      2  N   UNL d   1      59.561  -2.959  28.819  0.00  0.00    -0.239 N 
ATOM      3  C   UNL d   1      59.403  -1.706  29.245  0.00  0.00     0.079 A 
ATOM      4  C   UNL d   1      60.272  -2.579  28.749  0.00  0.00     0.267 A 
ATOM      5  C   UNL d   1      60.187  -1.804  29.009  0.00  0.00     0.063 A 
ATOM      6  C   UNL d   1      59.146  -0.982  29.535  0.00  0.00     0.089 A 
ATOM      7  O   UNL d   1      58.211  -2.568  29.294  0.00  0.00    -0.267 OA
ATOM      8  O   UNL d   1      60.981  -2.922  28.458  0.00  0.00    -0.267 OA
ATOM      9  C   UNL d   1      59.408  -3.745  28.618  0.00  0.00     0.105 C 
ATOM     10  C   UNL d   1      60.715  -1.178  29.063  0.00  0.00     0.005 A 
ATOM     11  C   UNL d   1      59.676  -0.351  29.590  0.00  0.00     0.019 A 
ATOM     12  C   UNL d   1      60.460  -0.449  29.354  0.00  0.00     0.002 A 
ENDROOT
BRANCH   6  13
ATOM     13  N   UNL d   1      58.361  -0.884  29.771  0.00  0.00    -0.208 NA
ATOM     14  C   UNL d   1      58.148  -0.223  30.212  0.00  0.00     0.279 C 
ATOM     15  O   UNL d   1      58.710   0.342  30.420  0.00  0.00    -0.265 OA
BRANCH  14  16
ATOM     16  C   UNL d   1      57.363  -0.125  30.448  0.00  0.00     0.062 C 
BRANCH  16  17
ATOM     17  C   UNL d   1      57.177  -0.077  31.251  0.00  0.00     0.005 A 
ATOM     18  C   UNL d   1      56.838  -0.724  31.634  0.00  0.00     0.000 A 
ATOM     19  C   UNL d   1      56.651  -0.684  32.426  0.00  0.00     0.000 A 
ATOM     20  C   UNL d   1      56.805   0.012  32.848  0.00  0.00     0.000 A 
ATOM     21  C   UNL d   1      57.144   0.659  32.465  0.00  0.00     0.000 A 
ATOM     22  C   UNL d   1      57.330   0.612  31.663  0.00  0.00     0.000 A 
ENDBRANCH  16  17
ENDBRANCH  14  16
ENDBRANCH   6  13
TORSDOF 3
ENDMDL
MODEL 2
REMARK VINA RESULT:      -4.2      2.345      2.923
REMARK  3 active torsions:
REMARK  status: ('A' for Active; 'I' for Inactive)
REMARK    1  A    between atoms: N_7  and  C_6 
REMARK       I    between atoms: C_8  and  N_7 
REMARK    2  A    between atoms: C_12  and  C_8 
REMARK    3  A    between atoms: C_16  and  C_12 
ROOT
ATOM      1  C   UNL d   1      59.430   0.653  30.850  0.00  0.00     0.269 A 
ATOM      2  N   UNL d   1      60.036   0.667  30.275  0.00  0.00    -0.239 N 
ATOM      3  C   UNL d   1      58.713   0.647  30.439  0.00  0.00     0.079 A 
ATOM      4  C   UNL d   1      59.692   0.669  29.542  0.00  0.00     0.267 A 
ATOM      5  C   UNL d   1      58.875   0.657  29.630  0.00  0.00     0.063 A 
ATOM      6  C   UNL d   1      57.935   0.635  30.704  0.00  0.00     0.089 A 
ATOM      7  O   UNL d   1      59.522   0.647  31.668  0.00  0.00    -0.267 OA
ATOM      8  O   UNL d   1      60.105   0.681  28.812  0.00  0.00    -0.267 OA
ATOM      9  C   UNL d   1      60.845   0.676  30.433  0.00  0.00     0.105 C 
ATOM     10  C   UNL d   1      58.260   0.654  29.086  0.00  0.00     0.005 A 
ATOM     11  C   UNL d   1      57.316   0.631  30.158  0.00  0.00     0.019 A 
ATOM     12  C   UNL d   1      57.478   0.641  29.349  0.00  0.00     0.002 A 
ENDROOT
BRANCH   6  13
ATOM     13  N   UNL d   1      57.773   0.625  31.513  0.00  0.00    -0.208 NA
ATOM     14  C   UNL d   1      56.993   0.568  31.772  0.00  0.00     0.279 C 
ATOM     15  O   UNL d   1      56.375   0.521  31.231  0.00  0.00    -0.265 OA
BRANCH  14  16
ATOM     16  C   UNL d   1      56.831   0.559  32.580  0.00  0.00     0.062 C 
BRANCH  16  17
ATOM     17  C   UNL d   1      56.235   0.070  32.875  0.00  0.00     0.005 A 
ATOM     18  C   UNL d   1      56.314  -0.750  32.829  0.00  0.00     0.000 A 
ATOM     19  C   UNL d   1      55.730  -1.238  33.118  0.00  0.00     0.000 A 
ATOM     20  C   UNL d   1      55.051  -0.907  33.461  0.00  0.00     0.000 A 
ATOM     21  C   UNL d   1      54.972  -0.087  33.507  0.00  0.00     0.000 A 
ATOM     22  C   UNL d   1      55.568   0.401  33.212  0.00  0.00     0.000 A 
ENDBRANCH  16  17
ENDBRANCH  14  16
ENDBRANCH   6  13
TORSDOF 3
ENDMDL
MODEL 3
REMARK VINA RESULT:      -3.8      1.485      4.334
REMARK  3 active torsions:
REMARK  status: ('A' for Active; 'I' for Inactive)
REMARK    1  A    between atoms: N_7  and  C_6 
REMARK       I    between atoms: C_8  and  N_7 
REMARK    2  A    between atoms: C_12  and  C_8 
REMARK    3  A    between atoms: C_16  and  C_12 
ROOT
ATOM      1  C   UNL d   1      56.585  -0.967  31.934  0.00  0.00     0.269 A 
ATOM      2  N   UNL d   1      56.242  -0.747  32.664  0.00  0.00    -0.239 N 
ATOM      3  C   UNL d   1      57.225  -0.460  31.811  0.00  0.00     0.079 A 
ATOM      4  C   UNL d   1      56.664  -0.127  32.968  0.00  0.00     0.267 A 
ATOM      5  C   UNL d   1      57.275   0.060  32.449  0.00  0.00     0.063 A 
ATOM      6  C   UNL d   1      57.766  -0.410  31.195  0.00  0.00     0.089 A 
ATOM      7  O   UNL d   1      56.337  -1.571  31.433  0.00  0.00    -0.267 OA
ATOM      8  O   UNL d   1      56.504   0.261  33.694  0.00  0.00    -0.267 OA
ATOM      9  C   UNL d   1      55.585  -1.105  33.012  0.00  0.00     0.105 C 
ATOM     10  C   UNL d   1      57.865   0.629  32.473  0.00  0.00     0.005 A 
ATOM     11  C   UNL d   1      58.361   0.162  31.216  0.00  0.00     0.019 A 
ATOM     12  C   UNL d   1      58.411   0.682  31.855  0.00  0.00     0.002 A 
ENDROOT
BRANCH   6  13
ATOM     13  N   UNL d   1      57.717  -0.930  30.556  0.00  0.00    -0.208 NA
ATOM     14  C   UNL d   1      58.255  -0.866  29.936  0.00  0.00     0.279 C 
ATOM     15  O   UNL d   1      58.841  -0.289  29.947  0.00  0.00    -0.265 OA
BRANCH  14  16
ATOM     16  C   UNL d   1      58.205  -1.386  29.297  0.00  0.00     0.062 C 
BRANCH  16  17
ATOM     17  C   UNL d   1      58.861  -1.838  29.082  0.00  0.00     0.005 A 
ATOM     18  C   UNL d   1      58.876  -2.646  29.246  0.00  0.00     0.000 A 
ATOM     19  C   UNL d   1      59.520  -3.098  29.036  0.00  0.00     0.000 A 
ATOM     20  C   UNL d   1      60.165  -2.742  28.655  0.00  0.00     0.000 A 
ATOM     21  C   UNL d   1      60.150  -1.934  28.491  0.00  0.00     0.000 A 
ATOM     22  C   UNL d   1      59.494  -1.482  28.706  0.00  0.00     0.000 A 
ENDBRANCH  16  17
ENDBRANCH  14  16
ENDBRANCH   6  13
TORSDOF 3
ENDMDL
MODEL 4
REMARK VINA RESULT:      -3.7      2.387      5.292
REMARK  3 active torsions:
REMARK  status: ('A' for Active; 'I' for Inactive)
REMARK    1  A    between atoms: N_7  and  C_6 
REMARK       I    between atoms: C_8  and  N_7 
REMARK    2  A    between atoms: C_12  and  C_8 
REMARK    3  A    between atoms: C_16  and  C_12 
ROOT
ATOM      1  C   UNL d   1      55.512   0.545  33.289  0.00  0.00     0.269 A 
ATOM      2  N   UNL d   1      55.138   0.574  34.036  0.00  0.00    -0.239 N 
ATOM      3  C   UNL d   1      56.326   0.584  33.430  0.00  0.00     0.079 A 
ATOM      4  C   UNL d   1      55.710   0.628  34.606  0.00  0.00     0.267 A 
ATOM      5  C   UNL d   1      56.448   0.636  34.244  0.00  0.00     0.063 A 
ATOM      6  C   UNL d   1      56.966   0.578  32.916  0.00  0.00     0.089 A 
ATOM      7  O   UNL d   1      55.147   0.488  32.554  0.00  0.00    -0.267 OA
ATOM      8  O   UNL d   1      55.570   0.671  35.433  0.00  0.00    -0.267 OA
ATOM      9  C   UNL d   1      54.324   0.550  34.165  0.00  0.00     0.105 C 
ATOM     10  C   UNL d   1      57.211   0.682  34.544  0.00  0.00     0.005 A 
ATOM     11  C   UNL d   1      57.734   0.625  33.216  0.00  0.00     0.019 A 
ATOM     12  C   UNL d   1      57.856   0.677  34.030  0.00  0.00     0.002 A 
ENDROOT
BRANCH   6  13
ATOM     13  N   UNL d   1      56.844   0.527  32.101  0.00  0.00    -0.208 NA
ATOM     14  C   UNL d   1      57.487   0.565  31.589  0.00  0.00     0.279 C 
ATOM     15  O   UNL d   1      58.251   0.655  31.882  0.00  0.00    -0.265 OA
BRANCH  14  16
ATOM     16  C   UNL d   1      57.365   0.513  30.775  0.00  0.00     0.062 C 
BRANCH  16  17
ATOM     17  C   UNL d   1      57.925   0.141  30.297  0.00  0.00     0.005 A 
ATOM     18  C   UNL d   1      57.960  -0.683  30.268  0.00  0.00     0.000 A 
ATOM     19  C   UNL d   1      58.511  -1.056  29.798  0.00  0.00     0.000 A 
ATOM     20  C   UNL d   1      59.039  -0.604  29.347  0.00  0.00     0.000 A 
ATOM     21  C   UNL d   1      59.004   0.219  29.376  0.00  0.00     0.000 A 
ATOM     22  C   UNL d   1      58.444   0.591  29.854  0.00  0.00     0.000 A 
ENDBRANCH  16  17
ENDBRANCH  14  16
ENDBRANCH   6  13
TORSDOF 3
ENDMDL
