MODEL 1
REMARK VINA RESULT:      -0.6      0.000      0.000
REMARK  6 active torsions:
REMARK  status: ('A' for Active; 'I' for Inactive)
REMARK    1  A    between atoms: N_2  and  S_1 
REMARK    2  A    between atoms: C_7  and  S_1 
REMARK    3  A    between atoms: C_3  and  N_2 
REMARK    4  A    between atoms: C_4  and  C_3 
REMARK    5  A    between atoms: N_5  and  C_4 
REMARK    6  A    between atoms: C_6  and  C_4 
ROOT
ATOM      1  C   UNL d   1      31.297  17.746 -24.566  0.00  0.00     0.110 C 
ATOM      2  C   UNL d   1      31.266  18.378 -25.097  0.00  0.00     0.023 C 
ENDROOT
BRANCH   1   3
ATOM      3  N   UNL d   1      30.625  17.306 -24.414  0.00  0.00    -0.157 NA
BRANCH   3   4
ATOM      4  S   UNL d   1      29.883  17.576 -24.644  0.00  0.00     0.285 S 
ATOM      5  O   UNL d   1      29.464  18.126 -25.097  0.00  0.00    -0.198 OA
ATOM      6  O   UNL d   1      30.291  18.139 -25.096  0.00  0.00    -0.198 OA
BRANCH   4   7
ATOM      7  C   UNL d   1      29.419  17.047 -24.221  0.00  0.00     0.105 A 
ATOM      8  C   UNL d   1      29.023  17.304 -23.534  0.00  0.00     0.013 A 
ATOM      9  C   UNL d   1      28.557  16.767 -23.111  0.00  0.00     0.007 A 
ATOM     10  C   UNL d   1      28.484  15.988 -23.363  0.00  0.00     0.035 A 
ATOM     11  C   UNL d   1      28.876  15.733 -24.043  0.00  0.00     0.007 A 
ATOM     12 BR   UNL d   1      28.013  15.453 -22.933  0.00  0.00    -0.049 Br
ATOM     13  C   UNL d   1      29.346  16.268 -24.473  0.00  0.00     0.013 A 
ENDBRANCH   4   7
ENDBRANCH   3   4
ENDBRANCH   1   3
BRANCH   1  14
ATOM     14  C   UNL d   1      32.005  17.560 -24.190  0.00  0.00     0.089 C 
BRANCH  14  15
ATOM     15  N   UNL d   1      32.311  18.062 -23.618  0.00  0.00    -0.300 N 
ATOM     16  C   UNL d   1      32.102  17.966 -22.826  0.00  0.00     0.100 A 
ATOM     17  C   UNL d   1      32.413  18.474 -22.251  0.00  0.00     0.100 A 
ATOM     18  N   UNL d   1      32.931  19.075 -22.463  0.00  0.00    -0.299 N 
ATOM     19  C   UNL d   1      33.143  19.172 -23.259  0.00  0.00     0.100 A 
ATOM     20  C   UNL d   1      33.241  19.581 -21.884  0.00  0.00     0.100 C 
ATOM     21  C   UNL d   1      32.836  18.670 -23.830  0.00  0.00     0.100 A 
ENDBRANCH  14  15
BRANCH  14  22
ATOM     22  C   UNL d   1      32.405  16.869 -24.389  0.00  0.00     0.047 A 
ATOM     23  S   UNL d   1      32.822  16.730 -25.092  0.00  0.00    -0.085 SA
ATOM     24  C   UNL d   1      33.133  15.966 -25.052  0.00  0.00     0.035 A 
ATOM     25  C   UNL d   1      32.918  15.628 -24.340  0.00  0.00     0.007 A 
ATOM     26  C   UNL d   1      32.464  16.188 -23.924  0.00  0.00     0.009 A 
ENDBRANCH  14  22
ENDBRANCH   1  14
TORSDOF 6
ENDMDL
