MODEL 1
REMARK VINA RESULT:      42.9      0.000      0.000
REMARK  5 active torsions:
REMARK  status: ('A' for Active; 'I' for Inactive)
REMARK    1  A    between atoms: C_6  and  C_1 
REMARK    2  A    between atoms: C_7  and  C_2 
REMARK    3  A    between atoms: O_12  and  C_6 
REMARK    4  A    between atoms: O_14  and  C_11 
REMARK    5  A    between atoms: C_17  and  O_12 
ROOT
ATOM      1  C   UNL d   1      59.401  49.167  50.601  0.00  0.00     0.088 A 
ATOM      2  C   UNL d   1      59.537  49.474  51.354  0.00  0.00     0.105 A 
ATOM      3  C   UNL d   1      58.597  49.202  50.437  0.00  0.00     0.032 A 
ATOM      4  O   UNL d   1      58.797  49.703  51.659  0.00  0.00    -0.307 OA
ATOM      5  C   UNL d   1      58.223  49.533  51.091  0.00  0.00     0.100 A 
ATOM      6  C   UNL d   1      58.161  48.977  49.785  0.00  0.00     0.026 A 
ATOM      7  C   UNL d   1      57.401  49.638  51.085  0.00  0.00     0.027 A 
ATOM      8  C   UNL d   1      57.338  49.083  49.779  0.00  0.00     0.094 A 
ATOM      9  C   UNL d   1      56.965  49.414  50.433  0.00  0.00     0.026 A 
ENDROOT
BRANCH   2  10
ATOM     10  C   UNL d   1      60.256  49.549  51.745  0.00  0.00     0.023 A 
ATOM     11  C   UNL d   1      60.975  49.558  51.314  0.00  0.00     0.002 A 
ATOM     12  C   UNL d   1      61.700  49.634  51.724  0.00  0.00     0.000 A 
ATOM     13  C   UNL d   1      61.699  49.701  52.561  0.00  0.00     0.000 A 
ATOM     14  C   UNL d   1      60.990  49.690  52.968  0.00  0.00     0.000 A 
ATOM     15  C   UNL d   1      60.277  49.615  52.565  0.00  0.00     0.002 A 
ENDBRANCH   2  10
BRANCH   1  16
ATOM     16  C   UNL d   1      60.186  48.980  50.405  0.00  0.00     0.302 C 
ATOM     17  O   UNL d   1      60.745  49.575  50.328  0.00  0.00    -0.259 OA
BRANCH  16  18
ATOM     18  O   UNL d   1      60.416  48.192  50.287  0.00  0.00    -0.271 OA
BRANCH  18  19
ATOM     19  C   UNL d   1      61.222  47.981  50.260  0.00  0.00     0.126 C 
ATOM     20  C   UNL d   1      61.445  47.184  50.349  0.00  0.00     0.029 C 
ENDBRANCH  18  19
ENDBRANCH  16  18
ENDBRANCH   1  16
BRANCH   8  21
ATOM     21  O   UNL d   1      56.901  48.852  49.111  0.00  0.00    -0.328 OA
ATOM     22  C   UNL d   1      56.209  49.279  48.893  0.00  0.00     0.181 C 
ENDBRANCH   8  21
TORSDOF 5
ENDMDL
