MODEL 1
REMARK VINA RESULT:      18.8      0.000      0.000
REMARK  5 active torsions:
REMARK  status: ('A' for Active; 'I' for Inactive)
REMARK    1  A    between atoms: C_5  and  C_1 
REMARK    2  A    between atoms: N_15  and  C_4 
REMARK       I    between atoms: N_9  and  C_5 
REMARK    3  A    between atoms: C_7  and  N_9 
REMARK    4  A    between atoms: C_18  and  N_15 
REMARK    5  A    between atoms: C_16  and  C_18 
ROOT
ATOM      1  C   UNL d   1      45.717 -16.719  44.435  0.00  0.00     0.128 A 
ATOM      2  N   UNL d   1      45.351 -18.309  44.282  0.00  0.00    -0.200 NA
ATOM      3  C   UNL d   1      44.975 -16.993  44.656  0.00  0.00     0.196 A 
ATOM      4  C   UNL d   1      46.092 -18.034  44.061  0.00  0.00     0.196 A 
ATOM      5  S   UNL d   1      46.273 -17.251  44.136  0.00  0.00    -0.041 SA
ATOM      6  N   UNL d   1      44.416 -16.470  44.955  0.00  0.00    -0.126 N 
ENDROOT
BRANCH   1   7
ATOM      7  C   UNL d   1      45.895 -15.914  44.515  0.00  0.00     0.290 C 
ATOM      8  N   UNL d   1      45.391 -15.344  44.168  0.00  0.00    -0.186 NA
ATOM      9  O   UNL d   1      46.564 -15.667  44.934  0.00  0.00    -0.264 OA
BRANCH   8  10
ATOM     10  C   UNL d   1      45.564 -14.535  44.245  0.00  0.00     0.194 A 
ATOM     11  N   UNL d   1      46.090 -14.086  44.705  0.00  0.00    -0.107 NA
ATOM     12  O   UNL d   1      46.114 -13.269  44.636  0.00  0.00    -0.210 OA
ATOM     13  C   UNL d   1      45.597 -12.880  44.091  0.00  0.00     0.128 A 
ATOM     14  C   UNL d   1      45.075 -13.327  43.635  0.00  0.00     0.068 A 
ATOM     15  C   UNL d   1      45.459 -12.081  43.867  0.00  0.00     0.029 C 
ENDBRANCH   8  10
ENDBRANCH   1   7
BRANCH   4  16
ATOM     16  N   UNL d   1      46.647 -18.561  43.763  0.00  0.00    -0.220 NA
BRANCH  16  17
ATOM     17  C   UNL d   1      46.618 -18.776  42.967  0.00  0.00     0.101 C 
BRANCH  17  18
ATOM     18  C   UNL d   1      46.464 -19.552  42.761  0.00  0.00     0.021 C 
ATOM     19  C   UNL d   1      46.605 -19.808  41.990  0.00  0.00     0.002 C 
ENDBRANCH  17  18
ENDBRANCH  16  17
ENDBRANCH   4  16
TORSDOF 5
ENDMDL
