MODEL 1
REMARK VINA RESULT:      -8.1      0.000      0.000
REMARK  3 active torsions:
REMARK  status: ('A' for Active; 'I' for Inactive)
REMARK    1  A    between atoms: C_4  and  C_1 
REMARK       I    between atoms: N_8  and  C_1 
REMARK    2  A    between atoms: S_14  and  C_2 
REMARK    3  A    between atoms: C_10  and  N_8 
ROOT
ATOM      1  C   UNL d   1      49.122  34.996  52.505  0.00  0.00     0.136 A 
ATOM      2  N   UNL d   1      49.557  34.733  51.856  0.00  0.00    -0.232 NA
ATOM      3  S   UNL d   1      49.509  34.865  53.195  0.00  0.00    -0.060 SA
ATOM      4  C   UNL d   1      50.226  34.501  52.986  0.00  0.00     0.051 A 
ATOM      5  C   UNL d   1      50.251  34.422  52.159  0.00  0.00     0.089 A 
ATOM      6  C   UNL d   1      50.856  34.234  53.442  0.00  0.00     0.027 A 
ATOM      7  C   UNL d   1      51.519  33.883  53.076  0.00  0.00     0.085 A 
ATOM      8  C   UNL d   1      50.906  34.075  51.797  0.00  0.00     0.021 A 
ATOM      9  C   UNL d   1      51.535  33.808  52.253  0.00  0.00     0.021 A 
ENDROOT
BRANCH   7  10
ATOM     10  N   UNL d   1      52.159  33.611  53.540  0.00  0.00    -0.208 NA
ATOM     11  C   UNL d   1      52.852  34.057  53.565  0.00  0.00     0.283 C 
ATOM     12  O   UNL d   1      52.927  34.756  53.150  0.00  0.00    -0.265 OA
BRANCH  11  13
ATOM     13  C   UNL d   1      53.490  33.787  54.026  0.00  0.00     0.113 A 
ATOM     14  C   UNL d   1      54.001  33.222  53.710  0.00  0.00     0.147 A 
ATOM     15  F   UNL d   1      53.888  32.919  52.932  0.00  0.00    -0.204 F 
ATOM     16  C   UNL d   1      54.645  32.949  54.176  0.00  0.00     0.030 A 
ATOM     17  C   UNL d   1      54.743  33.254  54.933  0.00  0.00     0.005 A 
ATOM     18  C   UNL d   1      54.238  33.812  55.245  0.00  0.00     0.030 A 
ATOM     19  C   UNL d   1      53.594  34.085  54.779  0.00  0.00     0.147 A 
ATOM     20  F   UNL d   1      53.068  34.656  55.086  0.00  0.00    -0.204 F 
ENDBRANCH  11  13
ENDBRANCH   7  10
BRANCH   1  21
ATOM     21  S   UNL d   1      48.385  35.348  52.446  0.00  0.00    -0.087 SA
ATOM     22  C   UNL d   1      48.175  35.933  52.970  0.00  0.00     0.076 C 
ENDBRANCH   1  21
TORSDOF 3
ENDMDL
MODEL 2
REMARK VINA RESULT:      -7.7      3.088      4.352
REMARK  3 active torsions:
REMARK  status: ('A' for Active; 'I' for Inactive)
REMARK    1  A    between atoms: C_4  and  C_1 
REMARK       I    between atoms: N_8  and  C_1 
REMARK    2  A    between atoms: S_14  and  C_2 
REMARK    3  A    between atoms: C_10  and  N_8 
ROOT
ATOM      1  C   UNL d   1      53.273  29.446  53.955  0.00  0.00     0.136 A 
ATOM      2  N   UNL d   1      52.861  29.677  53.279  0.00  0.00    -0.232 NA
ATOM      3  S   UNL d   1      53.582  30.076  54.344  0.00  0.00    -0.060 SA
ATOM      4  C   UNL d   1      53.362  30.744  53.902  0.00  0.00     0.051 A 
ATOM      5  C   UNL d   1      52.917  30.493  53.247  0.00  0.00     0.089 A 
ATOM      6  C   UNL d   1      53.509  31.545  54.014  0.00  0.00     0.027 A 
ATOM      7  C   UNL d   1      53.213  32.105  53.471  0.00  0.00     0.085 A 
ATOM      8  C   UNL d   1      52.625  31.046  52.710  0.00  0.00     0.021 A 
ATOM      9  C   UNL d   1      52.772  31.847  52.822  0.00  0.00     0.021 A 
ENDROOT
BRANCH   7  10
ATOM     10  N   UNL d   1      53.363  32.920  53.585  0.00  0.00    -0.208 NA
ATOM     11  C   UNL d   1      52.763  33.399  53.886  0.00  0.00     0.283 C 
ATOM     12  O   UNL d   1      52.028  33.097  54.074  0.00  0.00    -0.265 OA
BRANCH  11  13
ATOM     13  C   UNL d   1      52.912  34.209  53.999  0.00  0.00     0.113 A 
ATOM     14  C   UNL d   1      52.734  34.737  53.391  0.00  0.00     0.147 A 
ATOM     15  F   UNL d   1      52.407  34.469  52.662  0.00  0.00    -0.204 F 
ATOM     16  C   UNL d   1      52.885  35.557  53.505  0.00  0.00     0.030 A 
ATOM     17  C   UNL d   1      53.205  35.804  54.221  0.00  0.00     0.005 A 
ATOM     18  C   UNL d   1      53.380  35.282  54.821  0.00  0.00     0.030 A 
ATOM     19  C   UNL d   1      53.229  34.463  54.707  0.00  0.00     0.147 A 
ATOM     20  F   UNL d   1      53.404  33.916  55.313  0.00  0.00    -0.204 F 
ENDBRANCH  11  13
ENDBRANCH   7  10
BRANCH   1  21
ATOM     21  S   UNL d   1      53.354  28.667  54.195  0.00  0.00    -0.087 SA
ATOM     22  C   UNL d   1      53.425  28.496  54.986  0.00  0.00     0.076 C 
ENDBRANCH   1  21
TORSDOF 3
ENDMDL
MODEL 3
REMARK VINA RESULT:      -7.7      2.192      4.589
REMARK  3 active torsions:
REMARK  status: ('A' for Active; 'I' for Inactive)
REMARK    1  A    between atoms: C_4  and  C_1 
REMARK       I    between atoms: N_8  and  C_1 
REMARK    2  A    between atoms: S_14  and  C_2 
REMARK    3  A    between atoms: C_10  and  N_8 
ROOT
ATOM      1  C   UNL d   1      53.865  33.458  54.622  0.00  0.00     0.136 A 
ATOM      2  N   UNL d   1      53.724  32.898  54.035  0.00  0.00    -0.232 NA
ATOM      3  S   UNL d   1      53.346  34.069  54.580  0.00  0.00    -0.060 SA
ATOM      4  C   UNL d   1      52.847  33.897  53.939  0.00  0.00     0.051 A 
ATOM      5  C   UNL d   1      53.084  33.174  53.606  0.00  0.00     0.089 A 
ATOM      6  C   UNL d   1      52.210  34.306  53.618  0.00  0.00     0.027 A 
ATOM      7  C   UNL d   1      51.802  33.997  52.959  0.00  0.00     0.085 A 
ATOM      8  C   UNL d   1      52.681  32.867  52.955  0.00  0.00     0.021 A 
ATOM      9  C   UNL d   1      52.045  33.276  52.634  0.00  0.00     0.021 A 
ENDROOT
BRANCH   7  10
ATOM     10  N   UNL d   1      51.155  34.413  52.633  0.00  0.00    -0.208 NA
ATOM     11  C   UNL d   1      50.391  34.131  52.764  0.00  0.00     0.283 C 
ATOM     12  O   UNL d   1      50.253  33.457  53.205  0.00  0.00    -0.265 OA
BRANCH  11  13
ATOM     13  C   UNL d   1      49.747  34.545  52.440  0.00  0.00     0.113 A 
ATOM     14  C   UNL d   1      49.556  34.429  51.646  0.00  0.00     0.147 A 
ATOM     15  F   UNL d   1      50.002  33.902  51.163  0.00  0.00    -0.204 F 
ATOM     16  C   UNL d   1      48.905  34.847  51.317  0.00  0.00     0.030 A 
ATOM     17  C   UNL d   1      48.479  35.359  51.801  0.00  0.00     0.005 A 
ATOM     18  C   UNL d   1      48.668  35.473  52.585  0.00  0.00     0.030 A 
ATOM     19  C   UNL d   1      49.319  35.055  52.913  0.00  0.00     0.147 A 
ATOM     20  F   UNL d   1      49.524  35.161  53.715  0.00  0.00    -0.204 F 
ENDBRANCH  11  13
ENDBRANCH   7  10
BRANCH   1  21
ATOM     21  S   UNL d   1      54.463  33.395  55.178  0.00  0.00    -0.087 SA
ATOM     22  C   UNL d   1      55.189  33.728  55.027  0.00  0.00     0.076 C 
ENDBRANCH   1  21
TORSDOF 3
ENDMDL
MODEL 4
REMARK VINA RESULT:      -7.5      1.163      1.905
REMARK  3 active torsions:
REMARK  status: ('A' for Active; 'I' for Inactive)
REMARK    1  A    between atoms: C_4  and  C_1 
REMARK       I    between atoms: N_8  and  C_1 
REMARK    2  A    between atoms: S_14  and  C_2 
REMARK    3  A    between atoms: C_10  and  N_8 
ROOT
ATOM      1  C   UNL d   1      47.813  35.753  52.073  0.00  0.00     0.136 A 
ATOM      2  N   UNL d   1      48.109  35.284  51.464  0.00  0.00    -0.232 NA
ATOM      3  S   UNL d   1      48.275  35.714  52.728  0.00  0.00    -0.060 SA
ATOM      4  C   UNL d   1      48.897  35.197  52.536  0.00  0.00     0.051 A 
ATOM      5  C   UNL d   1      48.789  34.935  51.755  0.00  0.00     0.089 A 
ATOM      6  C   UNL d   1      49.542  34.934  52.971  0.00  0.00     0.027 A 
ATOM      7  C   UNL d   1      50.090  34.405  52.631  0.00  0.00     0.085 A 
ATOM      8  C   UNL d   1      49.331  34.412  51.418  0.00  0.00     0.021 A 
ATOM      9  C   UNL d   1      49.976  34.149  51.853  0.00  0.00     0.021 A 
ENDROOT
BRANCH   7  10
ATOM     10  N   UNL d   1      50.747  34.138  53.073  0.00  0.00    -0.208 NA
ATOM     11  C   UNL d   1      51.501  34.197  52.745  0.00  0.00     0.283 C 
ATOM     12  O   UNL d   1      51.621  34.510  52.000  0.00  0.00    -0.265 OA
BRANCH  11  13
ATOM     13  C   UNL d   1      52.155  33.931  53.186  0.00  0.00     0.113 A 
ATOM     14  C   UNL d   1      52.582  34.474  53.636  0.00  0.00     0.147 A 
ATOM     15  F   UNL d   1      52.367  35.288  53.656  0.00  0.00    -0.204 F 
ATOM     16  C   UNL d   1      53.243  34.205  54.081  0.00  0.00     0.030 A 
ATOM     17  C   UNL d   1      53.440  33.408  54.052  0.00  0.00     0.005 A 
ATOM     18  C   UNL d   1      53.019  32.871  53.607  0.00  0.00     0.030 A 
ATOM     19  C   UNL d   1      52.358  33.140  53.162  0.00  0.00     0.147 A 
ATOM     20  F   UNL d   1      51.916  32.602  52.702  0.00  0.00    -0.204 F 
ENDBRANCH  11  13
ENDBRANCH   7  10
BRANCH   1  21
ATOM     21  S   UNL d   1      47.131  36.202  52.012  0.00  0.00    -0.087 SA
ATOM     22  C   UNL d   1      46.431  35.844  51.809  0.00  0.00     0.076 C 
ENDBRANCH   1  21
TORSDOF 3
ENDMDL
MODEL 5
REMARK VINA RESULT:      -7.4      1.962      2.380
REMARK  3 active torsions:
REMARK  status: ('A' for Active; 'I' for Inactive)
REMARK    1  A    between atoms: C_4  and  C_1 
REMARK       I    between atoms: N_8  and  C_1 
REMARK    2  A    between atoms: S_14  and  C_2 
REMARK    3  A    between atoms: C_10  and  N_8 
ROOT
ATOM      1  C   UNL d   1      49.876  34.736  52.751  0.00  0.00     0.136 A 
ATOM      2  N   UNL d   1      50.633  35.060  52.706  0.00  0.00    -0.232 NA
ATOM      3  S   UNL d   1      49.896  33.966  52.975  0.00  0.00    -0.060 SA
ATOM      4  C   UNL d   1      50.699  33.782  53.079  0.00  0.00     0.051 A 
ATOM      5  C   UNL d   1      51.149  34.461  52.912  0.00  0.00     0.089 A 
ATOM      6  C   UNL d   1      51.075  33.086  53.303  0.00  0.00     0.027 A 
ATOM      7  C   UNL d   1      51.907  33.060  53.363  0.00  0.00     0.085 A 
ATOM      8  C   UNL d   1      51.971  34.435  52.971  0.00  0.00     0.021 A 
ATOM      9  C   UNL d   1      52.348  33.739  53.196  0.00  0.00     0.021 A 
ENDROOT
BRANCH   7  10
ATOM     10  N   UNL d   1      52.289  32.353  53.591  0.00  0.00    -0.208 NA
ATOM     11  C   UNL d   1      52.610  31.865  53.009  0.00  0.00     0.283 C 
ATOM     12  O   UNL d   1      52.562  32.057  52.216  0.00  0.00    -0.265 OA
BRANCH  11  13
ATOM     13  C   UNL d   1      52.990  31.161  53.236  0.00  0.00     0.113 A 
ATOM     14  C   UNL d   1      53.790  31.185  53.437  0.00  0.00     0.147 A 
ATOM     15  F   UNL d   1      54.223  31.908  53.416  0.00  0.00    -0.204 F 
ATOM     16  C   UNL d   1      54.175  30.474  53.666  0.00  0.00     0.030 A 
ATOM     17  C   UNL d   1      53.739  29.777  53.682  0.00  0.00     0.005 A 
ATOM     18  C   UNL d   1      52.950  29.753  53.483  0.00  0.00     0.030 A 
ATOM     19  C   UNL d   1      52.565  30.464  53.254  0.00  0.00     0.147 A 
ATOM     20  F   UNL d   1      51.756  30.455  53.048  0.00  0.00    -0.204 F 
ENDBRANCH  11  13
ENDBRANCH   7  10
BRANCH   1  21
ATOM     21  S   UNL d   1      49.191  35.154  52.588  0.00  0.00    -0.087 SA
ATOM     22  C   UNL d   1      48.790  35.522  53.192  0.00  0.00     0.076 C 
ENDBRANCH   1  21
TORSDOF 3
ENDMDL
MODEL 6
REMARK VINA RESULT:      -7.0      2.656      3.583
REMARK  3 active torsions:
REMARK  status: ('A' for Active; 'I' for Inactive)
REMARK    1  A    between atoms: C_4  and  C_1 
REMARK       I    between atoms: N_8  and  C_1 
REMARK    2  A    between atoms: S_14  and  C_2 
REMARK    3  A    between atoms: C_10  and  N_8 
ROOT
ATOM      1  C   UNL d   1      53.045  35.329  54.142  0.00  0.00     0.136 A 
ATOM      2  N   UNL d   1      52.694  35.207  53.407  0.00  0.00    -0.232 NA
ATOM      3  S   UNL d   1      53.171  34.638  54.530  0.00  0.00    -0.060 SA
ATOM      4  C   UNL d   1      52.890  34.042  54.024  0.00  0.00     0.051 A 
ATOM      5  C   UNL d   1      52.597  34.398  53.333  0.00  0.00     0.089 A 
ATOM      6  C   UNL d   1      52.865  33.224  54.106  0.00  0.00     0.027 A 
ATOM      7  C   UNL d   1      52.546  32.752  53.497  0.00  0.00     0.085 A 
ATOM      8  C   UNL d   1      52.282  33.932  52.730  0.00  0.00     0.021 A 
ATOM      9  C   UNL d   1      52.256  33.114  52.812  0.00  0.00     0.021 A 
ENDROOT
BRANCH   7  10
ATOM     10  N   UNL d   1      52.519  31.920  53.580  0.00  0.00    -0.208 NA
ATOM     11  C   UNL d   1      53.194  31.480  53.404  0.00  0.00     0.283 C 
ATOM     12  O   UNL d   1      53.885  31.835  53.152  0.00  0.00    -0.265 OA
BRANCH  11  13
ATOM     13  C   UNL d   1      53.168  30.652  53.487  0.00  0.00     0.113 A 
ATOM     14  C   UNL d   1      53.387  30.315  54.206  0.00  0.00     0.147 A 
ATOM     15  F   UNL d   1      53.634  30.793  54.855  0.00  0.00    -0.204 F 
ATOM     16  C   UNL d   1      53.360  29.478  54.290  0.00  0.00     0.030 A 
ATOM     17  C   UNL d   1      53.117  29.025  53.649  0.00  0.00     0.005 A 
ATOM     18  C   UNL d   1      52.901  29.358  52.938  0.00  0.00     0.030 A 
ATOM     19  C   UNL d   1      52.927  30.195  52.855  0.00  0.00     0.147 A 
ATOM     20  F   UNL d   1      52.709  30.551  52.132  0.00  0.00    -0.204 F 
ENDBRANCH  11  13
ENDBRANCH   7  10
BRANCH   1  21
ATOM     21  S   UNL d   1      53.239  36.069  54.437  0.00  0.00    -0.087 SA
ATOM     22  C   UNL d   1      52.845  36.358  55.087  0.00  0.00     0.076 C 
ENDBRANCH   1  21
TORSDOF 3
ENDMDL
MODEL 7
REMARK VINA RESULT:      -6.2     10.306     11.199
REMARK  3 active torsions:
REMARK  status: ('A' for Active; 'I' for Inactive)
REMARK    1  A    between atoms: C_4  and  C_1 
REMARK       I    between atoms: N_8  and  C_1 
REMARK    2  A    between atoms: S_14  and  C_2 
REMARK    3  A    between atoms: C_10  and  N_8 
ROOT
ATOM      1  C   UNL d   1      44.491  29.069  62.545  0.00  0.00     0.136 A 
ATOM      2  N   UNL d   1      44.675  29.862  62.414  0.00  0.00    -0.232 NA
ATOM      3  S   UNL d   1      44.331  28.685  61.859  0.00  0.00    -0.060 SA
ATOM      4  C   UNL d   1      44.413  29.252  61.258  0.00  0.00     0.051 A 
ATOM      5  C   UNL d   1      44.625  29.977  61.606  0.00  0.00     0.089 A 
ATOM      6  C   UNL d   1      44.322  29.201  60.442  0.00  0.00     0.027 A 
ATOM      7  C   UNL d   1      44.442  29.874  59.965  0.00  0.00     0.085 A 
ATOM      8  C   UNL d   1      44.744  30.642  61.134  0.00  0.00     0.021 A 
ATOM      9  C   UNL d   1      44.653  30.591  60.318  0.00  0.00     0.021 A 
ENDROOT
BRANCH   7  10
ATOM     10  N   UNL d   1      44.350  29.822  59.135  0.00  0.00    -0.208 NA
ATOM     11  C   UNL d   1      45.021  29.838  58.656  0.00  0.00     0.283 C 
ATOM     12  O   UNL d   1      45.771  29.903  58.972  0.00  0.00    -0.265 OA
BRANCH  11  13
ATOM     13  C   UNL d   1      44.929  29.786  57.831  0.00  0.00     0.113 A 
ATOM     14  C   UNL d   1      45.080  29.068  57.456  0.00  0.00     0.147 A 
ATOM     15  F   UNL d   1      45.324  28.390  57.893  0.00  0.00    -0.204 F 
ATOM     16  C   UNL d   1      44.987  29.015  56.622  0.00  0.00     0.030 A 
ATOM     17  C   UNL d   1      44.748  29.684  56.208  0.00  0.00     0.005 A 
ATOM     18  C   UNL d   1      44.599  30.394  56.579  0.00  0.00     0.030 A 
ATOM     19  C   UNL d   1      44.692  30.446  57.413  0.00  0.00     0.147 A 
ATOM     20  F   UNL d   1      44.543  31.167  57.807  0.00  0.00    -0.204 F 
ENDBRANCH  11  13
ENDBRANCH   7  10
BRANCH   1  21
ATOM     21  S   UNL d   1      44.476  28.720  63.286  0.00  0.00    -0.087 SA
ATOM     22  C   UNL d   1      44.642  27.928  63.362  0.00  0.00     0.076 C 
ENDBRANCH   1  21
TORSDOF 3
ENDMDL
MODEL 8
REMARK VINA RESULT:      -6.2     10.182     10.864
REMARK  3 active torsions:
REMARK  status: ('A' for Active; 'I' for Inactive)
REMARK    1  A    between atoms: C_4  and  C_1 
REMARK       I    between atoms: N_8  and  C_1 
REMARK    2  A    between atoms: S_14  and  C_2 
REMARK    3  A    between atoms: C_10  and  N_8 
ROOT
ATOM      1  C   UNL d   1      44.348  31.046  61.544  0.00  0.00     0.136 A 
ATOM      2  N   UNL d   1      44.380  31.500  60.856  0.00  0.00    -0.232 NA
ATOM      3  S   UNL d   1      44.350  30.261  61.381  0.00  0.00    -0.060 SA
ATOM      4  C   UNL d   1      44.384  30.201  60.553  0.00  0.00     0.051 A 
ATOM      5  C   UNL d   1      44.402  30.969  60.234  0.00  0.00     0.089 A 
ATOM      6  C   UNL d   1      44.400  29.550  60.053  0.00  0.00     0.027 A 
ATOM      7  C   UNL d   1      44.435  29.657  59.227  0.00  0.00     0.085 A 
ATOM      8  C   UNL d   1      44.436  31.075  59.418  0.00  0.00     0.021 A 
ATOM      9  C   UNL d   1      44.453  30.423  58.917  0.00  0.00     0.021 A 
ENDROOT
BRANCH   7  10
ATOM     10  N   UNL d   1      44.451  28.994  58.717  0.00  0.00    -0.208 NA
ATOM     11  C   UNL d   1      45.172  28.751  58.399  0.00  0.00     0.283 C 
ATOM     12  O   UNL d   1      45.869  29.143  58.570  0.00  0.00    -0.265 OA
BRANCH  11  13
ATOM     13  C   UNL d   1      45.189  28.092  57.893  0.00  0.00     0.113 A 
ATOM     14  C   UNL d   1      45.088  28.207  57.083  0.00  0.00     0.147 A 
ATOM     15  F   UNL d   1      44.969  28.978  56.763  0.00  0.00    -0.204 F 
ATOM     16  C   UNL d   1      45.104  27.540  56.570  0.00  0.00     0.030 A 
ATOM     17  C   UNL d   1      45.221  26.795  56.896  0.00  0.00     0.005 A 
ATOM     18  C   UNL d   1      45.321  26.681  57.696  0.00  0.00     0.030 A 
ATOM     19  C   UNL d   1      45.304  27.348  58.209  0.00  0.00     0.147 A 
ATOM     20  F   UNL d   1      45.405  27.247  59.031  0.00  0.00    -0.204 F 
ENDBRANCH  11  13
ENDBRANCH   7  10
BRANCH   1  21
ATOM     21  S   UNL d   1      44.319  31.364  62.298  0.00  0.00    -0.087 SA
ATOM     22  C   UNL d   1      44.314  30.869  62.943  0.00  0.00     0.076 C 
ENDBRANCH   1  21
TORSDOF 3
ENDMDL
MODEL 9
REMARK VINA RESULT:      -5.7     11.129     11.792
REMARK  3 active torsions:
REMARK  status: ('A' for Active; 'I' for Inactive)
REMARK    1  A    between atoms: C_4  and  C_1 
REMARK       I    between atoms: N_8  and  C_1 
REMARK    2  A    between atoms: S_14  and  C_2 
REMARK    3  A    between atoms: C_10  and  N_8 
ROOT
ATOM      1  C   UNL d   1      44.512  23.648  58.120  0.00  0.00     0.136 A 
ATOM      2  N   UNL d   1      44.574  23.806  57.314  0.00  0.00    -0.232 NA
ATOM      3  S   UNL d   1      44.443  24.322  58.550  0.00  0.00    -0.060 SA
ATOM      4  C   UNL d   1      44.460  24.944  57.999  0.00  0.00     0.051 A 
ATOM      5  C   UNL d   1      44.541  24.620  57.238  0.00  0.00     0.089 A 
ATOM      6  C   UNL d   1      44.413  25.759  58.094  0.00  0.00     0.027 A 
ATOM      7  C   UNL d   1      44.446  26.261  57.428  0.00  0.00     0.085 A 
ATOM      8  C   UNL d   1      44.574  25.116  56.580  0.00  0.00     0.021 A 
ATOM      9  C   UNL d   1      44.527  25.931  56.675  0.00  0.00     0.021 A 
ENDROOT
BRANCH   7  10
ATOM     10  N   UNL d   1      44.398  27.090  57.525  0.00  0.00    -0.208 NA
ATOM     11  C   UNL d   1      45.086  27.540  57.466  0.00  0.00     0.283 C 
ATOM     12  O   UNL d   1      45.812  27.196  57.316  0.00  0.00    -0.265 OA
BRANCH  11  13
ATOM     13  C   UNL d   1      45.039  28.365  57.562  0.00  0.00     0.113 A 
ATOM     14  C   UNL d   1      44.884  28.836  56.903  0.00  0.00     0.147 A 
ATOM     15  F   UNL d   1      44.775  28.496  56.140  0.00  0.00    -0.204 F 
ATOM     16  C   UNL d   1      44.836  29.670  57.000  0.00  0.00     0.030 A 
ATOM     17  C   UNL d   1      44.945  29.988  57.750  0.00  0.00     0.005 A 
ATOM     18  C   UNL d   1      45.097  29.523  58.401  0.00  0.00     0.030 A 
ATOM     19  C   UNL d   1      45.146  28.689  58.304  0.00  0.00     0.147 A 
ATOM     20  F   UNL d   1      45.302  28.199  58.962  0.00  0.00    -0.204 F 
ENDBRANCH  11  13
ENDBRANCH   7  10
BRANCH   1  21
ATOM     21  S   UNL d   1      44.521  22.894  58.439  0.00  0.00    -0.087 SA
ATOM     22  C   UNL d   1      45.231  22.522  58.572  0.00  0.00     0.076 C 
ENDBRANCH   1  21
TORSDOF 3
ENDMDL
