MODEL 1
REMARK VINA RESULT:      29.1      0.000      0.000
REMARK  3 active torsions:
REMARK  status: ('A' for Active; 'I' for Inactive)
REMARK    1  A    between atoms: C_6  and  N_1 
REMARK    2  A    between atoms: C_7  and  C_6 
REMARK    3  A    between atoms: C_8  and  C_7 
ROOT
ATOM      1  N   UNL d   1      57.893  49.613  50.791  0.00  0.00    -0.305 N 
ATOM      2  C   UNL d   1      57.478  49.596  50.081  0.00  0.00     0.064 A 
ATOM      3  C   UNL d   1      57.477  49.651  51.713  0.00  0.00     0.064 A 
ATOM      4  C   UNL d   1      56.767  49.621  50.482  0.00  0.00     0.018 A 
ATOM      5  C   UNL d   1      56.760  49.649  51.301  0.00  0.00     0.018 A 
ATOM      6  C   UNL d   1      57.483  49.679  52.527  0.00  0.00     0.018 A 
ATOM      7  C   UNL d   1      57.485  49.567  49.253  0.00  0.00     0.018 A 
ATOM      8  C   UNL d   1      56.049  49.618  50.062  0.00  0.00     0.002 A 
ATOM      9  C   UNL d   1      56.049  49.674  51.712  0.00  0.00     0.002 A 
ATOM     10  C   UNL d   1      56.055  49.702  52.538  0.00  0.00     0.000 A 
ATOM     11  C   UNL d   1      56.776  49.564  48.828  0.00  0.00     0.002 A 
ATOM     12  C   UNL d   1      56.771  49.705  52.942  0.00  0.00     0.002 A 
ATOM     13  C   UNL d   1      56.056  49.590  49.243  0.00  0.00     0.000 A 
ENDROOT
BRANCH   1  14
ATOM     14  C   UNL d   1      58.721  49.600  50.786  0.00  0.00     0.086 C 
BRANCH  14  15
ATOM     15  C   UNL d   1      59.154  49.242  51.390  0.00  0.00     0.089 C 
BRANCH  15  16
ATOM     16  C   UNL d   1      59.968  49.382  51.446  0.00  0.00     0.213 C 
ATOM     17  O   UNL d   1      60.355  49.268  52.168  0.00  0.00    -0.644 OA
ATOM     18  O   UNL d   1      60.392  49.635  50.786  0.00  0.00    -0.644 OA
ENDBRANCH  15  16
ENDBRANCH  14  15
ENDBRANCH   1  14
TORSDOF 3
ENDMDL
MODEL 2
REMARK VINA RESULT:      30.5      1.811      4.053
REMARK  3 active torsions:
REMARK  status: ('A' for Active; 'I' for Inactive)
REMARK    1  A    between atoms: C_6  and  N_1 
REMARK    2  A    between atoms: C_7  and  C_6 
REMARK    3  A    between atoms: C_8  and  C_7 
ROOT
ATOM      1  N   UNL d   1      59.068  49.708  51.247  0.00  0.00    -0.305 N 
ATOM      2  C   UNL d   1      59.468  49.708  51.966  0.00  0.00     0.064 A 
ATOM      3  C   UNL d   1      59.503  49.707  50.333  0.00  0.00     0.064 A 
ATOM      4  C   UNL d   1      60.188  49.707  51.578  0.00  0.00     0.018 A 
ATOM      5  C   UNL d   1      60.211  49.707  50.759  0.00  0.00     0.018 A 
ATOM      6  C   UNL d   1      59.513  49.707  49.519  0.00  0.00     0.018 A 
ATOM      7  C   UNL d   1      59.445  49.708  52.794  0.00  0.00     0.018 A 
ATOM      8  C   UNL d   1      60.897  49.707  52.012  0.00  0.00     0.002 A 
ATOM      9  C   UNL d   1      60.931  49.707  50.362  0.00  0.00     0.002 A 
ATOM     10  C   UNL d   1      60.941  49.707  49.535  0.00  0.00     0.000 A 
ATOM     11  C   UNL d   1      60.145  49.707  53.232  0.00  0.00     0.002 A 
ATOM     12  C   UNL d   1      60.233  49.707  49.117  0.00  0.00     0.002 A 
ATOM     13  C   UNL d   1      60.874  49.707  52.832  0.00  0.00     0.000 A 
ENDROOT
BRANCH   1  14
ATOM     14  C   UNL d   1      58.240  49.708  51.236  0.00  0.00     0.086 C 
BRANCH  14  15
ATOM     15  C   UNL d   1      57.813  49.430  50.587  0.00  0.00     0.089 C 
BRANCH  15  16
ATOM     16  C   UNL d   1      56.987  49.400  50.625  0.00  0.00     0.213 C 
ATOM     17  O   UNL d   1      56.554  49.172  49.958  0.00  0.00    -0.644 OA
ATOM     18  O   UNL d   1      56.596  49.595  51.324  0.00  0.00    -0.644 OA
ENDBRANCH  15  16
ENDBRANCH  14  15
ENDBRANCH   1  14
TORSDOF 3
ENDMDL
MODEL 3
REMARK VINA RESULT:      30.9      0.441      2.271
REMARK  3 active torsions:
REMARK  status: ('A' for Active; 'I' for Inactive)
REMARK    1  A    between atoms: C_6  and  N_1 
REMARK    2  A    between atoms: C_7  and  C_6 
REMARK    3  A    between atoms: C_8  and  C_7 
ROOT
ATOM      1  N   UNL d   1      57.968  49.660  51.164  0.00  0.00    -0.305 N 
ATOM      2  C   UNL d   1      57.508  49.668  51.847  0.00  0.00     0.064 A 
ATOM      3  C   UNL d   1      57.612  49.673  50.217  0.00  0.00     0.064 A 
ATOM      4  C   UNL d   1      56.824  49.685  51.400  0.00  0.00     0.018 A 
ATOM      5  C   UNL d   1      56.870  49.688  50.582  0.00  0.00     0.018 A 
ATOM      6  C   UNL d   1      57.671  49.675  49.405  0.00  0.00     0.018 A 
ATOM      7  C   UNL d   1      57.462  49.665  52.674  0.00  0.00     0.018 A 
ATOM      8  C   UNL d   1      56.081  49.701  51.772  0.00  0.00     0.002 A 
ATOM      9  C   UNL d   1      56.187  49.705  50.126  0.00  0.00     0.002 A 
ATOM     10  C   UNL d   1      56.246  49.707  49.300  0.00  0.00     0.000 A 
ATOM     11  C   UNL d   1      56.726  49.680  53.052  0.00  0.00     0.002 A 
ATOM     12  C   UNL d   1      56.987  49.692  48.944  0.00  0.00     0.002 A 
ATOM     13  C   UNL d   1      56.035  49.698  52.591  0.00  0.00     0.000 A 
ENDROOT
BRANCH   1  14
ATOM     14  C   UNL d   1      58.793  49.642  51.224  0.00  0.00     0.086 C 
BRANCH  14  15
ATOM     15  C   UNL d   1      59.251  49.135  50.761  0.00  0.00     0.089 C 
BRANCH  15  16
ATOM     16  C   UNL d   1      60.055  49.040  50.933  0.00  0.00     0.213 C 
ATOM     17  O   UNL d   1      60.365  48.281  51.041  0.00  0.00    -0.644 OA
ATOM     18  O   UNL d   1      60.546  49.699  50.996  0.00  0.00    -0.644 OA
ENDBRANCH  15  16
ENDBRANCH  14  15
ENDBRANCH   1  14
TORSDOF 3
ENDMDL
MODEL 4
REMARK VINA RESULT:      31.8      1.833      3.544
REMARK  3 active torsions:
REMARK  status: ('A' for Active; 'I' for Inactive)
REMARK    1  A    between atoms: C_6  and  N_1 
REMARK    2  A    between atoms: C_7  and  C_6 
REMARK    3  A    between atoms: C_8  and  C_7 
ROOT
ATOM      1  N   UNL d   1      59.400  49.673  50.952  0.00  0.00    -0.305 N 
ATOM      2  C   UNL d   1      59.776  49.671  50.220  0.00  0.00     0.064 A 
ATOM      3  C   UNL d   1      59.865  49.662  51.851  0.00  0.00     0.064 A 
ATOM      4  C   UNL d   1      60.508  49.659  50.583  0.00  0.00     0.018 A 
ATOM      5  C   UNL d   1      60.559  49.655  51.402  0.00  0.00     0.018 A 
ATOM      6  C   UNL d   1      59.902  49.657  52.664  0.00  0.00     0.018 A 
ATOM      7  C   UNL d   1      59.725  49.676  49.394  0.00  0.00     0.018 A 
ATOM      8  C   UNL d   1      61.203  49.652  50.126  0.00  0.00     0.002 A 
ATOM      9  C   UNL d   1      61.291  49.643  51.774  0.00  0.00     0.002 A 
ATOM     10  C   UNL d   1      61.329  49.638  52.601  0.00  0.00     0.000 A 
ATOM     11  C   UNL d   1      60.411  49.669  48.932  0.00  0.00     0.002 A 
ATOM     12  C   UNL d   1      60.635  49.645  53.042  0.00  0.00     0.002 A 
ATOM     13  C   UNL d   1      61.152  49.657  49.308  0.00  0.00     0.000 A 
ENDROOT
BRANCH   1  14
ATOM     14  C   UNL d   1      58.574  49.684  50.990  0.00  0.00     0.086 C 
BRANCH  14  15
ATOM     15  C   UNL d   1      58.106  49.681  50.310  0.00  0.00     0.089 C 
BRANCH  15  16
ATOM     16  C   UNL d   1      57.300  49.504  50.369  0.00  0.00     0.213 C 
ATOM     17  O   UNL d   1      56.972  49.325  51.107  0.00  0.00    -0.644 OA
ATOM     18  O   UNL d   1      56.825  49.504  49.696  0.00  0.00    -0.644 OA
ENDBRANCH  15  16
ENDBRANCH  14  15
ENDBRANCH   1  14
TORSDOF 3
ENDMDL
