MODEL 1
REMARK VINA RESULT:     102.7      0.000      0.000
REMARK  5 active torsions:
REMARK  status: ('A' for Active; 'I' for Inactive)
REMARK    1  A    between atoms: C_2  and  C_1 
REMARK       I    between atoms: N_3  and  C_1 
REMARK    2  A    between atoms: C_6  and  N_4 
REMARK    3  A    between atoms: O_19  and  C_5 
REMARK    4  A    between atoms: O_22  and  C_7 
REMARK    5  A    between atoms: O_23  and  C_8 
ROOT
ATOM      1  C   UNL d   1      61.407  48.370  49.989  0.00  0.00     0.265 C 
ATOM      2  N   UNL d   1      61.515  47.556  49.967  0.00  0.00    -0.269 N 
ATOM      3  N   UNL d   1      61.731  45.917  49.923  0.00  0.00    -0.301 N 
ATOM      4  C   UNL d   1      62.021  47.222  49.409  0.00  0.00     0.102 A 
ATOM      5  C   UNL d   1      61.117  47.065  50.504  0.00  0.00     0.102 A 
ATOM      6  C   UNL d   1      61.226  46.251  50.481  0.00  0.00     0.100 A 
ATOM      7  C   UNL d   1      62.130  46.399  49.386  0.00  0.00     0.100 A 
ATOM      8  O   UNL d   1      61.805  48.855  49.453  0.00  0.00    -0.267 OA
ENDROOT
BRANCH   1   9
ATOM      9  C   UNL d   1      60.902  48.704  50.547  0.00  0.00     0.061 A 
ATOM     10  C   UNL d   1      60.154  48.989  50.315  0.00  0.00     0.031 A 
ATOM     11  C   UNL d   1      59.649  49.324  50.878  0.00  0.00     0.118 A 
ATOM     12  C   UNL d   1      59.883  49.375  51.665  0.00  0.00     0.138 A 
ATOM     13  C   UNL d   1      60.624  49.092  51.895  0.00  0.00     0.118 A 
ATOM     14  C   UNL d   1      61.136  48.755  51.338  0.00  0.00     0.031 A 
BRANCH  11  15
ATOM     15  O   UNL d   1      58.909  49.606  50.645  0.00  0.00    -0.326 OA
ATOM     16  C   UNL d   1      58.732  49.699  49.845  0.00  0.00     0.181 C 
ENDBRANCH  11  15
BRANCH  12  17
ATOM     17  O   UNL d   1      59.379  49.708  52.223  0.00  0.00    -0.324 OA
ATOM     18  C   UNL d   1      58.562  49.619  52.147  0.00  0.00     0.182 C 
ENDBRANCH  12  17
BRANCH  13  19
ATOM     19  O   UNL d   1      60.865  49.141  52.692  0.00  0.00    -0.326 OA
ATOM     20  C   UNL d   1      61.461  49.669  52.904  0.00  0.00     0.181 C 
ENDBRANCH  13  19
ENDBRANCH   1   9
BRANCH   3  21
ATOM     21  C   UNL d   1      61.839  45.097  49.902  0.00  0.00     0.064 A 
ATOM     22  C   UNL d   1      61.499  44.626  50.480  0.00  0.00     0.016 A 
ATOM     23  C   UNL d   1      61.603  43.814  50.463  0.00  0.00     0.001 A 
ATOM     24  C   UNL d   1      61.051  44.974  51.078  0.00  0.00     0.002 C 
ATOM     25  C   UNL d   1      62.056  43.466  49.856  0.00  0.00     0.000 A 
ATOM     26  C   UNL d   1      62.397  43.945  49.276  0.00  0.00     0.002 A 
ATOM     27  C   UNL d   1      62.164  42.650  49.834  0.00  0.00     0.000 C 
ATOM     28  C   UNL d   1      62.289  44.761  49.298  0.00  0.00     0.018 A 
ENDBRANCH   3  21
TORSDOF 5
ENDMDL
