MODEL 1
REMARK VINA RESULT:      -4.6      0.000      0.000
REMARK  5 active torsions:
REMARK  status: ('A' for Active; 'I' for Inactive)
REMARK    1  A    between atoms: C_4  and  S_1 
REMARK    2  A    between atoms: N_5  and  S_1 
REMARK    3  A    between atoms: C_2  and  C_9 
REMARK       I    between atoms: N_3  and  C_2 
REMARK    4  A    between atoms: C_14  and  N_5 
REMARK    5  A    between atoms: C_15  and  C_14 
ROOT
ATOM      1  C   UNL d   1      55.660   0.089  33.112  0.00  0.00     0.057 A 
ATOM      2  C   UNL d   1      55.780   0.678  32.543  0.00  0.00     0.005 A 
ATOM      3  C   UNL d   1      56.053  -0.631  33.045  0.00  0.00     0.005 A 
ATOM      4  C   UNL d   1      56.682  -0.180  31.850  0.00  0.00     0.020 A 
ATOM      5  C   UNL d   1      56.286   0.549  31.915  0.00  0.00     0.002 A 
ATOM      6  C   UNL d   1      56.566  -0.765  32.411  0.00  0.00     0.002 A 
ENDROOT
BRANCH   4   7
ATOM      7  C   UNL d   1      57.197  -0.314  31.212  0.00  0.00     0.112 C 
BRANCH   7   8
ATOM      8  N   UNL d   1      57.662   0.306  30.921  0.00  0.00    -0.157 NA
BRANCH   8   9
ATOM      9  S   UNL d   1      58.208   0.162  30.310  0.00  0.00     0.285 S 
ATOM     10  O   UNL d   1      57.631   0.369  29.748  0.00  0.00    -0.198 OA
ATOM     11  O   UNL d   1      58.784  -0.045  30.872  0.00  0.00    -0.198 OA
BRANCH   9  12
ATOM     12  C   UNL d   1      58.753   0.019  29.698  0.00  0.00     0.106 A 
ATOM     13  C   UNL d   1      58.871  -0.747  29.430  0.00  0.00     0.024 A 
ATOM     14  C   UNL d   1      59.410  -0.901  28.822  0.00  0.00     0.059 A 
ATOM     15 CL   UNL d   1      59.530  -1.669  28.552  0.00  0.00    -0.082 Cl
ATOM     16  C   UNL d   1      59.827  -0.276  28.489  0.00  0.00     0.011 A 
ATOM     17  C   UNL d   1      59.705   0.484  28.760  0.00  0.00     0.002 A 
ATOM     18  C   UNL d   1      59.168   0.636  29.364  0.00  0.00     0.013 A 
ENDBRANCH   9  12
ENDBRANCH   8   9
ENDBRANCH   7   8
ENDBRANCH   4   7
BRANCH   1  19
ATOM     19  C   UNL d   1      55.144   0.219  33.754  0.00  0.00     0.265 C 
ATOM     20  N   UNL d   1      55.452   0.393  34.505  0.00  0.00    -0.272 N 
ATOM     21  C   UNL d   1      56.249   0.454  34.697  0.00  0.00     0.083 A 
ATOM     22  C   UNL d   1      55.011   0.534  35.189  0.00  0.00     0.083 A 
ATOM     23  C   UNL d   1      56.304   0.633  35.500  0.00  0.00     0.021 A 
ATOM     24  C   UNL d   1      55.546   0.682  35.803  0.00  0.00     0.021 A 
ATOM     25  O   UNL d   1      54.318   0.175  33.643  0.00  0.00    -0.267 OA
ENDBRANCH   1  19
TORSDOF 5
ENDMDL
MODEL 2
REMARK VINA RESULT:      -3.5      2.198      5.661
REMARK  5 active torsions:
REMARK  status: ('A' for Active; 'I' for Inactive)
REMARK    1  A    between atoms: C_4  and  S_1 
REMARK    2  A    between atoms: N_5  and  S_1 
REMARK    3  A    between atoms: C_2  and  C_9 
REMARK       I    between atoms: N_3  and  C_2 
REMARK    4  A    between atoms: C_14  and  N_5 
REMARK    5  A    between atoms: C_15  and  C_14 
ROOT
ATOM      1  C   UNL d   1      58.437  -0.687  29.844  0.00  0.00     0.057 A 
ATOM      2  C   UNL d   1      58.489   0.108  30.069  0.00  0.00     0.005 A 
ATOM      3  C   UNL d   1      57.949  -1.201  30.265  0.00  0.00     0.005 A 
ATOM      4  C   UNL d   1      57.568  -0.136  31.129  0.00  0.00     0.020 A 
ATOM      5  C   UNL d   1      58.059   0.386  30.706  0.00  0.00     0.002 A 
ATOM      6  C   UNL d   1      57.514  -0.923  30.909  0.00  0.00     0.002 A 
ENDROOT
BRANCH   4   7
ATOM      7  C   UNL d   1      57.130   0.145  31.777  0.00  0.00     0.112 C 
BRANCH   7   8
ATOM      8  N   UNL d   1      56.648  -0.375  32.205  0.00  0.00    -0.157 NA
BRANCH   8   9
ATOM      9  S   UNL d   1      56.260  -0.109  32.891  0.00  0.00     0.285 S 
ATOM     10  O   UNL d   1      55.567   0.018  32.448  0.00  0.00    -0.198 OA
ATOM     11  O   UNL d   1      56.952  -0.236  33.333  0.00  0.00    -0.198 OA
BRANCH   9  12
ATOM     12  C   UNL d   1      55.870   0.157  33.576  0.00  0.00     0.106 A 
ATOM     13  C   UNL d   1      55.056   0.248  33.571  0.00  0.00     0.024 A 
ATOM     14  C   UNL d   1      54.658   0.511  34.246  0.00  0.00     0.059 A 
ATOM     15 CL   UNL d   1      53.840   0.603  34.243  0.00  0.00    -0.082 Cl
ATOM     16  C   UNL d   1      55.090   0.682  34.925  0.00  0.00     0.011 A 
ATOM     17  C   UNL d   1      55.900   0.590  34.923  0.00  0.00     0.002 A 
ATOM     18  C   UNL d   1      56.295   0.327  34.251  0.00  0.00     0.013 A 
ENDBRANCH   9  12
ENDBRANCH   8   9
ENDBRANCH   7   8
ENDBRANCH   4   7
BRANCH   1  19
ATOM     19  C   UNL d   1      58.874  -0.972  29.194  0.00  0.00     0.265 C 
ATOM     20  N   UNL d   1      59.703  -0.919  29.197  0.00  0.00    -0.272 N 
ATOM     21  C   UNL d   1      60.163  -0.599  29.798  0.00  0.00     0.083 A 
ATOM     22  C   UNL d   1      60.207  -1.177  28.595  0.00  0.00     0.083 A 
ATOM     23  C   UNL d   1      60.954  -0.658  29.571  0.00  0.00     0.021 A 
ATOM     24  C   UNL d   1      60.982  -1.012  28.834  0.00  0.00     0.021 A 
ATOM     25  O   UNL d   1      58.481  -1.312  28.541  0.00  0.00    -0.267 OA
ENDBRANCH   1  19
TORSDOF 5
ENDMDL
