MODEL 1
REMARK VINA RESULT:      -2.5      0.000      0.000
REMARK  3 active torsions:
REMARK  status: ('A' for Active; 'I' for Inactive)
REMARK    1  A    between atoms: C_8  and  C_3 
REMARK    2  A    between atoms: O_18  and  C_12 
REMARK    3  A    between atoms: O_19  and  C_13 
ROOT
ATOM      1  S   UNL d   1      32.761  19.485 -22.521  0.00  0.00     0.211 S 
ATOM      2  C   UNL d   1      32.890  20.249 -22.116  0.00  0.00     0.103 A 
ATOM      3  C   UNL d   1      32.772  19.327 -23.359  0.00  0.00     0.093 A 
ATOM      4  N   UNL d   1      33.103  21.065 -23.202  0.00  0.00    -0.321 N 
ATOM      5  C   UNL d   1      33.037  20.557 -23.870  0.00  0.00     0.258 A 
ATOM      6  C   UNL d   1      33.047  20.962 -22.484  0.00  0.00     0.070 A 
ATOM      7  C   UNL d   1      32.907  19.867 -23.953  0.00  0.00     0.072 A 
ATOM      8  O   UNL d   1      32.602  18.728 -22.283  0.00  0.00    -0.217 OA
ATOM      9  O   UNL d   1      32.743  19.610 -21.664  0.00  0.00    -0.217 OA
ATOM     10  O   UNL d   1      33.163  20.997 -24.669  0.00  0.00    -0.267 OA
ATOM     11  C   UNL d   1      32.841  20.206 -21.298  0.00  0.00     0.013 A 
ATOM     12  C   UNL d   1      33.156  21.635 -22.039  0.00  0.00     0.018 A 
ATOM     13  C   UNL d   1      32.951  20.888 -20.840  0.00  0.00     0.001 A 
ATOM     14  C   UNL d   1      33.109  21.600 -21.226  0.00  0.00     0.002 A 
ATOM     15  H   UNL d   1      33.266  21.848 -23.413  0.00  0.00     0.169 HD
ENDROOT
BRANCH   3  16
ATOM     16  C   UNL d   1      32.631  18.544 -23.594  0.00  0.00     0.013 A 
ATOM     17  C   UNL d   1      31.892  18.326 -23.893  0.00  0.00     0.027 A 
ATOM     18  C   UNL d   1      31.760  17.544 -24.124  0.00  0.00     0.116 A 
ATOM     19  C   UNL d   1      32.350  16.989 -24.060  0.00  0.00     0.116 A 
ATOM     20  C   UNL d   1      33.097  17.201 -23.759  0.00  0.00     0.026 A 
ATOM     21  C   UNL d   1      33.241  17.981 -23.524  0.00  0.00     0.003 A 
BRANCH  18  22
ATOM     22  O   UNL d   1      31.019  17.326 -24.425  0.00  0.00    -0.326 OA
ATOM     23  C   UNL d   1      30.677  17.747 -25.045  0.00  0.00     0.181 C 
ENDBRANCH  18  22
BRANCH  19  24
ATOM     24  O   UNL d   1      32.213  16.203 -24.294  0.00  0.00    -0.326 OA
ATOM     25  C   UNL d   1      32.713  15.607 -24.045  0.00  0.00     0.181 C 
ENDBRANCH  19  24
ENDBRANCH   3  16
TORSDOF 3
ENDMDL
MODEL 2
REMARK VINA RESULT:      -1.4      2.834      4.806
REMARK  3 active torsions:
REMARK  status: ('A' for Active; 'I' for Inactive)
REMARK    1  A    between atoms: C_8  and  C_3 
REMARK    2  A    between atoms: O_18  and  C_12 
REMARK    3  A    between atoms: O_19  and  C_13 
ROOT
ATOM      1  S   UNL d   1      29.416  16.188 -23.687  0.00  0.00     0.211 S 
ATOM      2  C   UNL d   1      28.581  16.194 -23.428  0.00  0.00     0.103 A 
ATOM      3  C   UNL d   1      29.830  16.784 -24.134  0.00  0.00     0.093 A 
ATOM      4  N   UNL d   1      28.177  17.403 -23.944  0.00  0.00    -0.321 N 
ATOM      5  C   UNL d   1      28.859  17.714 -24.324  0.00  0.00     0.258 A 
ATOM      6  C   UNL d   1      28.042  16.790 -23.576  0.00  0.00     0.070 A 
ATOM      7  C   UNL d   1      29.524  17.485 -24.411  0.00  0.00     0.072 A 
ATOM      8  O   UNL d   1      30.038  15.676 -23.610  0.00  0.00    -0.217 OA
ATOM      9  O   UNL d   1      29.025  15.563 -23.232  0.00  0.00    -0.217 OA
ATOM     10  O   UNL d   1      28.711  18.535 -24.714  0.00  0.00    -0.267 OA
ATOM     11  C   UNL d   1      28.358  15.527 -23.004  0.00  0.00     0.013 A 
ATOM     12  C   UNL d   1      27.277  16.725 -23.302  0.00  0.00     0.018 A 
ATOM     13  C   UNL d   1      27.582  15.456 -22.722  0.00  0.00     0.001 A 
ATOM     14  C   UNL d   1      27.049  16.066 -22.880  0.00  0.00     0.002 A 
ATOM     15  H   UNL d   1      27.522  17.904 -24.006  0.00  0.00     0.169 HD
ENDROOT
BRANCH   3  16
ATOM     16  C   UNL d   1      30.629  16.635 -24.305  0.00  0.00     0.013 A 
ATOM     17  C   UNL d   1      31.225  17.024 -23.883  0.00  0.00     0.027 A 
ATOM     18  C   UNL d   1      32.016  16.870 -24.060  0.00  0.00     0.116 A 
ATOM     19  C   UNL d   1      32.213  16.341 -24.644  0.00  0.00     0.116 A 
ATOM     20  C   UNL d   1      31.620  15.946 -25.073  0.00  0.00     0.026 A 
ATOM     21  C   UNL d   1      30.823  16.092 -24.905  0.00  0.00     0.003 A 
BRANCH  18  22
ATOM     22  O   UNL d   1      32.613  17.260 -23.637  0.00  0.00    -0.326 OA
ATOM     23  C   UNL d   1      32.502  18.031 -23.370  0.00  0.00     0.181 C 
ENDBRANCH  18  22
BRANCH  19  24
ATOM     24  O   UNL d   1      33.012  16.189 -24.818  0.00  0.00    -0.326 OA
ATOM     25  C   UNL d   1      33.240  15.455 -25.097  0.00  0.00     0.181 C 
ENDBRANCH  19  24
ENDBRANCH   3  16
TORSDOF 3
ENDMDL
MODEL 3
REMARK VINA RESULT:      -1.1      1.510      2.145
REMARK  3 active torsions:
REMARK  status: ('A' for Active; 'I' for Inactive)
REMARK    1  A    between atoms: C_8  and  C_3 
REMARK    2  A    between atoms: O_18  and  C_12 
REMARK    3  A    between atoms: O_19  and  C_13 
ROOT
ATOM      1  S   UNL d   1      32.814  21.249 -21.523  0.00  0.00     0.211 S 
ATOM      2  C   UNL d   1      32.752  22.031 -21.138  0.00  0.00     0.103 A 
ATOM      3  C   UNL d   1      32.967  21.081 -22.345  0.00  0.00     0.093 A 
ATOM      4  N   UNL d   1      32.967  22.852 -22.220  0.00  0.00    -0.321 N 
ATOM      5  C   UNL d   1      33.083  22.328 -22.869  0.00  0.00     0.258 A 
ATOM      6  C   UNL d   1      32.832  22.754 -21.513  0.00  0.00     0.070 A 
ATOM      7  C   UNL d   1      33.087  21.624 -22.939  0.00  0.00     0.072 A 
ATOM      8  O   UNL d   1      32.757  20.481 -21.277  0.00  0.00    -0.217 OA
ATOM      9  O   UNL d   1      32.657  21.385 -20.682  0.00  0.00    -0.217 OA
ATOM     10  O   UNL d   1      33.239  22.768 -23.663  0.00  0.00    -0.267 OA
ATOM     11  C   UNL d   1      32.599  21.996 -20.332  0.00  0.00     0.013 A 
ATOM     12  C   UNL d   1      32.761  23.444 -21.085  0.00  0.00     0.018 A 
ATOM     13  C   UNL d   1      32.526  22.695 -19.893  0.00  0.00     0.001 A 
ATOM     14  C   UNL d   1      32.610  23.416 -20.285  0.00  0.00     0.002 A 
ATOM     15  H   UNL d   1      33.020  23.647 -22.441  0.00  0.00     0.169 HD
ENDROOT
BRANCH   3  16
ATOM     16  C   UNL d   1      32.997  20.280 -22.563  0.00  0.00     0.013 A 
ATOM     17  C   UNL d   1      32.816  20.052 -23.337  0.00  0.00     0.027 A 
ATOM     18  C   UNL d   1      32.848  19.254 -23.545  0.00  0.00     0.116 A 
ATOM     19  C   UNL d   1      33.057  18.692 -22.997  0.00  0.00     0.116 A 
ATOM     20  C   UNL d   1      33.241  18.914 -22.216  0.00  0.00     0.026 A 
ATOM     21  C   UNL d   1      33.212  19.711 -21.995  0.00  0.00     0.003 A 
BRANCH  18  22
ATOM     22  O   UNL d   1      32.666  19.026 -24.321  0.00  0.00    -0.326 OA
ATOM     23  C   UNL d   1      33.006  19.415 -24.964  0.00  0.00     0.181 C 
ENDBRANCH  18  22
BRANCH  19  24
ATOM     24  O   UNL d   1      33.088  17.889 -23.211  0.00  0.00    -0.326 OA
ATOM     25  C   UNL d   1      33.147  17.312 -22.636  0.00  0.00     0.181 C 
ENDBRANCH  19  24
ENDBRANCH   3  16
TORSDOF 3
ENDMDL
MODEL 4
REMARK VINA RESULT:      -1.0      1.459      4.270
REMARK  3 active torsions:
REMARK  status: ('A' for Active; 'I' for Inactive)
REMARK    1  A    between atoms: C_8  and  C_3 
REMARK    2  A    between atoms: O_18  and  C_12 
REMARK    3  A    between atoms: O_19  and  C_13 
ROOT
ATOM      1  S   UNL d   1      33.087  19.841 -22.366  0.00  0.00     0.211 S 
ATOM      2  C   UNL d   1      33.127  19.183 -22.939  0.00  0.00     0.103 A 
ATOM      3  C   UNL d   1      33.098  20.678 -22.527  0.00  0.00     0.093 A 
ATOM      4  N   UNL d   1      33.208  19.891 -24.115  0.00  0.00    -0.321 N 
ATOM      5  C   UNL d   1      33.192  20.699 -23.882  0.00  0.00     0.258 A 
ATOM      6  C   UNL d   1      33.183  19.262 -23.751  0.00  0.00     0.070 A 
ATOM      7  C   UNL d   1      33.149  21.031 -23.259  0.00  0.00     0.072 A 
ATOM      8  O   UNL d   1      33.031  19.900 -21.561  0.00  0.00    -0.217 OA
ATOM      9  O   UNL d   1      33.073  18.998 -22.167  0.00  0.00    -0.217 OA
ATOM     10  O   UNL d   1      33.241  21.280 -24.595  0.00  0.00    -0.267 OA
ATOM     11  C   UNL d   1      33.103  18.438 -22.595  0.00  0.00     0.013 A 
ATOM     12  C   UNL d   1      33.215  18.599 -24.223  0.00  0.00     0.018 A 
ATOM     13  C   UNL d   1      33.136  17.760 -23.072  0.00  0.00     0.001 A 
ATOM     14  C   UNL d   1      33.192  17.856 -23.889  0.00  0.00     0.002 A 
ATOM     15  H   UNL d   1      33.265  19.798 -24.935  0.00  0.00     0.169 HD
ENDROOT
BRANCH   3  16
ATOM     16  C   UNL d   1      33.053  21.186 -21.872  0.00  0.00     0.013 A 
ATOM     17  C   UNL d   1      32.822  21.974 -21.972  0.00  0.00     0.027 A 
ATOM     18  C   UNL d   1      32.780  22.472 -21.314  0.00  0.00     0.116 A 
ATOM     19  C   UNL d   1      32.962  22.194 -20.573  0.00  0.00     0.116 A 
ATOM     20  C   UNL d   1      33.195  21.403 -20.465  0.00  0.00     0.026 A 
ATOM     21  C   UNL d   1      33.241  20.894 -21.116  0.00  0.00     0.003 A 
BRANCH  18  22
ATOM     22  O   UNL d   1      32.549  23.262 -21.414  0.00  0.00    -0.326 OA
ATOM     23  C   UNL d   1      31.978  23.465 -21.973  0.00  0.00     0.181 C 
ENDBRANCH  18  22
BRANCH  19  24
ATOM     24  O   UNL d   1      32.918  22.700 -19.914  0.00  0.00    -0.326 OA
ATOM     25  C   UNL d   1      33.141  22.432 -19.175  0.00  0.00     0.181 C 
ENDBRANCH  19  24
ENDBRANCH   3  16
TORSDOF 3
ENDMDL
MODEL 5
REMARK VINA RESULT:       0.3      1.830      3.194
REMARK  3 active torsions:
REMARK  status: ('A' for Active; 'I' for Inactive)
REMARK    1  A    between atoms: C_8  and  C_3 
REMARK    2  A    between atoms: O_18  and  C_12 
REMARK    3  A    between atoms: O_19  and  C_13 
ROOT
ATOM      1  S   UNL d   1      32.896  21.748 -21.359  0.00  0.00     0.211 S 
ATOM      2  C   UNL d   1      32.828  22.261 -20.655  0.00  0.00     0.103 A 
ATOM      3  C   UNL d   1      33.032  20.906 -21.382  0.00  0.00     0.093 A 
ATOM      4  N   UNL d   1      33.003  21.330 -19.658  0.00  0.00    -0.321 N 
ATOM      5  C   UNL d   1      33.112  20.600 -20.061  0.00  0.00     0.258 A 
ATOM      6  C   UNL d   1      32.886  22.014 -19.878  0.00  0.00     0.070 A 
ATOM      7  C   UNL d   1      33.127  20.411 -20.743  0.00  0.00     0.072 A 
ATOM      8  O   UNL d   1      32.859  21.861 -22.159  0.00  0.00    -0.217 OA
ATOM      9  O   UNL d   1      32.756  22.603 -21.371  0.00  0.00    -0.217 OA
ATOM     10  O   UNL d   1      33.241  19.889 -19.490  0.00  0.00    -0.267 OA
ATOM     11  C   UNL d   1      32.696  23.052 -20.830  0.00  0.00     0.013 A 
ATOM     12  C   UNL d   1      32.813  22.553 -19.272  0.00  0.00     0.018 A 
ATOM     13  C   UNL d   1      32.620  23.605 -20.217  0.00  0.00     0.001 A 
ATOM     14  C   UNL d   1      32.681  23.340 -19.438  0.00  0.00     0.002 A 
ATOM     15  H   UNL d   1      33.035  21.247 -18.836  0.00  0.00     0.169 HD
ENDROOT
BRANCH   3  16
ATOM     16  C   UNL d   1      33.072  20.555 -22.133  0.00  0.00     0.013 A 
ATOM     17  C   UNL d   1      32.984  19.736 -22.215  0.00  0.00     0.027 A 
ATOM     18  C   UNL d   1      33.025  19.395 -22.966  0.00  0.00     0.116 A 
ATOM     19  C   UNL d   1      33.151  19.856 -23.623  0.00  0.00     0.116 A 
ATOM     20  C   UNL d   1      33.241  20.680 -23.548  0.00  0.00     0.026 A 
ATOM     21  C   UNL d   1      33.202  21.034 -22.801  0.00  0.00     0.003 A 
BRANCH  18  22
ATOM     22  O   UNL d   1      32.936  18.575 -23.048  0.00  0.00    -0.326 OA
ATOM     23  C   UNL d   1      33.081  18.072 -22.411  0.00  0.00     0.181 C 
ENDBRANCH  18  22
BRANCH  19  24
ATOM     24  O   UNL d   1      33.192  19.508 -24.377  0.00  0.00    -0.326 OA
ATOM     25  C   UNL d   1      33.092  19.965 -25.047  0.00  0.00     0.181 C 
ENDBRANCH  19  24
ENDBRANCH   3  16
TORSDOF 3
ENDMDL
