MODEL 1
REMARK VINA RESULT:       4.1      0.000      0.000
REMARK  4 active torsions:
REMARK  status: ('A' for Active; 'I' for Inactive)
REMARK    1  A    between atoms: N_4  and  C_1 
REMARK    2  A    between atoms: N_2  and  N_4 
REMARK    3  A    between atoms: C_6  and  N_2 
REMARK    4  A    between atoms: C_8  and  C_6 
ROOT
ATOM      1  C   UNL d   1      14.594  12.479  -1.477  0.00  0.00     0.008 A 
ATOM      2  C   UNL d   1      13.907  12.025  -1.462  0.00  0.00     0.021 A 
ATOM      3  C   UNL d   1      14.954  12.718  -0.754  0.00  0.00     0.035 A 
ATOM      4 BR   UNL d   1      15.653  13.180  -0.770  0.00  0.00    -0.049 Br
ATOM      5  C   UNL d   1      13.928  12.041  -0.022  0.00  0.00     0.001 A 
ATOM      6  C   UNL d   1      14.614  12.495  -0.037  0.00  0.00     0.007 A 
ATOM      7  C   UNL d   1      13.577  11.808  -0.745  0.00  0.00     0.002 A 
ENDROOT
BRANCH   2   8
ATOM      8  C   UNL d   1      13.538  11.779  -2.180  0.00  0.00     0.122 C 
BRANCH   8   9
ATOM      9  N   UNL d   1      13.714  12.165  -2.909  0.00  0.00    -0.144 NA
BRANCH   9  10
ATOM     10  N   UNL d   1      13.487  11.820  -3.631  0.00  0.00    -0.115 NA
BRANCH  10  11
ATOM     11  C   UNL d   1      13.174  12.279  -4.222  0.00  0.00     0.260 C 
ATOM     12  S   UNL d   1      12.837  11.924  -4.910  0.00  0.00    -0.034 SA
ATOM     13  N   UNL d   1      13.180  13.087  -4.163  0.00  0.00    -0.113 N 
ENDBRANCH  10  11
ENDBRANCH   9  10
ENDBRANCH   8   9
ENDBRANCH   2   8
TORSDOF 4
ENDMDL
