MODEL 1
REMARK VINA RESULT:      -3.5      0.000      0.000
REMARK  7 active torsions:
REMARK  status: ('A' for Active; 'I' for Inactive)
REMARK    1  A    between atoms: C_2  and  P_1 
REMARK    2  A    between atoms: O_3  and  P_1 
REMARK    3  A    between atoms: C_4  and  P_1 
REMARK    4  A    between atoms: C_12  and  C_2 
REMARK    5  A    between atoms: C_13  and  O_3 
REMARK    6  A    between atoms: N_7  and  C_6 
REMARK    7  A    between atoms: C_15  and  C_13 
ROOT
ATOM      1  P   UNL d   1      58.784  -0.168  29.806  0.00  0.00     0.307 P 
ATOM      2  O   UNL d   1      58.694   0.618  30.150  0.00  0.00    -0.277 OA
ENDROOT
BRANCH   1   3
ATOM      3  C   UNL d   1      59.385   0.126  29.270  0.00  0.00     0.253 C 
ATOM      4  O   UNL d   1      59.280   0.044  28.456  0.00  0.00    -0.281 OA
BRANCH   3   5
ATOM      5  C   UNL d   1      60.065   0.488  29.562  0.00  0.00     0.044 C 
ATOM      6  C   UNL d   1      60.692   0.657  29.054  0.00  0.00     0.004 C 
ATOM      7  C   UNL d   1      60.118   0.682  30.357  0.00  0.00     0.004 C 
ENDBRANCH   3   5
ENDBRANCH   1   3
BRANCH   1   8
ATOM      8  O   UNL d   1      58.186  -0.437  30.346  0.00  0.00    -0.279 OA
BRANCH   8   9
ATOM      9  C   UNL d   1      57.649   0.115  30.714  0.00  0.00     0.124 C 
BRANCH   9  10
ATOM     10  C   UNL d   1      57.218  -0.080  31.383  0.00  0.00     0.025 A 
ATOM     11  C   UNL d   1      57.095   0.483  31.973  0.00  0.00     0.002 A 
ATOM     12  C   UNL d   1      56.658   0.291  32.653  0.00  0.00     0.000 A 
ATOM     13  C   UNL d   1      56.347  -0.467  32.737  0.00  0.00     0.000 A 
ATOM     14  C   UNL d   1      56.472  -1.032  32.142  0.00  0.00     0.000 A 
ATOM     15  C   UNL d   1      56.906  -0.838  31.467  0.00  0.00     0.002 A 
ENDBRANCH   9  10
ENDBRANCH   8   9
ENDBRANCH   1   8
BRANCH   1  16
ATOM     16  C   UNL d   1      58.849  -0.958  29.486  0.00  0.00     0.061 A 
ATOM     17  C   UNL d   1      59.287  -1.518  29.900  0.00  0.00     0.007 A 
ATOM     18  C   UNL d   1      59.360  -2.281  29.609  0.00  0.00     0.018 A 
ATOM     19  C   UNL d   1      58.994  -2.487  28.899  0.00  0.00     0.064 A 
ATOM     20  C   UNL d   1      58.556  -1.927  28.485  0.00  0.00     0.018 A 
ATOM     21  C   UNL d   1      58.484  -1.160  28.780  0.00  0.00     0.007 A 
BRANCH  19  22
ATOM     22  N   UNL d   1      59.077  -3.290  28.602  0.00  0.00    -0.301 N 
ATOM     23  C   UNL d   1      58.397  -3.743  28.461  0.00  0.00     0.100 C 
ATOM     24  C   UNL d   1      59.826  -3.614  28.455  0.00  0.00     0.100 C 
ENDBRANCH  19  22
ENDBRANCH   1  16
TORSDOF 7
ENDMDL
MODEL 2
REMARK VINA RESULT:      -2.4      0.446      1.113
REMARK  7 active torsions:
REMARK  status: ('A' for Active; 'I' for Inactive)
REMARK    1  A    between atoms: C_2  and  P_1 
REMARK    2  A    between atoms: O_3  and  P_1 
REMARK    3  A    between atoms: C_4  and  P_1 
REMARK    4  A    between atoms: C_12  and  C_2 
REMARK    5  A    between atoms: C_13  and  O_3 
REMARK    6  A    between atoms: N_7  and  C_6 
REMARK    7  A    between atoms: C_15  and  C_13 
ROOT
ATOM      1  P   UNL d   1      58.464  -0.181  30.212  0.00  0.00     0.307 P 
ATOM      2  O   UNL d   1      58.301   0.563  30.616  0.00  0.00    -0.277 OA
ENDROOT
BRANCH   1   3
ATOM      3  C   UNL d   1      59.000   0.217  29.675  0.00  0.00     0.253 C 
ATOM      4  O   UNL d   1      58.797   0.292  28.879  0.00  0.00    -0.281 OA
BRANCH   3   5
ATOM      5  C   UNL d   1      59.714   0.524  29.948  0.00  0.00     0.044 C 
ATOM      6  C   UNL d   1      59.817   0.673  30.753  0.00  0.00     0.004 C 
ATOM      7  C   UNL d   1      60.322   0.682  29.422  0.00  0.00     0.004 C 
ENDBRANCH   3   5
ENDBRANCH   1   3
BRANCH   1   8
ATOM      8  O   UNL d   1      57.928  -0.555  30.755  0.00  0.00    -0.279 OA
BRANCH   8   9
ATOM      9  C   UNL d   1      57.216  -0.158  31.010  0.00  0.00     0.124 C 
BRANCH   9  10
ATOM     10  C   UNL d   1      56.863  -0.321  31.731  0.00  0.00     0.025 A 
ATOM     11  C   UNL d   1      56.465  -1.034  31.844  0.00  0.00     0.002 A 
ATOM     12  C   UNL d   1      56.105  -1.204  32.572  0.00  0.00     0.000 A 
ATOM     13  C   UNL d   1      56.147  -0.656  33.186  0.00  0.00     0.000 A 
ATOM     14  C   UNL d   1      56.549   0.062  33.070  0.00  0.00     0.000 A 
ATOM     15  C   UNL d   1      56.905   0.227  32.345  0.00  0.00     0.002 A 
ENDBRANCH   9  10
ENDBRANCH   8   9
ENDBRANCH   1   8
BRANCH   1  16
ATOM     16  C   UNL d   1      58.604  -0.934  29.833  0.00  0.00     0.061 A 
ATOM     17  C   UNL d   1      58.249  -1.085  29.106  0.00  0.00     0.007 A 
ATOM     18  C   UNL d   1      58.372  -1.802  28.728  0.00  0.00     0.018 A 
ATOM     19  C   UNL d   1      58.852  -2.375  29.079  0.00  0.00     0.064 A 
ATOM     20  C   UNL d   1      59.207  -2.224  29.806  0.00  0.00     0.018 A 
ATOM     21  C   UNL d   1      59.082  -1.501  30.184  0.00  0.00     0.007 A 
BRANCH  19  22
ATOM     22  N   UNL d   1      58.975  -3.124  28.675  0.00  0.00    -0.301 N 
ATOM     23  C   UNL d   1      59.743  -3.346  28.455  0.00  0.00     0.100 C 
ATOM     24  C   UNL d   1      58.336  -3.624  28.503  0.00  0.00     0.100 C 
ENDBRANCH  19  22
ENDBRANCH   1  16
TORSDOF 7
ENDMDL
MODEL 3
REMARK VINA RESULT:      -1.7      1.294      3.747
REMARK  7 active torsions:
REMARK  status: ('A' for Active; 'I' for Inactive)
REMARK    1  A    between atoms: C_2  and  P_1 
REMARK    2  A    between atoms: O_3  and  P_1 
REMARK    3  A    between atoms: C_4  and  P_1 
REMARK    4  A    between atoms: C_12  and  C_2 
REMARK    5  A    between atoms: C_13  and  O_3 
REMARK    6  A    between atoms: N_7  and  C_6 
REMARK    7  A    between atoms: C_15  and  C_13 
ROOT
ATOM      1  P   UNL d   1      59.542  -0.740  29.229  0.00  0.00     0.307 P 
ATOM      2  O   UNL d   1      60.156  -0.911  28.648  0.00  0.00    -0.277 OA
ENDROOT
BRANCH   1   3
ATOM      3  C   UNL d   1      59.840   0.058  29.322  0.00  0.00     0.253 C 
ATOM      4  O   UNL d   1      59.308   0.682  29.417  0.00  0.00    -0.281 OA
BRANCH   3   5
ATOM      5  C   UNL d   1      60.651   0.206  29.316  0.00  0.00     0.044 C 
ATOM      6  C   UNL d   1      61.092   0.100  30.004  0.00  0.00     0.004 C 
ATOM      7  C   UNL d   1      61.018   0.457  28.628  0.00  0.00     0.004 C 
ENDBRANCH   3   5
ENDBRANCH   1   3
BRANCH   1   8
ATOM      8  O   UNL d   1      59.264  -1.536  29.122  0.00  0.00    -0.279 OA
BRANCH   8   9
ATOM      9  C   UNL d   1      59.653  -2.064  28.576  0.00  0.00     0.124 C 
BRANCH   9  10
ATOM     10  C   UNL d   1      59.499  -2.869  28.567  0.00  0.00     0.025 A 
ATOM     11  C   UNL d   1      58.728  -3.143  28.663  0.00  0.00     0.002 A 
ATOM     12  C   UNL d   1      58.566  -3.957  28.656  0.00  0.00     0.000 A 
ATOM     13  C   UNL d   1      59.183  -4.494  28.552  0.00  0.00     0.000 A 
ATOM     14  C   UNL d   1      59.959  -4.217  28.455  0.00  0.00     0.000 A 
ATOM     15  C   UNL d   1      60.116  -3.406  28.463  0.00  0.00     0.002 A 
ENDBRANCH   9  10
ENDBRANCH   8   9
ENDBRANCH   1   8
BRANCH   1  16
ATOM     16  C   UNL d   1      58.923  -0.602  29.802  0.00  0.00     0.061 A 
ATOM     17  C   UNL d   1      58.197  -0.317  29.540  0.00  0.00     0.007 A 
ATOM     18  C   UNL d   1      57.591  -0.180  30.075  0.00  0.00     0.018 A 
ATOM     19  C   UNL d   1      57.710  -0.327  30.878  0.00  0.00     0.064 A 
ATOM     20  C   UNL d   1      58.436  -0.612  31.140  0.00  0.00     0.018 A 
ATOM     21  C   UNL d   1      59.044  -0.750  30.599  0.00  0.00     0.007 A 
BRANCH  19  22
ATOM     22  N   UNL d   1      57.068  -0.180  31.431  0.00  0.00    -0.301 N 
ATOM     23  C   UNL d   1      56.897   0.600  31.656  0.00  0.00     0.100 C 
ATOM     24  C   UNL d   1      56.621  -0.805  31.740  0.00  0.00     0.100 C 
ENDBRANCH  19  22
ENDBRANCH   1  16
TORSDOF 7
ENDMDL
MODEL 4
REMARK VINA RESULT:      -1.3      1.266      3.669
REMARK  7 active torsions:
REMARK  status: ('A' for Active; 'I' for Inactive)
REMARK    1  A    between atoms: C_2  and  P_1 
REMARK    2  A    between atoms: O_3  and  P_1 
REMARK    3  A    between atoms: C_4  and  P_1 
REMARK    4  A    between atoms: C_12  and  C_2 
REMARK    5  A    between atoms: C_13  and  O_3 
REMARK    6  A    between atoms: N_7  and  C_6 
REMARK    7  A    between atoms: C_15  and  C_13 
ROOT
ATOM      1  P   UNL d   1      58.829  -0.667  29.456  0.00  0.00     0.307 P 
ATOM      2  O   UNL d   1      59.361  -0.748  28.782  0.00  0.00    -0.277 OA
ENDROOT
BRANCH   1   3
ATOM      3  C   UNL d   1      58.955   0.180  29.467  0.00  0.00     0.253 C 
ATOM      4  O   UNL d   1      58.332   0.682  29.668  0.00  0.00    -0.281 OA
BRANCH   3   5
ATOM      5  C   UNL d   1      59.693   0.495  29.277  0.00  0.00     0.044 C 
ATOM      6  C   UNL d   1      59.883   0.652  28.490  0.00  0.00     0.004 C 
ATOM      7  C   UNL d   1      60.237   0.653  29.869  0.00  0.00     0.004 C 
ENDBRANCH   3   5
ENDBRANCH   1   3
BRANCH   1   8
ATOM      8  O   UNL d   1      58.718  -1.509  29.427  0.00  0.00    -0.279 OA
BRANCH   8   9
ATOM      9  C   UNL d   1      58.783  -1.934  28.689  0.00  0.00     0.124 C 
BRANCH   9  10
ATOM     10  C   UNL d   1      58.917  -2.742  28.664  0.00  0.00     0.025 A 
ATOM     11  C   UNL d   1      59.669  -3.040  28.821  0.00  0.00     0.002 A 
ATOM     12  C   UNL d   1      59.811  -3.858  28.796  0.00  0.00     0.000 A 
ATOM     13  C   UNL d   1      59.194  -4.373  28.613  0.00  0.00     0.000 A 
ATOM     14  C   UNL d   1      58.437  -4.070  28.455  0.00  0.00     0.000 A 
ATOM     15  C   UNL d   1      58.300  -3.257  28.481  0.00  0.00     0.002 A 
ENDBRANCH   9  10
ENDBRANCH   8   9
ENDBRANCH   1   8
BRANCH   1  16
ATOM     16  C   UNL d   1      58.296  -0.622  30.123  0.00  0.00     0.061 A 
ATOM     17  C   UNL d   1      58.602  -0.713  30.882  0.00  0.00     0.007 A 
ATOM     18  C   UNL d   1      58.107  -0.672  31.534  0.00  0.00     0.018 A 
ATOM     19  C   UNL d   1      57.299  -0.539  31.429  0.00  0.00     0.064 A 
ATOM     20  C   UNL d   1      56.993  -0.448  30.670  0.00  0.00     0.018 A 
ATOM     21  C   UNL d   1      57.494  -0.490  30.016  0.00  0.00     0.007 A 
BRANCH  19  22
ATOM     22  N   UNL d   1      56.788  -0.498  32.118  0.00  0.00    -0.301 N 
ATOM     23  C   UNL d   1      56.725   0.216  32.536  0.00  0.00     0.100 C 
ATOM     24  C   UNL d   1      56.358  -1.161  32.369  0.00  0.00     0.100 C 
ENDBRANCH  19  22
ENDBRANCH   1  16
TORSDOF 7
ENDMDL
