MODEL 1
REMARK VINA RESULT:      90.6      0.000      0.000
REMARK  4 active torsions:
REMARK  status: ('A' for Active; 'I' for Inactive)
REMARK    1  A    between atoms: C_13  and  N_5 
REMARK    2  A    between atoms: C_14  and  C_6 
REMARK    3  A    between atoms: C_21  and  C_13 
REMARK    4  A    between atoms: O_25  and  C_20 
ROOT
ATOM      1  C   UNL d   1     -57.172 -99.173 -44.892  0.00  0.00     0.080 A 
ATOM      2  C   UNL d   1     -56.848 -99.313 -44.138  0.00  0.00     0.267 A 
ATOM      3  C   UNL d   1     -56.684 -99.122 -45.554  0.00  0.00     0.108 A 
ATOM      4  C   UNL d   1     -58.324 -98.946 -45.715  0.00  0.00     0.111 A 
ATOM      5  N   UNL d   1     -56.025 -99.399 -44.071  0.00  0.00    -0.273 N 
ATOM      6  C   UNL d   1     -57.990 -99.086 -44.966  0.00  0.00     0.020 A 
ATOM      7  C   UNL d   1     -57.826 -98.895 -46.382  0.00  0.00     0.213 A 
ATOM      8  C   UNL d   1     -55.869 -99.209 -45.478  0.00  0.00     0.043 A 
ATOM      9  O   UNL d   1     -57.013 -98.983 -46.297  0.00  0.00    -0.287 OA
ATOM     10  C   UNL d   1     -55.539 -99.348 -44.736  0.00  0.00     0.069 A 
ATOM     11  C   UNL d   1     -59.137 -98.857 -45.801  0.00  0.00     0.105 C 
ATOM     12  N   UNL d   1     -59.958 -98.771 -45.871  0.00  0.00    -0.191 NA
ATOM     13  O   UNL d   1     -57.333 -99.364 -43.473  0.00  0.00    -0.267 OA
ATOM     14  N   UNL d   1     -58.154 -98.756 -47.127  0.00  0.00    -0.120 N 
ATOM     15  C   UNL d   1     -54.717 -99.437 -44.655  0.00  0.00     0.019 C 
ENDROOT
BRANCH   6  16
ATOM     16  C   UNL d   1     -58.483 -99.136 -44.304  0.00  0.00     0.001 A 
ATOM     17  C   UNL d   1     -59.185 -99.561 -44.342  0.00  0.00     0.002 A 
ATOM     18  C   UNL d   1     -59.674 -99.608 -43.679  0.00  0.00     0.024 A 
ATOM     19  C   UNL d   1     -59.456 -99.229 -42.982  0.00  0.00     0.094 A 
ATOM     20  C   UNL d   1     -58.743 -98.798 -42.941  0.00  0.00     0.024 A 
ATOM     21  C   UNL d   1     -58.262 -98.757 -43.610  0.00  0.00     0.002 A 
BRANCH  19  22
ATOM     22  O   UNL d   1     -59.943 -99.275 -42.317  0.00  0.00    -0.328 OA
ATOM     23  C   UNL d   1     -59.687 -99.676 -41.644  0.00  0.00     0.181 C 
ENDBRANCH  19  22
ENDBRANCH   6  16
BRANCH   5  24
ATOM     24  C   UNL d   1     -55.690 -99.540 -43.322  0.00  0.00     0.083 C 
BRANCH  24  25
ATOM     25  C   UNL d   1     -55.395-100.289 -43.120  0.00  0.00     0.021 A 
ATOM     26  C   UNL d   1     -55.029-100.415 -42.394  0.00  0.00     0.022 A 
ATOM     27  C   UNL d   1     -54.739-101.164 -42.206  0.00  0.00     0.099 A 
ATOM     28  N   UNL d   1     -54.815-101.783 -42.740  0.00  0.00    -0.242 NA
ATOM     29  C   UNL d   1     -55.183-101.656 -43.471  0.00  0.00     0.099 A 
ATOM     30  C   UNL d   1     -55.472-100.909 -43.659  0.00  0.00     0.022 A 
ENDBRANCH  24  25
ENDBRANCH   5  24
TORSDOF 4
ENDMDL
