MODEL 1
REMARK VINA RESULT:       3.5      0.000      0.000
REMARK  6 active torsions:
REMARK  status: ('A' for Active; 'I' for Inactive)
REMARK    1  A    between atoms: C_7  and  C_1 
REMARK    2  A    between atoms: S_9  and  C_2 
REMARK    3  A    between atoms: C_11  and  C_4 
REMARK    4  A    between atoms: C_15  and  S_9 
REMARK    5  A    between atoms: C_12  and  C_15 
REMARK    6  A    between atoms: O_21  and  C_12 
ROOT
ATOM      1  C   UNL d   1     -41.795-122.473 -52.282  0.00  0.00     0.045 A 
ATOM      2  C   UNL d   1     -41.700-122.046 -52.974  0.00  0.00     0.112 A 
ATOM      3  C   UNL d   1     -41.510-121.293 -51.514  0.00  0.00     0.057 A 
ATOM      4  C   UNL d   1     -41.701-122.106 -51.550  0.00  0.00     0.008 A 
ATOM      5  C   UNL d   1     -41.415-120.865 -52.206  0.00  0.00     0.085 A 
ATOM      6  N   UNL d   1     -41.510-121.241 -52.950  0.00  0.00    -0.239 NA
ATOM      7  C   UNL d   1     -41.418-120.934 -50.788  0.00  0.00     0.197 A 
ATOM      8  O   UNL d   1     -41.514-121.368 -50.086  0.00  0.00    -0.286 OA
ATOM      9  C   UNL d   1     -41.227-120.069 -52.188  0.00  0.00     0.019 A 
ATOM     10  C   UNL d   1     -41.229-120.132 -50.759  0.00  0.00     0.042 A 
ATOM     11  C   UNL d   1     -41.135-119.704 -51.451  0.00  0.00     0.005 A 
ENDROOT
BRANCH   4  12
ATOM     12  C   UNL d   1     -41.795-122.530 -50.863  0.00  0.00     0.000 A 
ATOM     13  C   UNL d   1     -42.531-122.563 -50.498  0.00  0.00     0.000 A 
ATOM     14  C   UNL d   1     -42.625-122.990 -49.806  0.00  0.00     0.000 A 
ATOM     15  C   UNL d   1     -41.984-123.385 -49.478  0.00  0.00     0.000 A 
ATOM     16  C   UNL d   1     -41.236-123.356 -49.843  0.00  0.00     0.000 A 
ATOM     17  C   UNL d   1     -42.079-123.817 -48.780  0.00  0.00     0.000 C 
ATOM     18  C   UNL d   1     -41.141-122.929 -50.535  0.00  0.00     0.000 A 
ENDBRANCH   4  12
BRANCH   1  19
ATOM     19  C   UNL d   1     -41.988-123.291 -52.321  0.00  0.00     0.124 C 
ATOM     20  N   UNL d   1     -41.515-123.799 -52.778  0.00  0.00    -0.146 N 
ENDBRANCH   1  19
BRANCH   2  21
ATOM     21  S   UNL d   1     -41.794-122.414 -53.742  0.00  0.00    -0.062 SA
BRANCH  21  22
ATOM     22  C   UNL d   1     -42.102-121.979 -54.360  0.00  0.00     0.105 C 
BRANCH  22  23
ATOM     23  C   UNL d   1     -42.036-122.262 -55.138  0.00  0.00     0.303 C 
ATOM     24  O   UNL d   1     -41.453-121.973 -55.647  0.00  0.00    -0.259 OA
BRANCH  23  25
ATOM     25  O   UNL d   1     -42.557-122.834 -55.405  0.00  0.00    -0.295 OA
ATOM     26  C   UNL d   1     -43.008-122.692 -56.088  0.00  0.00     0.185 C 
ENDBRANCH  23  25
ENDBRANCH  22  23
ENDBRANCH  21  22
ENDBRANCH   2  21
TORSDOF 6
ENDMDL
