MODEL 1
REMARK VINA RESULT:       4.6      0.000      0.000
REMARK  5 active torsions:
REMARK  status: ('A' for Active; 'I' for Inactive)
REMARK    1  A    between atoms: O_4  and  C_1 
REMARK    2  A    between atoms: C_9  and  C_2 
REMARK    3  A    between atoms: C_5  and  O_4 
REMARK    4  A    between atoms: C_13  and  C_5 
REMARK    5  A    between atoms: N_10  and  C_9 
ROOT
ATOM      1  C   UNL d   1     -41.337-122.227 -51.664  0.00  0.00     0.122 A 
ATOM      2  C   UNL d   1     -41.383-122.490 -52.438  0.00  0.00     0.043 A 
ATOM      3  C   UNL d   1     -41.266-121.427 -51.503  0.00  0.00     0.105 A 
ATOM      4  C   UNL d   1     -41.241-120.883 -52.124  0.00  0.00     0.030 A 
ATOM      5  C   UNL d   1     -41.287-121.146 -52.898  0.00  0.00     0.059 A 
ATOM      6  C   UNL d   1     -41.358-121.946 -53.059  0.00  0.00     0.015 A 
ATOM      7  N   UNL d   1     -41.220-121.170 -50.733  0.00  0.00    -0.242 NA
ATOM      8 CL   UNL d   1     -41.260-120.587 -53.497  0.00  0.00    -0.082 Cl
ATOM      9  C   UNL d   1     -41.170-120.089 -51.968  0.00  0.00     0.004 A 
ATOM     10  C   UNL d   1     -41.149-120.371 -50.573  0.00  0.00     0.099 A 
ATOM     11  C   UNL d   1     -41.123-119.827 -51.194  0.00  0.00     0.021 A 
ENDROOT
BRANCH   1  12
ATOM     12  O   UNL d   1     -41.358-122.708 -51.098  0.00  0.00    -0.271 OA
BRANCH  12  13
ATOM     13  C   UNL d   1     -41.970-123.279 -50.633  0.00  0.00     0.300 C 
ATOM     14  O   UNL d   1     -42.633-123.740 -51.217  0.00  0.00    -0.259 OA
BRANCH  13  15
ATOM     15  C   UNL d   1     -41.935-123.368 -49.813  0.00  0.00     0.064 A 
ATOM     16  C   UNL d   1     -41.269-123.719 -49.469  0.00  0.00     0.005 A 
ATOM     17  C   UNL d   1     -41.236-123.808 -48.646  0.00  0.00     0.000 A 
ATOM     18  C   UNL d   1     -41.865-123.548 -48.165  0.00  0.00     0.000 A 
ATOM     19  C   UNL d   1     -42.525-123.200 -48.521  0.00  0.00     0.000 A 
ATOM     20  C   UNL d   1     -42.558-123.111 -49.345  0.00  0.00     0.005 A 
ENDBRANCH  13  15
ENDBRANCH  12  13
ENDBRANCH   1  12
BRANCH   2  21
ATOM     21  C   UNL d   1     -41.463-123.310 -52.807  0.00  0.00     0.082 C 
BRANCH  21  22
ATOM     22  N   UNL d   1     -41.649-123.392 -53.590  0.00  0.00    -0.299 N 
ATOM     23  C   UNL d   1     -41.123-123.732 -54.106  0.00  0.00     0.107 A 
ATOM     24  C   UNL d   1     -41.309-123.817 -54.905  0.00  0.00     0.142 A 
ATOM     25  O   UNL d   1     -42.034-123.553 -55.178  0.00  0.00    -0.300 OA
ATOM     26  C   UNL d   1     -42.567-123.208 -54.655  0.00  0.00     0.142 A 
ATOM     27  C   UNL d   1     -42.371-123.131 -53.869  0.00  0.00     0.107 A 
ENDBRANCH  21  22
ENDBRANCH   2  21
TORSDOF 5
ENDMDL
MODEL 2
REMARK VINA RESULT:       4.7      1.359      3.916
REMARK  5 active torsions:
REMARK  status: ('A' for Active; 'I' for Inactive)
REMARK    1  A    between atoms: O_4  and  C_1 
REMARK    2  A    between atoms: C_9  and  C_2 
REMARK    3  A    between atoms: C_5  and  O_4 
REMARK    4  A    between atoms: C_13  and  C_5 
REMARK    5  A    between atoms: N_10  and  C_9 
ROOT
ATOM      1  C   UNL d   1     -41.424-121.977 -51.763  0.00  0.00     0.122 A 
ATOM      2  C   UNL d   1     -41.448-122.359 -51.039  0.00  0.00     0.043 A 
ATOM      3  C   UNL d   1     -41.324-121.165 -51.799  0.00  0.00     0.105 A 
ATOM      4  C   UNL d   1     -41.247-120.730 -51.101  0.00  0.00     0.030 A 
ATOM      5  C   UNL d   1     -41.271-121.111 -50.377  0.00  0.00     0.059 A 
ATOM      6  C   UNL d   1     -41.371-121.923 -50.342  0.00  0.00     0.015 A 
ATOM      7  N   UNL d   1     -41.301-120.790 -52.519  0.00  0.00    -0.242 NA
ATOM      8 CL   UNL d   1     -41.193-120.657 -49.699  0.00  0.00    -0.082 Cl
ATOM      9  C   UNL d   1     -41.148-119.924 -51.133  0.00  0.00     0.004 A 
ATOM     10  C   UNL d   1     -41.201-119.978 -52.554  0.00  0.00     0.099 A 
ATOM     11  C   UNL d   1     -41.124-119.542 -51.857  0.00  0.00     0.021 A 
ENDROOT
BRANCH   1  12
ATOM     12  O   UNL d   1     -41.493-122.360 -52.397  0.00  0.00    -0.271 OA
BRANCH  12  13
ATOM     13  C   UNL d   1     -42.106-122.496 -53.118  0.00  0.00     0.300 C 
ATOM     14  O   UNL d   1     -43.055-122.277 -52.903  0.00  0.00    -0.259 OA
BRANCH  13  15
ATOM     15  C   UNL d   1     -41.851-122.774 -53.853  0.00  0.00     0.064 A 
ATOM     16  C   UNL d   1     -41.465-123.503 -53.901  0.00  0.00     0.005 A 
ATOM     17  C   UNL d   1     -41.210-123.780 -54.639  0.00  0.00     0.000 A 
ATOM     18  C   UNL d   1     -41.339-123.331 -55.329  0.00  0.00     0.000 A 
ATOM     19  C   UNL d   1     -41.726-122.603 -55.267  0.00  0.00     0.000 A 
ATOM     20  C   UNL d   1     -41.981-122.326 -54.528  0.00  0.00     0.005 A 
ENDBRANCH  13  15
ENDBRANCH  12  13
ENDBRANCH   1  12
BRANCH   2  21
ATOM     21  C   UNL d   1     -41.549-123.225 -50.802  0.00  0.00     0.082 C 
BRANCH  21  22
ATOM     22  N   UNL d   1     -41.919-123.420 -50.110  0.00  0.00    -0.299 N 
ATOM     23  C   UNL d   1     -41.489-123.547 -49.434  0.00  0.00     0.107 A 
ATOM     24  C   UNL d   1     -41.863-123.746 -48.725  0.00  0.00     0.142 A 
ATOM     25  O   UNL d   1     -42.677-123.815 -48.709  0.00  0.00    -0.300 OA
ATOM     26  C   UNL d   1     -43.114-123.686 -49.394  0.00  0.00     0.142 A 
ATOM     27  C   UNL d   1     -42.732-123.490 -50.086  0.00  0.00     0.107 A 
ENDBRANCH  21  22
ENDBRANCH   2  21
TORSDOF 5
ENDMDL
