MODEL 1
REMARK VINA RESULT:      34.8      0.000      0.000
REMARK  5 active torsions:
REMARK  status: ('A' for Active; 'I' for Inactive)
REMARK    1  A    between atoms: C_4  and  S_1 
REMARK    2  A    between atoms: N_5  and  S_1 
REMARK    3  A    between atoms: C_2  and  C_9 
REMARK       I    between atoms: N_3  and  C_2 
REMARK    4  A    between atoms: C_14  and  N_5 
REMARK    5  A    between atoms: C_15  and  C_14 
ROOT
ATOM      1  C   UNL d   1      13.490  12.369  -2.817  0.00  0.00     0.057 A 
ATOM      2  C   UNL d   1      13.150  11.859  -2.261  0.00  0.00     0.005 A 
ATOM      3  C   UNL d   1      14.165  12.801  -2.625  0.00  0.00     0.005 A 
ATOM      4  C   UNL d   1      14.164  12.215  -1.318  0.00  0.00     0.020 A 
ATOM      5  C   UNL d   1      13.489  11.783  -1.510  0.00  0.00     0.002 A 
ATOM      6  C   UNL d   1      14.504  12.723  -1.869  0.00  0.00     0.002 A 
ENDROOT
BRANCH   4   7
ATOM      7  C   UNL d   1      14.508  12.142  -0.567  0.00  0.00     0.112 C 
BRANCH   7   8
ATOM      8  N   UNL d   1      15.212  12.543  -0.405  0.00  0.00    -0.157 NA
BRANCH   8   9
ATOM      9  S   UNL d   1      15.203  13.374  -0.309  0.00  0.00     0.285 S 
ATOM     10  O   UNL d   1      14.422  13.331  -0.025  0.00  0.00    -0.198 OA
ATOM     11  O   UNL d   1      15.983  13.413  -0.593  0.00  0.00    -0.198 OA
BRANCH   9  12
ATOM     12  C   UNL d   1      15.193  14.200  -0.214  0.00  0.00     0.106 A 
ATOM     13  C   UNL d   1      15.907  14.615  -0.168  0.00  0.00     0.024 A 
ATOM     14  C   UNL d   1      15.903  15.435  -0.073  0.00  0.00     0.059 A 
ATOM     15 CL   UNL d   1      16.614  15.855  -0.027  0.00  0.00    -0.082 Cl
ATOM     16  C   UNL d   1      15.185  15.837  -0.025  0.00  0.00     0.011 A 
ATOM     17  C   UNL d   1      14.475  15.422  -0.071  0.00  0.00     0.002 A 
ATOM     18  C   UNL d   1      14.483  14.604  -0.165  0.00  0.00     0.013 A 
ENDBRANCH   9  12
ENDBRANCH   8   9
ENDBRANCH   7   8
ENDBRANCH   4   7
BRANCH   1  19
ATOM     19  C   UNL d   1      13.149  12.450  -3.581  0.00  0.00     0.265 C 
ATOM     20  N   UNL d   1      13.132  13.194  -3.947  0.00  0.00    -0.272 N 
ATOM     21  C   UNL d   1      13.446  13.852  -3.565  0.00  0.00     0.083 A 
ATOM     22  C   UNL d   1      12.796  13.275  -4.699  0.00  0.00     0.083 A 
ATOM     23  C   UNL d   1      13.427  14.583  -3.930  0.00  0.00     0.019 A 
ATOM     24  C   UNL d   1      13.094  14.661  -4.674  0.00  0.00     0.003 A 
ATOM     25  C   UNL d   1      12.778  14.016  -5.065  0.00  0.00     0.019 A 
ATOM     26  O   UNL d   1      12.829  11.782  -3.968  0.00  0.00    -0.267 OA
ENDBRANCH   1  19
TORSDOF 5
ENDMDL
MODEL 2
REMARK VINA RESULT:      37.4      1.994      4.032
REMARK  5 active torsions:
REMARK  status: ('A' for Active; 'I' for Inactive)
REMARK    1  A    between atoms: C_4  and  S_1 
REMARK    2  A    between atoms: N_5  and  S_1 
REMARK    3  A    between atoms: C_2  and  C_9 
REMARK       I    between atoms: N_3  and  C_2 
REMARK    4  A    between atoms: C_14  and  N_5 
REMARK    5  A    between atoms: C_15  and  C_14 
ROOT
ATOM      1  C   UNL d   1      15.059  14.371  -0.952  0.00  0.00     0.057 A 
ATOM      2  C   UNL d   1      15.007  14.130  -1.743  0.00  0.00     0.005 A 
ATOM      3  C   UNL d   1      14.911  13.832  -0.346  0.00  0.00     0.005 A 
ATOM      4  C   UNL d   1      14.657  12.812  -1.317  0.00  0.00     0.020 A 
ATOM      5  C   UNL d   1      14.805  13.349  -1.923  0.00  0.00     0.002 A 
ATOM      6  C   UNL d   1      14.709  13.047  -0.530  0.00  0.00     0.002 A 
ENDROOT
BRANCH   4   7
ATOM      7  C   UNL d   1      14.455  12.027  -1.494  0.00  0.00     0.112 C 
BRANCH   7   8
ATOM      8  N   UNL d   1      13.697  11.860  -1.779  0.00  0.00    -0.157 NA
BRANCH   8   9
ATOM      9  S   UNL d   1      13.485  12.096  -2.553  0.00  0.00     0.285 S 
ATOM     10  O   UNL d   1      12.771  12.407  -2.260  0.00  0.00    -0.198 OA
ATOM     11  O   UNL d   1      14.200  11.785  -2.841  0.00  0.00    -0.198 OA
BRANCH   9  12
ATOM     12  C   UNL d   1      13.273  12.332  -3.322  0.00  0.00     0.106 A 
ATOM     13  C   UNL d   1      13.308  13.132  -3.528  0.00  0.00     0.024 A 
ATOM     14  C   UNL d   1      13.099  13.372  -4.290  0.00  0.00     0.059 A 
ATOM     15 CL   UNL d   1      13.131  14.171  -4.501  0.00  0.00    -0.082 Cl
ATOM     16  C   UNL d   1      12.857  12.811  -4.842  0.00  0.00     0.011 A 
ATOM     17  C   UNL d   1      12.823  12.014  -4.635  0.00  0.00     0.002 A 
ATOM     18  C   UNL d   1      13.032  11.779  -3.874  0.00  0.00     0.013 A 
ENDBRANCH   9  12
ENDBRANCH   8   9
ENDBRANCH   7   8
ENDBRANCH   4   7
BRANCH   1  19
ATOM     19  C   UNL d   1      15.264  15.164  -0.763  0.00  0.00     0.265 C 
ATOM     20  N   UNL d   1      15.137  15.764  -1.322  0.00  0.00    -0.272 N 
ATOM     21  C   UNL d   1      14.814  15.586  -2.057  0.00  0.00     0.083 A 
ATOM     22  C   UNL d   1      15.338  16.546  -1.137  0.00  0.00     0.083 A 
ATOM     23  C   UNL d   1      14.692  16.182  -2.604  0.00  0.00     0.019 A 
ATOM     24  C   UNL d   1      14.891  16.954  -2.419  0.00  0.00     0.003 A 
ATOM     25  C   UNL d   1      15.213  17.145  -1.692  0.00  0.00     0.019 A 
ATOM     26  O   UNL d   1      15.592  15.344  -0.016  0.00  0.00    -0.267 OA
ENDBRANCH   1  19
TORSDOF 5
ENDMDL
