MODEL 1
REMARK VINA RESULT:      14.3      0.000      0.000
REMARK  2 active torsions:
REMARK  status: ('A' for Active; 'I' for Inactive)
REMARK    1  A    between atoms: S_2  and  N_1 
REMARK    2  A    between atoms: C_8  and  S_2 
ROOT
ATOM      1  S   UNL d   1      44.052 -15.459  36.731  0.00  0.00     0.273 S 
ATOM      2  O   UNL d   1      43.802 -14.679  36.762  0.00  0.00    -0.200 OA
ATOM      3  O   UNL d   1      44.311 -16.242  36.701  0.00  0.00    -0.200 OA
ENDROOT
BRANCH   1   4
ATOM      4  N   UNL d   1      44.828 -15.196  36.824  0.00  0.00    -0.207 N 
ATOM      5  C   UNL d   1      44.923 -14.599  37.392  0.00  0.00     0.148 A 
ATOM      6  N   UNL d   1      45.625 -14.216  37.619  0.00  0.00    -0.198 NA
ATOM      7  C   UNL d   1      46.379 -14.329  37.345  0.00  0.00     0.066 A 
ATOM      8  C   UNL d   1      45.506 -14.929  36.942  0.00  0.00     0.169 A 
ATOM      9  C   UNL d   1      46.645 -14.853  36.773  0.00  0.00     0.066 A 
ATOM     10  N   UNL d   1      46.207 -15.397  36.330  0.00  0.00    -0.198 NA
ATOM     11  C   UNL d   1      45.401 -15.547  36.355  0.00  0.00     0.148 A 
ENDBRANCH   1   4
BRANCH   1  12
ATOM     12  C   UNL d   1      43.274 -15.714  36.639  0.00  0.00     0.104 A 
ATOM     13  C   UNL d   1      43.117 -16.495  36.423  0.00  0.00     0.014 A 
ATOM     14  C   UNL d   1      42.339 -16.749  36.331  0.00  0.00     0.012 A 
ATOM     15  C   UNL d   1      41.716 -16.224  36.453  0.00  0.00     0.058 A 
ATOM     16  C   UNL d   1      41.871 -15.442  36.669  0.00  0.00     0.012 A 
ATOM     17 CL   UNL d   1      40.940 -16.487  36.359  0.00  0.00    -0.082 Cl
ATOM     18  C   UNL d   1      42.649 -15.188  36.761  0.00  0.00     0.014 A 
ENDBRANCH   1  12
TORSDOF 2
ENDMDL
MODEL 2
REMARK VINA RESULT:      14.9      7.544      8.061
REMARK  2 active torsions:
REMARK  status: ('A' for Active; 'I' for Inactive)
REMARK    1  A    between atoms: S_2  and  N_1 
REMARK    2  A    between atoms: C_8  and  S_2 
ROOT
ATOM      1  S   UNL d   1      45.651 -14.725  44.253  0.00  0.00     0.273 S 
ATOM      2  O   UNL d   1      44.888 -14.767  44.551  0.00  0.00    -0.200 OA
ATOM      3  O   UNL d   1      46.417 -14.674  43.954  0.00  0.00    -0.200 OA
ENDROOT
BRANCH   1   4
ATOM      4  N   UNL d   1      45.576 -13.904  44.228  0.00  0.00    -0.207 N 
ATOM      5  C   UNL d   1      46.022 -13.500  44.799  0.00  0.00     0.148 A 
ATOM      6  N   UNL d   1      46.070 -12.680  44.923  0.00  0.00    -0.198 NA
ATOM      7  C   UNL d   1      45.700 -12.080  44.524  0.00  0.00     0.066 A 
ATOM      8  C   UNL d   1      45.540 -13.167  44.244  0.00  0.00     0.169 A 
ATOM      9  C   UNL d   1      45.180 -12.129  43.892  0.00  0.00     0.066 A 
ATOM     10  N   UNL d   1      44.904 -12.804  43.504  0.00  0.00    -0.198 NA
ATOM     11  C   UNL d   1      45.081 -13.591  43.655  0.00  0.00     0.148 A 
ENDBRANCH   1   4
BRANCH   1  12
ATOM     12  C   UNL d   1      45.717 -15.546  44.282  0.00  0.00     0.104 A 
ATOM     13  C   UNL d   1      45.408 -15.963  44.922  0.00  0.00     0.014 A 
ATOM     14  C   UNL d   1      45.474 -16.784  44.951  0.00  0.00     0.012 A 
ATOM     15  C   UNL d   1      45.850 -17.189  44.339  0.00  0.00     0.058 A 
ATOM     16  C   UNL d   1      46.160 -16.772  43.697  0.00  0.00     0.012 A 
ATOM     17 CL   UNL d   1      45.912 -18.011  44.375  0.00  0.00    -0.082 Cl
ATOM     18  C   UNL d   1      46.093 -15.951  43.669  0.00  0.00     0.014 A 
ENDBRANCH   1  12
TORSDOF 2
ENDMDL
MODEL 3
REMARK VINA RESULT:      17.1      7.689      8.261
REMARK  2 active torsions:
REMARK  status: ('A' for Active; 'I' for Inactive)
REMARK    1  A    between atoms: S_2  and  N_1 
REMARK    2  A    between atoms: C_8  and  S_2 
ROOT
ATOM      1  S   UNL d   1      45.727 -16.045  44.420  0.00  0.00     0.273 S 
ATOM      2  O   UNL d   1      45.104 -16.099  43.890  0.00  0.00    -0.200 OA
ATOM      3  O   UNL d   1      46.352 -15.982  44.955  0.00  0.00    -0.200 OA
ENDROOT
BRANCH   1   4
ATOM      4  N   UNL d   1      45.542 -15.249  44.529  0.00  0.00    -0.207 N 
ATOM      5  C   UNL d   1      46.158 -14.724  44.346  0.00  0.00     0.148 A 
ATOM      6  N   UNL d   1      46.153 -13.894  44.394  0.00  0.00    -0.198 NA
ATOM      7  C   UNL d   1      45.556 -13.399  44.628  0.00  0.00     0.066 A 
ATOM      8  C   UNL d   1      45.422 -14.525  44.611  0.00  0.00     0.169 A 
ATOM      9  C   UNL d   1      44.799 -13.591  44.879  0.00  0.00     0.066 A 
ATOM     10  N   UNL d   1      44.456 -14.339  44.955  0.00  0.00    -0.198 NA
ATOM     11  C   UNL d   1      44.789 -15.073  44.799  0.00  0.00     0.148 A 
ENDBRANCH   1   4
BRANCH   1  12
ATOM     12  C   UNL d   1      45.905 -16.841  44.306  0.00  0.00     0.104 A 
ATOM     13  C   UNL d   1      45.996 -17.342  44.955  0.00  0.00     0.014 A 
ATOM     14  C   UNL d   1      46.174 -18.138  44.840  0.00  0.00     0.012 A 
ATOM     15  C   UNL d   1      46.262 -18.435  44.076  0.00  0.00     0.058 A 
ATOM     16  C   UNL d   1      46.172 -17.935  43.426  0.00  0.00     0.012 A 
ATOM     17 CL   UNL d   1      46.441 -19.234  43.971  0.00  0.00    -0.082 Cl
ATOM     18  C   UNL d   1      45.994 -17.139  43.540  0.00  0.00     0.014 A 
ENDBRANCH   1  12
TORSDOF 2
ENDMDL
MODEL 4
REMARK VINA RESULT:      17.2      7.638      8.144
REMARK  2 active torsions:
REMARK  status: ('A' for Active; 'I' for Inactive)
REMARK    1  A    between atoms: S_2  and  N_1 
REMARK    2  A    between atoms: C_8  and  S_2 
ROOT
ATOM      1  S   UNL d   1      46.086 -17.769  43.754  0.00  0.00     0.273 S 
ATOM      2  O   UNL d   1      45.720 -17.580  43.045  0.00  0.00    -0.200 OA
ATOM      3  O   UNL d   1      46.455 -17.967  44.465  0.00  0.00    -0.200 OA
ENDROOT
BRANCH   1   4
ATOM      4  N   UNL d   1      46.261 -18.513  43.445  0.00  0.00    -0.207 N 
ATOM      5  C   UNL d   1      46.332 -19.114  44.013  0.00  0.00     0.148 A 
ATOM      6  N   UNL d   1      46.504 -19.918  43.888  0.00  0.00    -0.198 NA
ATOM      7  C   UNL d   1      46.641 -20.308  43.192  0.00  0.00     0.066 A 
ATOM      8  C   UNL d   1      46.417 -19.197  43.214  0.00  0.00     0.169 A 
ATOM      9  C   UNL d   1      46.647 -20.009  42.428  0.00  0.00     0.066 A 
ATOM     10  N   UNL d   1      46.513 -19.233  42.178  0.00  0.00    -0.198 NA
ATOM     11  C   UNL d   1      46.342 -18.571  42.632  0.00  0.00     0.148 A 
ENDBRANCH   1   4
BRANCH   1  12
ATOM     12  C   UNL d   1      45.906 -17.023  44.056  0.00  0.00     0.104 A 
ATOM     13  C   UNL d   1      46.294 -16.356  43.764  0.00  0.00     0.014 A 
ATOM     14  C   UNL d   1      46.115 -15.610  44.065  0.00  0.00     0.012 A 
ATOM     15  C   UNL d   1      45.548 -15.531  44.659  0.00  0.00     0.058 A 
ATOM     16  C   UNL d   1      45.160 -16.197  44.951  0.00  0.00     0.012 A 
ATOM     17 CL   UNL d   1      45.375 -14.780  44.955  0.00  0.00    -0.082 Cl
ATOM     18  C   UNL d   1      45.339 -16.943  44.650  0.00  0.00     0.014 A 
ENDBRANCH   1  12
TORSDOF 2
ENDMDL
