MODEL 1
REMARK VINA RESULT:      -4.7      0.000      0.000
REMARK  5 active torsions:
REMARK  status: ('A' for Active; 'I' for Inactive)
REMARK    1  A    between atoms: S_9  and  C_3 
REMARK    2  A    between atoms: C_14  and  S_9 
REMARK    3  A    between atoms: C_10  and  C_11 
REMARK    4  A    between atoms: C_12  and  C_10 
REMARK    5  A    between atoms: C_11  and  C_14 
ROOT
ATOM      1  S   UNL d   1      57.543  -0.144  30.945  0.00  0.00    -0.046 SA
ENDROOT
BRANCH   1   2
ATOM      2  C   UNL d   1      57.957  -0.525  30.342  0.00  0.00     0.220 A 
ATOM      3  N   UNL d   1      58.534  -0.117  29.912  0.00  0.00    -0.149 N 
ATOM      4  C   UNL d   1      58.956  -0.493  29.302  0.00  0.00     0.303 A 
ATOM      5  N   UNL d   1      58.696   0.673  30.085  0.00  0.00    -0.037 N 
ATOM      6  C   UNL d   1      58.784  -1.289  29.135  0.00  0.00     0.161 A 
ATOM      7  O   UNL d   1      59.526  -0.089  28.877  0.00  0.00    -0.263 OA
ATOM      8  C   UNL d   1      59.197  -1.671  28.532  0.00  0.00     0.028 C 
ATOM      9  N   UNL d   1      58.207  -1.697  29.565  0.00  0.00    -0.141 NA
ATOM     10  N   UNL d   1      57.797  -1.313  30.166  0.00  0.00    -0.121 NA
ENDBRANCH   1   2
BRANCH   1  11
ATOM     11  C   UNL d   1      57.113  -0.582  31.492  0.00  0.00     0.038 C 
BRANCH  11  12
ATOM     12  C   UNL d   1      56.632  -0.196  32.033  0.00  0.00     0.007 C 
BRANCH  12  13
ATOM     13  C   UNL d   1      56.338  -0.597  32.691  0.00  0.00     0.001 C 
BRANCH  13  14
ATOM     14  C   UNL d   1      55.962  -0.170  33.294  0.00  0.00     0.000 A 
ATOM     15  C   UNL d   1      56.403   0.239  33.850  0.00  0.00     0.000 A 
ATOM     16  C   UNL d   1      56.013   0.666  34.453  0.00  0.00     0.000 A 
ATOM     17  C   UNL d   1      55.197   0.671  34.482  0.00  0.00     0.000 A 
ATOM     18  C   UNL d   1      54.754   0.260  33.923  0.00  0.00     0.000 A 
ATOM     19  C   UNL d   1      55.134  -0.163  33.325  0.00  0.00     0.000 A 
ENDBRANCH  13  14
ENDBRANCH  12  13
ENDBRANCH  11  12
ENDBRANCH   1  11
TORSDOF 5
ENDMDL
MODEL 2
REMARK VINA RESULT:      -3.7      2.585      5.079
REMARK  5 active torsions:
REMARK  status: ('A' for Active; 'I' for Inactive)
REMARK    1  A    between atoms: S_9  and  C_3 
REMARK    2  A    between atoms: C_14  and  S_9 
REMARK    3  A    between atoms: C_10  and  C_11 
REMARK    4  A    between atoms: C_12  and  C_10 
REMARK    5  A    between atoms: C_11  and  C_14 
ROOT
ATOM      1  S   UNL d   1      57.273   0.388  32.429  0.00  0.00    -0.046 SA
ENDROOT
BRANCH   1   2
ATOM      2  C   UNL d   1      56.600   0.419  32.906  0.00  0.00     0.220 A 
ATOM      3  N   UNL d   1      56.674   0.535  33.721  0.00  0.00    -0.149 N 
ATOM      4  C   UNL d   1      56.002   0.567  34.210  0.00  0.00     0.303 A 
ATOM      5  N   UNL d   1      57.421   0.621  34.060  0.00  0.00    -0.037 N 
ATOM      6  C   UNL d   1      55.253   0.479  33.859  0.00  0.00     0.161 A 
ATOM      7  O   UNL d   1      56.075   0.682  35.017  0.00  0.00    -0.263 OA
ATOM      8  C   UNL d   1      54.580   0.509  34.335  0.00  0.00     0.028 C 
ATOM      9  N   UNL d   1      55.179   0.363  33.043  0.00  0.00    -0.141 NA
ATOM     10  N   UNL d   1      55.853   0.333  32.571  0.00  0.00    -0.121 NA
ENDBRANCH   1   2
BRANCH   1  11
ATOM     11  C   UNL d   1      57.197   0.315  31.614  0.00  0.00     0.038 C 
BRANCH  11  12
ATOM     12  C   UNL d   1      57.870   0.226  31.152  0.00  0.00     0.007 C 
BRANCH  12  13
ATOM     13  C   UNL d   1      57.814   0.231  30.329  0.00  0.00     0.001 C 
BRANCH  13  14
ATOM     14  C   UNL d   1      58.480   0.039  29.874  0.00  0.00     0.000 A 
ATOM     15  C   UNL d   1      58.580  -0.719  29.581  0.00  0.00     0.000 A 
ATOM     16  C   UNL d   1      59.255  -0.900  29.125  0.00  0.00     0.000 A 
ATOM     17  C   UNL d   1      59.809  -0.318  28.975  0.00  0.00     0.000 A 
ATOM     18  C   UNL d   1      59.709   0.444  29.269  0.00  0.00     0.000 A 
ATOM     19  C   UNL d   1      59.043   0.628  29.721  0.00  0.00     0.000 A 
ENDBRANCH  13  14
ENDBRANCH  12  13
ENDBRANCH  11  12
ENDBRANCH   1  11
TORSDOF 5
ENDMDL
MODEL 3
REMARK VINA RESULT:      -2.2      9.474     10.205
REMARK  5 active torsions:
REMARK  status: ('A' for Active; 'I' for Inactive)
REMARK    1  A    between atoms: S_9  and  C_3 
REMARK    2  A    between atoms: C_14  and  S_9 
REMARK    3  A    between atoms: C_10  and  C_11 
REMARK    4  A    between atoms: C_12  and  C_10 
REMARK    5  A    between atoms: C_11  and  C_14 
ROOT
ATOM      1  S   UNL d   1      59.650  -9.593  33.604  0.00  0.00    -0.046 SA
ENDROOT
BRANCH   1   2
ATOM      2  C   UNL d   1      60.020  -9.087  34.140  0.00  0.00     0.220 A 
ATOM      3  N   UNL d   1      59.649  -8.895  34.854  0.00  0.00    -0.149 N 
ATOM      4  C   UNL d   1      60.014  -8.386  35.401  0.00  0.00     0.303 A 
ATOM      5  N   UNL d   1      58.907  -9.210  35.031  0.00  0.00    -0.037 N 
ATOM      6  C   UNL d   1      60.761  -8.074  35.212  0.00  0.00     0.161 A 
ATOM      7  O   UNL d   1      59.647  -8.197  36.107  0.00  0.00    -0.263 OA
ATOM      8  C   UNL d   1      61.132  -7.568  35.748  0.00  0.00     0.028 C 
ATOM      9  N   UNL d   1      61.132  -8.266  34.499  0.00  0.00    -0.141 NA
ATOM     10  N   UNL d   1      60.760  -8.771  33.966  0.00  0.00    -0.121 NA
ENDBRANCH   1   2
BRANCH   1  11
ATOM     11  C   UNL d   1      59.828  -9.547  32.803  0.00  0.00     0.038 C 
BRANCH  11  12
ATOM     12  C   UNL d   1      59.242  -9.700  32.248  0.00  0.00     0.007 C 
BRANCH  12  13
ATOM     13  C   UNL d   1      59.439  -9.817  31.456  0.00  0.00     0.001 C 
BRANCH  13  14
ATOM     14  C   UNL d   1      58.847  -9.766  30.878  0.00  0.00     0.000 A 
ATOM     15  C   UNL d   1      58.057  -9.740  31.092  0.00  0.00     0.000 A 
ATOM     16  C   UNL d   1      57.470  -9.689  30.500  0.00  0.00     0.000 A 
ATOM     17  C   UNL d   1      57.690  -9.664  29.714  0.00  0.00     0.000 A 
ATOM     18  C   UNL d   1      58.483  -9.690  29.499  0.00  0.00     0.000 A 
ATOM     19  C   UNL d   1      59.067  -9.741  30.079  0.00  0.00     0.000 A 
ENDBRANCH  13  14
ENDBRANCH  12  13
ENDBRANCH  11  12
ENDBRANCH   1  11
TORSDOF 5
ENDMDL
MODEL 4
REMARK VINA RESULT:      -2.0      1.035      1.685
REMARK  5 active torsions:
REMARK  status: ('A' for Active; 'I' for Inactive)
REMARK    1  A    between atoms: S_9  and  C_3 
REMARK    2  A    between atoms: C_14  and  S_9 
REMARK    3  A    between atoms: C_10  and  C_11 
REMARK    4  A    between atoms: C_12  and  C_10 
REMARK    5  A    between atoms: C_11  and  C_14 
ROOT
ATOM      1  S   UNL d   1      58.113   0.124  30.208  0.00  0.00    -0.046 SA
ENDROOT
BRANCH   1   2
ATOM      2  C   UNL d   1      58.862   0.102  29.862  0.00  0.00     0.220 A 
ATOM      3  N   UNL d   1      59.057  -0.502  29.332  0.00  0.00    -0.149 N 
ATOM      4  C   UNL d   1      59.809  -0.533  28.979  0.00  0.00     0.303 A 
ATOM      5  N   UNL d   1      58.503  -1.085  29.148  0.00  0.00    -0.037 N 
ATOM      6  C   UNL d   1      60.360   0.059  29.171  0.00  0.00     0.161 A 
ATOM      7  O   UNL d   1      60.002  -1.130  28.455  0.00  0.00    -0.263 OA
ATOM      8  C   UNL d   1      61.109   0.038  28.826  0.00  0.00     0.028 C 
ATOM      9  N   UNL d   1      60.165   0.664  29.701  0.00  0.00    -0.141 NA
ATOM     10  N   UNL d   1      59.417   0.682  30.044  0.00  0.00    -0.121 NA
ENDBRANCH   1   2
BRANCH   1  11
ATOM     11  C   UNL d   1      58.033   0.293  31.008  0.00  0.00     0.038 C 
BRANCH  11  12
ATOM     12  C   UNL d   1      57.318   0.144  31.384  0.00  0.00     0.007 C 
BRANCH  12  13
ATOM     13  C   UNL d   1      57.230   0.298  32.190  0.00  0.00     0.001 C 
BRANCH  13  14
ATOM     14  C   UNL d   1      56.532   0.071  32.574  0.00  0.00     0.000 A 
ATOM     15  C   UNL d   1      56.346  -0.721  32.667  0.00  0.00     0.000 A 
ATOM     16  C   UNL d   1      55.639  -0.936  33.056  0.00  0.00     0.000 A 
ATOM     17  C   UNL d   1      55.140  -0.355  33.339  0.00  0.00     0.000 A 
ATOM     18  C   UNL d   1      55.327   0.441  33.245  0.00  0.00     0.000 A 
ATOM     19  C   UNL d   1      56.024   0.659  32.862  0.00  0.00     0.000 A 
ENDBRANCH  13  14
ENDBRANCH  12  13
ENDBRANCH  11  12
ENDBRANCH   1  11
TORSDOF 5
ENDMDL
