MODEL 1
REMARK VINA RESULT:      -6.5      0.000      0.000
REMARK  5 active torsions:
REMARK  status: ('A' for Active; 'I' for Inactive)
REMARK    1  A    between atoms: N_8  and  C_2 
REMARK    2  A    between atoms: S_5  and  C_13 
REMARK    3  A    between atoms: C_17  and  S_5 
REMARK       I    between atoms: C_9  and  N_8 
REMARK    4  A    between atoms: C_12  and  C_9 
REMARK    5  A    between atoms: C_13  and  C_12 
ROOT
ATOM      1  N   UNL d   1     -41.682-122.371 -50.881  0.00  0.00    -0.183 NA
ATOM      2  C   UNL d   1     -41.334-122.856 -51.457  0.00  0.00     0.282 C 
ATOM      3  O   UNL d   1     -41.126-123.640 -51.258  0.00  0.00    -0.265 OA
ENDROOT
BRANCH   1   4
ATOM      4  C   UNL d   1     -41.821-122.650 -50.130  0.00  0.00     0.197 A 
ATOM      5  S   UNL d   1     -42.519-122.984 -49.867  0.00  0.00    -0.044 SA
ATOM      6  C   UNL d   1     -42.407-123.185 -49.069  0.00  0.00     0.088 A 
ATOM      7  C   UNL d   1     -41.649-122.976 -48.842  0.00  0.00     0.089 A 
ATOM      8  C   UNL d   1     -42.925-123.543 -48.514  0.00  0.00     0.199 A 
ATOM      9  N   UNL d   1     -41.294-122.647 -49.502  0.00  0.00    -0.221 NA
ATOM     10  C   UNL d   1     -41.384-123.112 -48.075  0.00  0.00    -0.003 A 
ATOM     11  C   UNL d   1     -41.885-123.461 -47.528  0.00  0.00     0.042 A 
ATOM     12  C   UNL d   1     -42.651-123.675 -47.746  0.00  0.00     0.020 A 
ATOM     13  C   UNL d   1     -41.123-123.252 -47.299  0.00  0.00     0.009 C 
ATOM     14  C   UNL d   1     -42.386-123.812 -46.973  0.00  0.00     0.009 C 
ATOM     15  O   UNL d   1     -43.689-123.755 -48.735  0.00  0.00    -0.286 OA
ENDBRANCH   1   4
BRANCH   2  16
ATOM     16  C   UNL d   1     -41.195-122.578 -52.208  0.00  0.00     0.075 C 
BRANCH  16  17
ATOM     17  C   UNL d   1     -41.408-122.979 -52.796  0.00  0.00     0.104 C 
BRANCH  17  18
ATOM     18  S   UNL d   1     -41.575-122.722 -53.575  0.00  0.00     0.211 S 
ATOM     19  O   UNL d   1     -41.965-123.439 -53.736  0.00  0.00    -0.217 OA
ATOM     20  O   UNL d   1     -41.179-121.995 -53.408  0.00  0.00    -0.217 OA
BRANCH  18  21
ATOM     21  C   UNL d   1     -41.737-122.461 -54.343  0.00  0.00     0.088 A 
ATOM     22  C   UNL d   1     -42.475-122.140 -54.525  0.00  0.00     0.011 A 
ATOM     23  C   UNL d   1     -42.639-121.879 -55.295  0.00  0.00     0.001 A 
ATOM     24  C   UNL d   1     -42.060-121.942 -55.878  0.00  0.00     0.000 A 
ATOM     25  C   UNL d   1     -41.318-122.261 -55.707  0.00  0.00     0.001 A 
ATOM     26  C   UNL d   1     -41.157-122.523 -54.934  0.00  0.00     0.011 A 
ENDBRANCH  18  21
ENDBRANCH  17  18
ENDBRANCH  16  17
ENDBRANCH   2  16
TORSDOF 5
ENDMDL
MODEL 2
REMARK VINA RESULT:      -5.6      1.002      5.889
REMARK  5 active torsions:
REMARK  status: ('A' for Active; 'I' for Inactive)
REMARK    1  A    between atoms: N_8  and  C_2 
REMARK    2  A    between atoms: S_5  and  C_13 
REMARK    3  A    between atoms: C_17  and  S_5 
REMARK       I    between atoms: C_9  and  N_8 
REMARK    4  A    between atoms: C_12  and  C_9 
REMARK    5  A    between atoms: C_13  and  C_12 
ROOT
ATOM      1  N   UNL d   1     -41.310-122.365 -51.699  0.00  0.00    -0.183 NA
ATOM      2  C   UNL d   1     -41.503-123.032 -51.247  0.00  0.00     0.282 C 
ATOM      3  O   UNL d   1     -41.855-123.691 -51.621  0.00  0.00    -0.265 OA
ENDROOT
BRANCH   1   4
ATOM      4  C   UNL d   1     -41.459-122.345 -52.498  0.00  0.00     0.197 A 
ATOM      5  S   UNL d   1     -41.873-121.760 -52.891  0.00  0.00    -0.044 SA
ATOM      6  C   UNL d   1     -41.887-121.969 -53.695  0.00  0.00     0.088 A 
ATOM      7  C   UNL d   1     -41.486-122.676 -53.796  0.00  0.00     0.089 A 
ATOM      8  C   UNL d   1     -42.228-121.584 -54.358  0.00  0.00     0.199 A 
ATOM      9  N   UNL d   1     -41.226-122.901 -53.053  0.00  0.00    -0.221 NA
ATOM     10  C   UNL d   1     -41.413-123.017 -54.541  0.00  0.00    -0.003 A 
ATOM     11  C   UNL d   1     -41.743-122.647 -55.192  0.00  0.00     0.042 A 
ATOM     12  C   UNL d   1     -42.149-121.934 -55.101  0.00  0.00     0.020 A 
ATOM     13  C   UNL d   1     -41.341-123.357 -55.295  0.00  0.00     0.009 C 
ATOM     14  C   UNL d   1     -42.075-122.276 -55.852  0.00  0.00     0.009 C 
ATOM     15  O   UNL d   1     -42.632-120.873 -54.263  0.00  0.00    -0.286 OA
ENDBRANCH   1   4
BRANCH   2  16
ATOM     16  C   UNL d   1     -41.354-123.053 -50.448  0.00  0.00     0.075 C 
BRANCH  16  17
ATOM     17  C   UNL d   1     -41.832-123.392 -49.991  0.00  0.00     0.104 C 
BRANCH  17  18
ATOM     18  S   UNL d   1     -41.845-123.398 -49.154  0.00  0.00     0.211 S 
ATOM     19  O   UNL d   1     -41.126-123.817 -49.138  0.00  0.00    -0.217 OA
ATOM     20  O   UNL d   1     -42.574-122.972 -49.174  0.00  0.00    -0.217 OA
BRANCH  18  21
ATOM     21  C   UNL d   1     -41.864-123.400 -48.327  0.00  0.00     0.088 A 
ATOM     22  C   UNL d   1     -42.510-123.724 -47.928  0.00  0.00     0.011 A 
ATOM     23  C   UNL d   1     -42.531-123.727 -47.099  0.00  0.00     0.001 A 
ATOM     24  C   UNL d   1     -41.903-123.404 -46.676  0.00  0.00     0.000 A 
ATOM     25  C   UNL d   1     -41.251-123.078 -47.063  0.00  0.00     0.001 A 
ATOM     26  C   UNL d   1     -41.233-123.076 -47.895  0.00  0.00     0.011 A 
ENDBRANCH  18  21
ENDBRANCH  17  18
ENDBRANCH  16  17
ENDBRANCH   2  16
TORSDOF 5
ENDMDL
