MODEL 1
REMARK VINA RESULT:      -3.5      0.000      0.000
REMARK  5 active torsions:
REMARK  status: ('A' for Active; 'I' for Inactive)
REMARK    1  A    between atoms: N_2  and  C_1 
REMARK    2  A    between atoms: C_4  and  C_8 
REMARK    3  A    between atoms: N_15  and  C_5 
REMARK    4  A    between atoms: C_19  and  N_15 
REMARK    5  A    between atoms: C_20  and  N_15 
ROOT
ATOM      1  C   UNL d   1     -42.689-123.062 -50.153  0.00  0.00     0.143 A 
ATOM      2  C   UNL d   1     -42.066-123.101 -49.618  0.00  0.00     0.086 A 
ATOM      3  C   UNL d   1     -42.537-123.034 -50.968  0.00  0.00     0.027 A 
ATOM      4  C   UNL d   1     -41.751-123.045 -51.243  0.00  0.00     0.021 A 
ATOM      5  C   UNL d   1     -41.288-123.112 -49.889  0.00  0.00     0.019 A 
ATOM      6  C   UNL d   1     -41.125-123.084 -50.700  0.00  0.00     0.003 A 
ENDROOT
BRANCH   4   7
ATOM      7  C   UNL d   1     -41.595-123.017 -52.050  0.00  0.00     0.103 A 
ATOM      8  N   UNL d   1     -41.752-123.676 -52.523  0.00  0.00    -0.145 NA
ATOM      9  N   UNL d   1     -41.596-123.649 -53.330  0.00  0.00    -0.106 NA
ATOM     10  C   UNL d   1     -41.285-122.964 -53.668  0.00  0.00     0.297 A 
ATOM     11  C   UNL d   1     -41.129-122.306 -53.195  0.00  0.00     0.066 A 
ATOM     12  O   UNL d   1     -41.130-122.937 -54.474  0.00  0.00    -0.264 OA
ATOM     13  C   UNL d   1     -41.284-122.330 -52.380  0.00  0.00     0.024 A 
ATOM     14  C   UNL d   1     -41.128-121.673 -51.910  0.00  0.00     0.002 C 
ENDBRANCH   4   7
BRANCH   1  15
ATOM     15  N   UNL d   1     -43.473-123.050 -49.888  0.00  0.00    -0.112 N 
ATOM     16  O   UNL d   1     -43.861-123.768 -49.738  0.00  0.00    -0.532 OA
ATOM     17  O   UNL d   1     -43.866-122.337 -49.773  0.00  0.00    -0.532 OA
ENDBRANCH   1  15
BRANCH   2  18
ATOM     18  N   UNL d   1     -42.221-123.129 -48.810  0.00  0.00    -0.302 N 
BRANCH  18  19
ATOM     19  C   UNL d   1     -42.070-123.817 -48.388  0.00  0.00     0.080 C 
ATOM     20  C   UNL d   1     -41.870-123.776 -47.588  0.00  0.00     0.021 C 
ENDBRANCH  18  19
BRANCH  18  21
ATOM     21  C   UNL d   1     -42.527-122.467 -48.426  0.00  0.00     0.080 C 
ATOM     22  C   UNL d   1     -42.437-122.385 -47.613  0.00  0.00     0.021 C 
ENDBRANCH  18  21
ENDBRANCH   2  18
TORSDOF 5
ENDMDL
MODEL 2
REMARK VINA RESULT:      -2.2      1.147      1.673
REMARK  5 active torsions:
REMARK  status: ('A' for Active; 'I' for Inactive)
REMARK    1  A    between atoms: N_2  and  C_1 
REMARK    2  A    between atoms: C_4  and  C_8 
REMARK    3  A    between atoms: N_15  and  C_5 
REMARK    4  A    between atoms: C_19  and  N_15 
REMARK    5  A    between atoms: C_20  and  N_15 
ROOT
ATOM      1  C   UNL d   1     -42.541-122.739 -51.080  0.00  0.00     0.143 A 
ATOM      2  C   UNL d   1     -41.801-122.759 -50.721  0.00  0.00     0.086 A 
ATOM      3  C   UNL d   1     -42.608-122.576 -51.891  0.00  0.00     0.027 A 
ATOM      4  C   UNL d   1     -41.922-122.433 -52.341  0.00  0.00     0.021 A 
ATOM      5  C   UNL d   1     -41.123-122.617 -51.167  0.00  0.00     0.019 A 
ATOM      6  C   UNL d   1     -41.177-122.454 -51.976  0.00  0.00     0.003 A 
ENDROOT
BRANCH   4   7
ATOM      7  C   UNL d   1     -41.983-122.271 -53.145  0.00  0.00     0.103 A 
ATOM      8  N   UNL d   1     -42.443-121.636 -53.404  0.00  0.00    -0.145 NA
ATOM      9  N   UNL d   1     -42.505-121.474 -54.208  0.00  0.00    -0.106 NA
ATOM     10  C   UNL d   1     -42.108-121.944 -54.756  0.00  0.00     0.297 A 
ATOM     11  C   UNL d   1     -41.648-122.580 -54.496  0.00  0.00     0.066 A 
ATOM     12  O   UNL d   1     -42.169-121.783 -55.559  0.00  0.00    -0.264 OA
ATOM     13  C   UNL d   1     -41.583-122.746 -53.686  0.00  0.00     0.024 A 
ATOM     14  C   UNL d   1     -41.124-123.379 -53.430  0.00  0.00     0.002 C 
ENDBRANCH   4   7
BRANCH   1  15
ATOM     15  N   UNL d   1     -43.227-122.881 -50.639  0.00  0.00    -0.112 N 
ATOM     16  O   UNL d   1     -43.700-122.239 -50.408  0.00  0.00    -0.532 OA
ATOM     17  O   UNL d   1     -43.440-123.647 -50.430  0.00  0.00    -0.532 OA
ENDBRANCH   1  15
BRANCH   2  18
ATOM     18  N   UNL d   1     -41.739-122.921 -49.917  0.00  0.00    -0.302 N 
BRANCH  18  19
ATOM     19  C   UNL d   1     -41.859-122.320 -49.369  0.00  0.00     0.080 C 
ATOM     20  C   UNL d   1     -41.349-122.242 -48.724  0.00  0.00     0.021 C 
ENDBRANCH  18  19
BRANCH  18  21
ATOM     21  C   UNL d   1     -41.558-123.683 -49.662  0.00  0.00     0.080 C 
ATOM     22  C   UNL d   1     -41.354-123.817 -48.878  0.00  0.00     0.021 C 
ENDBRANCH  18  21
ENDBRANCH   2  18
TORSDOF 5
ENDMDL
