MODEL 1
REMARK VINA RESULT:       1.7      0.000      0.000
REMARK  3 active torsions:
REMARK  status: ('A' for Active; 'I' for Inactive)
REMARK       I    between atoms: C_3  and  N_1 
REMARK    1  A    between atoms: C_9  and  C_3 
REMARK    2  A    between atoms: C_15  and  C_4 
REMARK    3  A    between atoms: N_5  and  C_8 
ROOT
ATOM      1  N   UNL d   1      57.715   0.222  32.214  0.00  0.00    -0.269 N 
ATOM      2  C   UNL d   1      57.703   0.368  33.555  0.00  0.00     0.036 A 
ATOM      3  C   UNL d   1      57.216   0.050  31.578  0.00  0.00     0.265 C 
ATOM      4  C   UNL d   1      57.376   0.235  32.956  0.00  0.00     0.069 A 
ATOM      5  C   UNL d   1      58.492   0.553  33.769  0.00  0.00     0.086 A 
ATOM      6  N   UNL d   1      59.102   0.636  33.391  0.00  0.00    -0.207 NA
ATOM      7  C   UNL d   1      59.176   0.562  32.580  0.00  0.00     0.297 A 
ATOM      8  C   UNL d   1      58.538   0.371  32.034  0.00  0.00     0.146 A 
ATOM      9  C   UNL d   1      57.123   0.315  34.154  0.00  0.00     0.033 A 
ATOM     10  O   UNL d   1      56.406  -0.102  31.706  0.00  0.00    -0.267 OA
ATOM     11  O   UNL d   1      59.932   0.681  32.256  0.00  0.00    -0.264 OA
ATOM     12  C   UNL d   1      58.690   0.682  34.568  0.00  0.00     0.022 A 
ATOM     13  C   UNL d   1      57.316   0.443  34.954  0.00  0.00     0.140 A 
ATOM     14  C   UNL d   1      58.108   0.627  35.158  0.00  0.00     0.031 A 
ATOM     15  F   UNL d   1      56.738   0.388  35.529  0.00  0.00    -0.204 F 
ENDROOT
BRANCH   3  16
ATOM     16  C   UNL d   1      57.514   0.026  30.812  0.00  0.00     0.058 A 
ATOM     17  C   UNL d   1      57.890  -0.651  30.529  0.00  0.00     0.028 A 
ATOM     18  C   UNL d   1      58.181  -0.662  29.772  0.00  0.00     0.127 A 
ATOM     19  C   UNL d   1      58.104  -0.003  29.281  0.00  0.00     0.022 A 
ATOM     20  C   UNL d   1      57.734   0.667  29.555  0.00  0.00     0.002 A 
ATOM     21  C   UNL d   1      58.405  -0.029  28.512  0.00  0.00     0.002 C 
ATOM     22  C   UNL d   1      57.438   0.682  30.324  0.00  0.00     0.005 A 
BRANCH  18  23
ATOM     23  N   UNL d   1      58.557  -1.340  29.489  0.00  0.00    -0.114 N 
ATOM     24  O   UNL d   1      58.141  -2.035  29.429  0.00  0.00    -0.532 OA
ATOM     25  O   UNL d   1      59.347  -1.305  29.272  0.00  0.00    -0.532 OA
ENDBRANCH  18  23
ENDBRANCH   3  16
BRANCH   4  26
ATOM     26  C   UNL d   1      56.574   0.075  33.000  0.00  0.00     0.016 A 
ATOM     27  C   UNL d   1      56.314  -0.696  33.159  0.00  0.00     0.004 A 
ATOM     28  C   UNL d   1      55.504  -0.846  33.201  0.00  0.00     0.030 A 
ATOM     29  C   UNL d   1      54.966  -0.255  33.089  0.00  0.00     0.140 A 
ATOM     30  C   UNL d   1      55.231   0.512  32.931  0.00  0.00     0.030 A 
ATOM     31  F   UNL d   1      54.161  -0.409  33.132  0.00  0.00    -0.204 F 
ATOM     32  C   UNL d   1      56.029   0.679  32.886  0.00  0.00     0.004 A 
ENDBRANCH   4  26
TORSDOF 3
ENDMDL
MODEL 2
REMARK VINA RESULT:       2.6      2.036      3.845
REMARK  3 active torsions:
REMARK  status: ('A' for Active; 'I' for Inactive)
REMARK       I    between atoms: C_3  and  N_1 
REMARK    1  A    between atoms: C_9  and  C_3 
REMARK    2  A    between atoms: C_15  and  C_4 
REMARK    3  A    between atoms: N_5  and  C_8 
ROOT
ATOM      1  N   UNL d   1      58.004   0.188  32.118  0.00  0.00    -0.269 N 
ATOM      2  C   UNL d   1      59.287   0.343  31.730  0.00  0.00     0.036 A 
ATOM      3  C   UNL d   1      57.256   0.005  31.818  0.00  0.00     0.265 C 
ATOM      4  C   UNL d   1      58.623   0.201  31.585  0.00  0.00     0.069 A 
ATOM      5  C   UNL d   1      59.711   0.540  32.426  0.00  0.00     0.086 A 
ATOM      6  N   UNL d   1      59.517   0.628  33.117  0.00  0.00    -0.207 NA
ATOM      7  C   UNL d   1      58.760   0.550  33.415  0.00  0.00     0.297 A 
ATOM      8  C   UNL d   1      58.060   0.347  32.956  0.00  0.00     0.146 A 
ATOM      9  C   UNL d   1      59.701   0.286  31.007  0.00  0.00     0.033 A 
ATOM     10  O   UNL d   1      57.154  -0.157  31.006  0.00  0.00    -0.267 OA
ATOM     11  O   UNL d   1      58.659   0.677  34.230  0.00  0.00    -0.264 OA
ATOM     12  C   UNL d   1      60.532   0.676  32.392  0.00  0.00     0.022 A 
ATOM     13  C   UNL d   1      60.522   0.422  30.967  0.00  0.00     0.140 A 
ATOM     14  C   UNL d   1      60.937   0.619  31.669  0.00  0.00     0.031 A 
ATOM     15  F   UNL d   1      60.914   0.364  30.252  0.00  0.00    -0.204 F 
ENDROOT
BRANCH   3  16
ATOM     16  C   UNL d   1      56.604  -0.020  32.319  0.00  0.00     0.058 A 
ATOM     17  C   UNL d   1      56.331  -0.739  32.616  0.00  0.00     0.028 A 
ATOM     18  C   UNL d   1      55.687  -0.750  33.109  0.00  0.00     0.127 A 
ATOM     19  C   UNL d   1      55.302  -0.051  33.317  0.00  0.00     0.022 A 
ATOM     20  C   UNL d   1      55.567   0.661  33.026  0.00  0.00     0.002 A 
ATOM     21  C   UNL d   1      54.648  -0.078  33.820  0.00  0.00     0.002 C 
ATOM     22  C   UNL d   1      56.221   0.676  32.525  0.00  0.00     0.005 A 
BRANCH  18  23
ATOM     23  N   UNL d   1      55.414  -1.470  33.407  0.00  0.00    -0.114 N 
ATOM     24  O   UNL d   1      55.554  -1.663  34.184  0.00  0.00    -0.532 OA
ATOM     25  O   UNL d   1      55.004  -1.983  32.916  0.00  0.00    -0.532 OA
ENDBRANCH  18  23
ENDBRANCH   3  16
BRANCH   4  26
ATOM     26  C   UNL d   1      58.442   0.031  30.804  0.00  0.00     0.016 A 
ATOM     27  C   UNL d   1      58.510  -0.746  30.524  0.00  0.00     0.004 A 
ATOM     28  C   UNL d   1      58.326  -0.907  29.736  0.00  0.00     0.030 A 
ATOM     29  C   UNL d   1      58.082  -0.320  29.239  0.00  0.00     0.140 A 
ATOM     30  C   UNL d   1      58.017   0.454  29.524  0.00  0.00     0.030 A 
ATOM     31  F   UNL d   1      57.900  -0.484  28.455  0.00  0.00    -0.204 F 
ATOM     32  C   UNL d   1      58.195   0.631  30.300  0.00  0.00     0.004 A 
ENDBRANCH   4  26
TORSDOF 3
ENDMDL
