MODEL 1
REMARK VINA RESULT:      23.8      0.000      0.000
REMARK  6 active torsions:
REMARK  status: ('A' for Active; 'I' for Inactive)
REMARK    1  A    between atoms: S_6  and  C_1 
REMARK    2  A    between atoms: C_7  and  S_6 
REMARK    3  A    between atoms: C_8  and  C_7 
REMARK    4  A    between atoms: O_14  and  C_9 
REMARK    5  A    between atoms: C_17  and  O_14 
REMARK    6  A    between atoms: C_18  and  C_17 
ROOT
ATOM      1  C   UNL d   1      14.338  12.890  -0.066  0.00  0.00     0.038 C 
ENDROOT
BRANCH   1   2
ATOM      2  S   UNL d   1      14.641  12.354  -0.617  0.00  0.00    -0.048 SA
BRANCH   2   3
ATOM      3  C   UNL d   1      14.283  12.276  -1.356  0.00  0.00     0.194 A 
ATOM      4  N   UNL d   1      13.534  11.975  -1.512  0.00  0.00    -0.220 NA
ATOM      5  C   UNL d   1      13.413  12.007  -2.346  0.00  0.00     0.101 A 
ATOM      6  C   UNL d   1      12.769  11.780  -2.806  0.00  0.00     0.021 A 
ATOM      7  C   UNL d   1      14.081  12.325  -2.702  0.00  0.00     0.101 A 
ATOM      8  C   UNL d   1      12.805  11.874  -3.602  0.00  0.00     0.002 A 
ATOM      9  C   UNL d   1      13.473  12.192  -3.959  0.00  0.00     0.002 A 
ATOM     10  C   UNL d   1      14.106  12.416  -3.521  0.00  0.00     0.021 A 
ATOM     11  N   UNL d   1      14.626  12.495  -2.096  0.00  0.00    -0.220 NA
ENDBRANCH   2   3
ENDBRANCH   1   2
BRANCH   1  12
ATOM     12  C   UNL d   1      14.655  13.652  -0.054  0.00  0.00     0.007 A 
ATOM     13  C   UNL d   1      15.476  13.729  -0.028  0.00  0.00     0.003 A 
ATOM     14  C   UNL d   1      15.820  14.478  -0.015  0.00  0.00     0.025 A 
ATOM     15  C   UNL d   1      15.343  15.152  -0.028  0.00  0.00     0.100 A 
ATOM     16  C   UNL d   1      14.548  15.062  -0.054  0.00  0.00     0.025 A 
ATOM     17  C   UNL d   1      14.204  14.313  -0.067  0.00  0.00     0.003 A 
BRANCH  15  18
ATOM     18  O   UNL d   1      15.687  15.902  -0.015  0.00  0.00    -0.305 OA
BRANCH  18  19
ATOM     19  C   UNL d   1      15.380  16.504  -0.489  0.00  0.00     0.123 C 
BRANCH  19  20
ATOM     20  C   UNL d   1      15.880  16.930  -0.988  0.00  0.00     0.027 C 
ATOM     21  C   UNL d   1      15.559  17.432  -1.565  0.00  0.00     0.002 C 
ENDBRANCH  19  20
ENDBRANCH  18  19
ENDBRANCH  15  18
ENDBRANCH   1  12
TORSDOF 6
ENDMDL
MODEL 2
REMARK VINA RESULT:      25.4      2.771      4.045
REMARK  6 active torsions:
REMARK  status: ('A' for Active; 'I' for Inactive)
REMARK    1  A    between atoms: S_6  and  C_1 
REMARK    2  A    between atoms: C_7  and  S_6 
REMARK    3  A    between atoms: C_8  and  C_7 
REMARK    4  A    between atoms: O_14  and  C_9 
REMARK    5  A    between atoms: C_17  and  O_14 
REMARK    6  A    between atoms: C_18  and  C_17 
ROOT
ATOM      1  C   UNL d   1      12.788  12.366  -3.817  0.00  0.00     0.038 C 
ENDROOT
BRANCH   1   2
ATOM      2  S   UNL d   1      13.346  11.828  -3.532  0.00  0.00    -0.048 SA
BRANCH   2   3
ATOM      3  C   UNL d   1      13.555  11.834  -2.734  0.00  0.00     0.194 A 
ATOM      4  N   UNL d   1      13.044  11.799  -2.090  0.00  0.00    -0.220 NA
ATOM      5  C   UNL d   1      13.513  11.820  -1.390  0.00  0.00     0.101 A 
ATOM      6  C   UNL d   1      13.296  11.801  -0.595  0.00  0.00     0.021 A 
ATOM      7  C   UNL d   1      14.306  11.868  -1.598  0.00  0.00     0.101 A 
ATOM      8  C   UNL d   1      13.868  11.830  -0.034  0.00  0.00     0.002 A 
ATOM      9  C   UNL d   1      14.661  11.878  -0.242  0.00  0.00     0.002 A 
ATOM     10  C   UNL d   1      14.885  11.897  -1.012  0.00  0.00     0.021 A 
ATOM     11  N   UNL d   1      14.341  11.877  -2.430  0.00  0.00    -0.220 NA
ENDBRANCH   2   3
ENDBRANCH   1   2
BRANCH   1  12
ATOM     12  C   UNL d   1      13.055  12.986  -4.291  0.00  0.00     0.007 A 
ATOM     13  C   UNL d   1      12.890  13.757  -4.047  0.00  0.00     0.003 A 
ATOM     14  C   UNL d   1      13.145  14.396  -4.501  0.00  0.00     0.025 A 
ATOM     15  C   UNL d   1      13.565  14.265  -5.200  0.00  0.00     0.100 A 
ATOM     16  C   UNL d   1      13.717  13.513  -5.424  0.00  0.00     0.025 A 
ATOM     17  C   UNL d   1      13.462  12.873  -4.969  0.00  0.00     0.003 A 
BRANCH  15  18
ATOM     18  O   UNL d   1      13.820  14.905  -5.655  0.00  0.00    -0.305 OA
BRANCH  18  19
ATOM     19  C   UNL d   1      13.864  15.657  -5.319  0.00  0.00     0.123 C 
BRANCH  19  20
ATOM     20  C   UNL d   1      14.379  16.219  -5.634  0.00  0.00     0.027 C 
ATOM     21  C   UNL d   1      14.082  16.944  -5.907  0.00  0.00     0.002 C 
ENDBRANCH  19  20
ENDBRANCH  18  19
ENDBRANCH  15  18
ENDBRANCH   1  12
TORSDOF 6
ENDMDL
