MODEL 1
REMARK VINA RESULT:      49.3      0.000      0.000
REMARK  6 active torsions:
REMARK  status: ('A' for Active; 'I' for Inactive)
REMARK       I    between atoms: C_2  and  N_1 
REMARK    1  A    between atoms: C_3  and  C_2 
REMARK    2  A    between atoms: C_12  and  C_4 
REMARK       I    between atoms: C_5  and  N_8 
REMARK    3  A    between atoms: C_6  and  C_5 
REMARK       I    between atoms: N_9  and  C_6 
REMARK    4  A    between atoms: N_8  and  C_12 
REMARK    5  A    between atoms: C_19  and  N_9 
REMARK    6  A    between atoms: C_20  and  C_19 
ROOT
ATOM      1  C   UNL d   1      15.146  16.376  -2.115  0.00  0.00     0.337 C 
ATOM      2  N   UNL d   1      14.946  16.033  -2.832  0.00  0.00    -0.199 NA
ATOM      3  O   UNL d   1      15.628  17.042  -2.100  0.00  0.00    -0.260 OA
ENDROOT
BRANCH   2   4
ATOM      4  C   UNL d   1      14.464  15.366  -2.847  0.00  0.00     0.146 C 
BRANCH   4   5
ATOM      5  C   UNL d   1      13.935  15.256  -3.480  0.00  0.00     0.190 A 
ATOM      6  N   UNL d   1      13.671  14.525  -3.749  0.00  0.00    -0.250 N 
ATOM      7  C   UNL d   1      13.831  13.749  -3.503  0.00  0.00     0.272 C 
ATOM      8  C   UNL d   1      13.158  14.673  -4.380  0.00  0.00     0.112 A 
ATOM      9  O   UNL d   1      14.347  13.617  -2.869  0.00  0.00    -0.266 OA
ATOM     10  C   UNL d   1      13.111  15.486  -4.492  0.00  0.00     0.144 A 
ATOM     11  O   UNL d   1      13.600  15.842  -3.925  0.00  0.00    -0.285 OA
BRANCH   7  12
ATOM     12  C   UNL d   1      13.479  13.111  -3.884  0.00  0.00     0.086 A 
ATOM     13  S   UNL d   1      13.459  12.895  -4.684  0.00  0.00    -0.082 SA
ATOM     14  C   UNL d   1      13.016  12.187  -4.742  0.00  0.00     0.036 A 
ATOM     15  C   UNL d   1      12.773  11.982  -3.980  0.00  0.00     0.008 A 
ATOM     16  C   UNL d   1      13.055  12.546  -3.450  0.00  0.00     0.012 A 
ENDBRANCH   7  12
ENDBRANCH   4   5
ENDBRANCH   2   4
BRANCH   1  17
ATOM     17  C   UNL d   1      14.868  16.058  -1.401  0.00  0.00     0.337 C 
ATOM     18  N   UNL d   1      15.217  15.391  -1.075  0.00  0.00    -0.202 NA
ATOM     19  O   UNL d   1      14.234  16.417  -1.018  0.00  0.00    -0.260 OA
BRANCH  18  20
ATOM     20  C   UNL d   1      14.957  15.065  -0.375  0.00  0.00     0.102 C 
BRANCH  20  21
ATOM     21  C   UNL d   1      14.864  14.246  -0.287  0.00  0.00     0.019 A 
ATOM     22  C   UNL d   1      14.124  13.927  -0.204  0.00  0.00     0.002 A 
ATOM     23  C   UNL d   1      14.022  13.118  -0.117  0.00  0.00     0.000 A 
ATOM     24  C   UNL d   1      14.686  12.611  -0.112  0.00  0.00     0.000 A 
ATOM     25  C   UNL d   1      15.433  12.937  -0.195  0.00  0.00     0.000 A 
ATOM     26  C   UNL d   1      14.574  11.783  -0.021  0.00  0.00     0.000 C 
ATOM     27  C   UNL d   1      15.512  13.755  -0.282  0.00  0.00     0.002 A 
ENDBRANCH  20  21
ENDBRANCH  18  20
ENDBRANCH   1  17
TORSDOF 6
ENDMDL
MODEL 2
REMARK VINA RESULT:      50.1      1.603      3.469
REMARK  6 active torsions:
REMARK  status: ('A' for Active; 'I' for Inactive)
REMARK       I    between atoms: C_2  and  N_1 
REMARK    1  A    between atoms: C_3  and  C_2 
REMARK    2  A    between atoms: C_12  and  C_4 
REMARK       I    between atoms: C_5  and  N_8 
REMARK    3  A    between atoms: C_6  and  C_5 
REMARK       I    between atoms: N_9  and  C_6 
REMARK    4  A    between atoms: N_8  and  C_12 
REMARK    5  A    between atoms: C_19  and  N_9 
REMARK    6  A    between atoms: C_20  and  C_19 
ROOT
ATOM      1  C   UNL d   1      13.521  13.076  -4.474  0.00  0.00     0.337 C 
ATOM      2  N   UNL d   1      13.776  13.849  -4.567  0.00  0.00    -0.199 NA
ATOM      3  O   UNL d   1      13.516  12.566  -5.119  0.00  0.00    -0.260 OA
ENDROOT
BRANCH   2   4
ATOM      4  C   UNL d   1      13.782  14.359  -3.922  0.00  0.00     0.146 C 
BRANCH   4   5
ATOM      5  C   UNL d   1      14.140  15.107  -3.992  0.00  0.00     0.190 A 
ATOM      6  N   UNL d   1      14.424  15.553  -3.362  0.00  0.00    -0.250 N 
ATOM      7  C   UNL d   1      14.441  15.414  -2.544  0.00  0.00     0.272 C 
ATOM      8  C   UNL d   1      14.731  16.251  -3.681  0.00  0.00     0.112 A 
ATOM      9  O   UNL d   1      14.129  14.711  -2.240  0.00  0.00    -0.266 OA
ATOM     10  C   UNL d   1      14.635  16.228  -4.496  0.00  0.00     0.144 A 
ATOM     11  O   UNL d   1      14.264  15.510  -4.682  0.00  0.00    -0.285 OA
BRANCH   7  12
ATOM     12  C   UNL d   1      14.767  15.971  -2.034  0.00  0.00     0.086 A 
ATOM     13  S   UNL d   1      15.137  16.698  -2.182  0.00  0.00    -0.082 SA
ATOM     14  C   UNL d   1      15.357  17.023  -1.443  0.00  0.00     0.036 A 
ATOM     15  C   UNL d   1      15.119  16.493  -0.857  0.00  0.00     0.008 A 
ATOM     16  C   UNL d   1      14.757  15.846  -1.214  0.00  0.00     0.012 A 
ENDBRANCH   7  12
ENDBRANCH   4   5
ENDBRANCH   2   4
BRANCH   1  17
ATOM     17  C   UNL d   1      13.267  12.800  -3.733  0.00  0.00     0.337 C 
ATOM     18  N   UNL d   1      13.507  12.067  -3.455  0.00  0.00    -0.202 NA
ATOM     19  O   UNL d   1      12.769  13.269  -3.276  0.00  0.00    -0.260 OA
BRANCH  18  20
ATOM     20  C   UNL d   1      13.267  11.779  -2.731  0.00  0.00     0.102 C 
BRANCH  20  21
ATOM     21  C   UNL d   1      13.765  11.805  -2.068  0.00  0.00     0.019 A 
ATOM     22  C   UNL d   1      14.569  11.780  -2.162  0.00  0.00     0.002 A 
ATOM     23  C   UNL d   1      15.069  11.805  -1.513  0.00  0.00     0.000 A 
ATOM     24  C   UNL d   1      14.752  11.857  -0.742  0.00  0.00     0.000 A 
ATOM     25  C   UNL d   1      13.938  11.883  -0.651  0.00  0.00     0.000 A 
ATOM     26  C   UNL d   1      15.270  11.882  -0.082  0.00  0.00     0.000 C 
ATOM     27  C   UNL d   1      13.453  11.856  -1.319  0.00  0.00     0.002 A 
ENDBRANCH  20  21
ENDBRANCH  18  20
ENDBRANCH   1  17
TORSDOF 6
ENDMDL
