MODEL 1
REMARK VINA RESULT:      11.5      0.000      0.000
REMARK  4 active torsions:
REMARK  status: ('A' for Active; 'I' for Inactive)
REMARK    1  A    between atoms: C_6  and  C_1 
REMARK    2  A    between atoms: N_7  and  C_2 
REMARK    3  A    between atoms: C_8  and  C_5 
REMARK    4  A    between atoms: O_10  and  C_6 
ROOT
ATOM      1  C   UNL d   1      14.324  12.899  -1.688  0.00  0.00     0.186 A 
ATOM      2  C   UNL d   1      13.995  12.141  -1.506  0.00  0.00     0.193 A 
ATOM      3  N   UNL d   1      14.062  13.124  -2.420  0.00  0.00    -0.213 NA
ATOM      4  O   UNL d   1      13.520  11.926  -2.174  0.00  0.00    -0.271 OA
ATOM      5  C   UNL d   1      13.593  12.567  -2.716  0.00  0.00     0.184 A 
ENDROOT
BRANCH   5   6
ATOM      6  C   UNL d   1      13.359  12.787  -3.391  0.00  0.00     0.041 A 
ATOM      7  C   UNL d   1      13.414  11.990  -3.646  0.00  0.00     0.004 A 
ATOM      8  C   UNL d   1      13.220  11.785  -4.425  0.00  0.00     0.000 A 
ATOM      9  C   UNL d   1      12.970  12.375  -4.945  0.00  0.00     0.000 A 
ATOM     10  C   UNL d   1      12.915  13.172  -4.690  0.00  0.00     0.000 A 
ATOM     11  C   UNL d   1      13.110  13.355  -3.922  0.00  0.00     0.004 A 
ENDBRANCH   5   6
BRANCH   1  12
ATOM     12  C   UNL d   1      14.735  13.136  -1.162  0.00  0.00     0.317 C 
ATOM     13  O   UNL d   1      15.086  12.807  -0.421  0.00  0.00    -0.257 OA
BRANCH  12  14
ATOM     14  O   UNL d   1      15.029  13.802  -1.060  0.00  0.00    -0.294 OA
ATOM     15  C   UNL d   1      15.043  14.296  -0.358  0.00  0.00     0.185 C 
ENDBRANCH  12  14
ENDBRANCH   1  12
BRANCH   2  16
ATOM     16  N   UNL d   1      14.186  11.926  -0.917  0.00  0.00    -0.281 N 
ATOM     17  C   UNL d   1      13.435  11.780  -0.668  0.00  0.00     0.101 C 
ATOM     18  C   UNL d   1      14.802  11.782  -0.436  0.00  0.00     0.101 C 
ENDBRANCH   2  16
TORSDOF 4
ENDMDL
