MODEL 1
REMARK VINA RESULT:       3.4      0.000      0.000
REMARK  6 active torsions:
REMARK  status: ('A' for Active; 'I' for Inactive)
REMARK    1  A    between atoms: C_9  and  N_1 
REMARK    2  A    between atoms: S_11  and  C_6 
REMARK    3  A    between atoms: C_24  and  S_11 
REMARK    4  A    between atoms: C_13  and  C_24 
REMARK       I    between atoms: N_18  and  C_13 
REMARK    5  A    between atoms: C_26  and  N_18 
REMARK    6  A    between atoms: C_25  and  C_26 
ROOT
ATOM      1  N   UNL d   1     -42.066-122.753 -54.653  0.00  0.00    -0.212 N 
ATOM      2  C   UNL d   1     -41.735-122.534 -53.934  0.00  0.00     0.169 A 
ATOM      3  N   UNL d   1     -42.286-123.532 -54.615  0.00  0.00    -0.162 NA
ATOM      4  C   UNL d   1     -41.751-123.194 -53.441  0.00  0.00     0.081 A 
ATOM      5  C   UNL d   1     -42.092-123.814 -53.860  0.00  0.00     0.126 A 
ATOM      6  C   UNL d   1     -41.454-123.145 -52.676  0.00  0.00     0.117 A 
ATOM      7  N   UNL d   1     -41.422-121.823 -53.664  0.00  0.00    -0.205 NA
ATOM      8  N   UNL d   1     -41.139-122.433 -52.402  0.00  0.00    -0.217 NA
ATOM      9  C   UNL d   1     -41.123-121.772 -52.896  0.00  0.00     0.201 A 
ENDROOT
BRANCH   6  10
ATOM     10  S   UNL d   1     -41.470-123.806 -52.183  0.00  0.00    -0.062 SA
BRANCH  10  11
ATOM     11  C   UNL d   1     -41.648-123.720 -51.392  0.00  0.00     0.099 C 
BRANCH  11  12
ATOM     12  C   UNL d   1     -42.319-123.299 -51.163  0.00  0.00     0.286 C 
ATOM     13  N   UNL d   1     -42.590-123.344 -50.384  0.00  0.00    -0.206 NA
ATOM     14  O   UNL d   1     -42.721-122.831 -51.713  0.00  0.00    -0.265 OA
BRANCH  13  15
ATOM     15  C   UNL d   1     -42.189-123.812 -49.835  0.00  0.00     0.102 C 
BRANCH  15  16
ATOM     16  C   UNL d   1     -42.047-123.524 -49.074  0.00  0.00     0.021 A 
ATOM     17  C   UNL d   1     -42.657-123.169 -48.647  0.00  0.00     0.028 A 
ATOM     18  C   UNL d   1     -42.515-122.882 -47.886  0.00  0.00     0.119 A 
ATOM     19  O   UNL d   1     -43.013-122.507 -47.339  0.00  0.00    -0.300 OA
ATOM     20  C   UNL d   1     -41.763-122.949 -47.552  0.00  0.00     0.119 A 
ATOM     21  C   UNL d   1     -42.566-122.347 -46.676  0.00  0.00     0.304 A 
ATOM     22  O   UNL d   1     -41.802-122.614 -46.797  0.00  0.00    -0.300 OA
ATOM     23  C   UNL d   1     -41.153-123.304 -47.979  0.00  0.00     0.026 A 
ATOM     24  C   UNL d   1     -41.295-123.592 -48.740  0.00  0.00     0.004 A 
ENDBRANCH  15  16
ENDBRANCH  13  15
ENDBRANCH  11  12
ENDBRANCH  10  11
ENDBRANCH   6  10
BRANCH   1  25
ATOM     25  C   UNL d   1     -42.127-122.199 -55.269  0.00  0.00     0.085 A 
ATOM     26  C   UNL d   1     -42.863-121.899 -55.479  0.00  0.00     0.020 A 
ATOM     27  C   UNL d   1     -42.926-121.353 -56.085  0.00  0.00     0.013 A 
ATOM     28  C   UNL d   1     -42.242-121.101 -56.490  0.00  0.00     0.058 A 
ATOM     29  C   UNL d   1     -41.509-121.410 -56.269  0.00  0.00     0.013 A 
ATOM     30 CL   UNL d   1     -42.297-120.542 -57.113  0.00  0.00    -0.082 Cl
ATOM     31  C   UNL d   1     -41.455-121.954 -55.664  0.00  0.00     0.020 A 
ENDBRANCH   1  25
TORSDOF 6
ENDMDL
