MODEL 1
REMARK VINA RESULT:      -8.5      0.000      0.000
REMARK  5 active torsions:
REMARK  status: ('A' for Active; 'I' for Inactive)
REMARK    1  A    between atoms: S_10  and  C_4 
REMARK    2  A    between atoms: C_15  and  S_10 
REMARK    3  A    between atoms: C_11  and  C_15 
REMARK       I    between atoms: N_12  and  C_11 
REMARK    4  A    between atoms: C_16  and  N_12 
REMARK    5  A    between atoms: C_17  and  C_16 
ROOT
ATOM      1  C   UNL d   1     -48.593  13.688  23.152  0.00  0.00     0.141 A 
ATOM      2  C   UNL d   1     -49.372  13.506  23.351  0.00  0.00     0.110 A 
ATOM      3  O   UNL d   1     -48.545  14.502  23.023  0.00  0.00    -0.303 OA
ATOM      4  C   UNL d   1     -48.026  13.090  23.112  0.00  0.00     0.137 A 
ATOM      5  N   UNL d   1     -48.241  12.309  23.273  0.00  0.00    -0.218 NA
ATOM      6  C   UNL d   1     -49.807  14.209  23.346  0.00  0.00     0.043 A 
ATOM      7  N   UNL d   1     -49.586  12.726  23.512  0.00  0.00    -0.225 NA
ATOM      8  C   UNL d   1     -49.295  14.824  23.143  0.00  0.00     0.102 A 
ATOM      9  C   UNL d   1     -49.020  12.127  23.472  0.00  0.00     0.163 A 
ATOM     10  C   UNL d   1     -50.602  14.367  23.500  0.00  0.00     0.004 A 
ATOM     11  C   UNL d   1     -49.579  15.597  23.095  0.00  0.00     0.025 A 
ATOM     12  C   UNL d   1     -49.233  11.347  23.633  0.00  0.00     0.042 C 
ATOM     13  C   UNL d   1     -50.886  15.140  23.451  0.00  0.00     0.000 A 
ATOM     14  C   UNL d   1     -50.374  15.755  23.249  0.00  0.00     0.002 A 
ENDROOT
BRANCH   4  15
ATOM     15  S   UNL d   1     -47.247  13.270  22.913  0.00  0.00    -0.060 SA
BRANCH  15  16
ATOM     16  C   UNL d   1     -46.639  12.745  23.109  0.00  0.00     0.099 C 
BRANCH  16  17
ATOM     17  C   UNL d   1     -45.870  12.890  22.849  0.00  0.00     0.286 C 
ATOM     18  N   UNL d   1     -45.282  12.323  22.967  0.00  0.00    -0.204 NA
ATOM     19  O   UNL d   1     -45.689  13.600  22.471  0.00  0.00    -0.265 OA
BRANCH  18  20
ATOM     20  C   UNL d   1     -45.462  11.613  23.345  0.00  0.00     0.127 C 
BRANCH  20  21
ATOM     21  C   UNL d   1     -44.886  11.029  23.426  0.00  0.00     0.119 A 
ATOM     22  O   UNL d   1     -44.084  11.112  23.249  0.00  0.00    -0.304 OA
ATOM     23  C   UNL d   1     -43.712  10.395  23.411  0.00  0.00     0.123 A 
ATOM     24  C   UNL d   1     -44.282   9.868  23.689  0.00  0.00     0.029 A 
ATOM     25  C   UNL d   1     -45.008  10.260  23.698  0.00  0.00     0.028 A 
ENDBRANCH  20  21
ENDBRANCH  18  20
ENDBRANCH  16  17
ENDBRANCH  15  16
ENDBRANCH   4  15
TORSDOF 5
ENDMDL
MODEL 2
REMARK VINA RESULT:      -7.5      1.376      1.819
REMARK  5 active torsions:
REMARK  status: ('A' for Active; 'I' for Inactive)
REMARK    1  A    between atoms: S_10  and  C_4 
REMARK    2  A    between atoms: C_15  and  S_10 
REMARK    3  A    between atoms: C_11  and  C_15 
REMARK       I    between atoms: N_12  and  C_11 
REMARK    4  A    between atoms: C_16  and  N_12 
REMARK    5  A    between atoms: C_17  and  C_16 
ROOT
ATOM      1  C   UNL d   1     -48.600  13.409  23.016  0.00  0.00     0.141 A 
ATOM      2  C   UNL d   1     -48.625  14.192  22.759  0.00  0.00     0.110 A 
ATOM      3  O   UNL d   1     -49.377  13.138  23.088  0.00  0.00    -0.303 OA
ATOM      4  C   UNL d   1     -47.874  13.042  23.151  0.00  0.00     0.137 A 
ATOM      5  N   UNL d   1     -47.173  13.460  23.028  0.00  0.00    -0.218 NA
ATOM      6  C   UNL d   1     -49.419  14.407  22.673  0.00  0.00     0.043 A 
ATOM      7  N   UNL d   1     -47.925  14.610  22.637  0.00  0.00    -0.225 NA
ATOM      8  C   UNL d   1     -49.883  13.755  22.876  0.00  0.00     0.102 A 
ATOM      9  C   UNL d   1     -47.198  14.243  22.772  0.00  0.00     0.163 A 
ATOM     10  C   UNL d   1     -49.778  15.111  22.435  0.00  0.00     0.004 A 
ATOM     11  C   UNL d   1     -50.705  13.808  22.842  0.00  0.00     0.025 A 
ATOM     12  C   UNL d   1     -46.497  14.660  22.649  0.00  0.00     0.042 C 
ATOM     13  C   UNL d   1     -50.601  15.163  22.401  0.00  0.00     0.000 A 
ATOM     14  C   UNL d   1     -51.064  14.512  22.605  0.00  0.00     0.002 A 
ENDROOT
BRANCH   4  15
ATOM     15  S   UNL d   1     -47.847  12.259  23.407  0.00  0.00    -0.060 SA
BRANCH  15  16
ATOM     16  C   UNL d   1     -47.130  11.848  23.402  0.00  0.00     0.099 C 
BRANCH  16  17
ATOM     17  C   UNL d   1     -47.115  11.045  23.589  0.00  0.00     0.286 C 
ATOM     18  N   UNL d   1     -46.392  10.662  23.698  0.00  0.00    -0.204 NA
ATOM     19  O   UNL d   1     -47.821  10.625  23.668  0.00  0.00    -0.265 OA
BRANCH  18  20
ATOM     20  C   UNL d   1     -45.686  11.080  23.620  0.00  0.00     0.127 C 
BRANCH  20  21
ATOM     21  C   UNL d   1     -44.965  10.680  23.623  0.00  0.00     0.119 A 
ATOM     22  O   UNL d   1     -44.218  11.027  23.564  0.00  0.00    -0.304 OA
ATOM     23  C   UNL d   1     -43.656  10.426  23.591  0.00  0.00     0.123 A 
ATOM     24  C   UNL d   1     -44.053   9.707  23.665  0.00  0.00     0.029 A 
ATOM     25  C   UNL d   1     -44.863   9.864  23.685  0.00  0.00     0.028 A 
ENDBRANCH  20  21
ENDBRANCH  18  20
ENDBRANCH  16  17
ENDBRANCH  15  16
ENDBRANCH   4  15
TORSDOF 5
ENDMDL
MODEL 3
REMARK VINA RESULT:      -7.4      1.638      2.444
REMARK  5 active torsions:
REMARK  status: ('A' for Active; 'I' for Inactive)
REMARK    1  A    between atoms: S_10  and  C_4 
REMARK    2  A    between atoms: C_15  and  S_10 
REMARK    3  A    between atoms: C_11  and  C_15 
REMARK       I    between atoms: N_12  and  C_11 
REMARK    4  A    between atoms: C_16  and  N_12 
REMARK    5  A    between atoms: C_17  and  C_16 
ROOT
ATOM      1  C   UNL d   1     -48.330  12.838  23.294  0.00  0.00     0.141 A 
ATOM      2  C   UNL d   1     -48.924  13.387  23.132  0.00  0.00     0.110 A 
ATOM      3  O   UNL d   1     -48.689  12.134  23.532  0.00  0.00    -0.303 OA
ATOM      4  C   UNL d   1     -47.538  13.050  23.205  0.00  0.00     0.137 A 
ATOM      5  N   UNL d   1     -47.341  13.811  22.953  0.00  0.00    -0.218 NA
ATOM      6  C   UNL d   1     -49.652  13.021  23.270  0.00  0.00     0.043 A 
ATOM      7  N   UNL d   1     -48.728  14.147  22.881  0.00  0.00    -0.225 NA
ATOM      8  C   UNL d   1     -49.507  12.247  23.517  0.00  0.00     0.102 A 
ATOM      9  C   UNL d   1     -47.935  14.359  22.791  0.00  0.00     0.163 A 
ATOM     10  C   UNL d   1     -50.428  13.293  23.202  0.00  0.00     0.004 A 
ATOM     11  C   UNL d   1     -50.137  11.746  23.696  0.00  0.00     0.025 A 
ATOM     12  C   UNL d   1     -47.738  15.119  22.540  0.00  0.00     0.042 C 
ATOM     13  C   UNL d   1     -51.059  12.792  23.381  0.00  0.00     0.000 A 
ATOM     14  C   UNL d   1     -50.913  12.018  23.628  0.00  0.00     0.002 A 
ENDROOT
BRANCH   4  15
ATOM     15  S   UNL d   1     -46.943  12.503  23.367  0.00  0.00    -0.060 SA
BRANCH  15  16
ATOM     16  C   UNL d   1     -46.229  12.535  22.950  0.00  0.00     0.099 C 
BRANCH  16  17
ATOM     17  C   UNL d   1     -45.627  12.000  23.124  0.00  0.00     0.286 C 
ATOM     18  N   UNL d   1     -44.906  12.048  22.725  0.00  0.00    -0.204 NA
ATOM     19  O   UNL d   1     -45.743  11.418  23.698  0.00  0.00    -0.265 OA
BRANCH  18  20
ATOM     20  C   UNL d   1     -44.788  12.628  22.152  0.00  0.00     0.127 C 
BRANCH  20  21
ATOM     21  C   UNL d   1     -44.048  12.719  21.801  0.00  0.00     0.119 A 
ATOM     22  O   UNL d   1     -43.409  12.201  21.875  0.00  0.00    -0.304 OA
ATOM     23  C   UNL d   1     -42.783  12.505  21.434  0.00  0.00     0.123 A 
ATOM     24  C   UNL d   1     -43.032  13.210  21.086  0.00  0.00     0.029 A 
ATOM     25  C   UNL d   1     -43.815  13.342  21.313  0.00  0.00     0.028 A 
ENDBRANCH  20  21
ENDBRANCH  18  20
ENDBRANCH  16  17
ENDBRANCH  15  16
ENDBRANCH   4  15
TORSDOF 5
ENDMDL
MODEL 4
REMARK VINA RESULT:      -6.9      1.637      2.001
REMARK  5 active torsions:
REMARK  status: ('A' for Active; 'I' for Inactive)
REMARK    1  A    between atoms: S_10  and  C_4 
REMARK    2  A    between atoms: C_15  and  S_10 
REMARK    3  A    between atoms: C_11  and  C_15 
REMARK       I    between atoms: N_12  and  C_11 
REMARK    4  A    between atoms: C_16  and  N_12 
REMARK    5  A    between atoms: C_17  and  C_16 
ROOT
ATOM      1  C   UNL d   1     -48.368  12.892  22.900  0.00  0.00     0.141 A 
ATOM      2  C   UNL d   1     -48.894  12.267  23.016  0.00  0.00     0.110 A 
ATOM      3  O   UNL d   1     -48.799  13.544  22.636  0.00  0.00    -0.303 OA
ATOM      4  C   UNL d   1     -47.563  12.786  23.050  0.00  0.00     0.137 A 
ATOM      5  N   UNL d   1     -47.287  12.056  23.316  0.00  0.00    -0.218 NA
ATOM      6  C   UNL d   1     -49.652  12.534  22.824  0.00  0.00     0.043 A 
ATOM      7  N   UNL d   1     -48.618  11.537  23.282  0.00  0.00    -0.225 NA
ATOM      8  C   UNL d   1     -49.593  13.323  22.589  0.00  0.00     0.102 A 
ATOM      9  C   UNL d   1     -47.813  11.431  23.432  0.00  0.00     0.163 A 
ATOM     10  C   UNL d   1     -50.388  12.161  22.832  0.00  0.00     0.004 A 
ATOM     11  C   UNL d   1     -50.269  13.738  22.362  0.00  0.00     0.025 A 
ATOM     12  C   UNL d   1     -47.536  10.702  23.698  0.00  0.00     0.042 C 
ATOM     13  C   UNL d   1     -51.064  12.576  22.605  0.00  0.00     0.000 A 
ATOM     14  C   UNL d   1     -51.004  13.364  22.370  0.00  0.00     0.002 A 
ENDROOT
BRANCH   4  15
ATOM     15  S   UNL d   1     -47.036  13.409  22.934  0.00  0.00    -0.060 SA
BRANCH  15  16
ATOM     16  C   UNL d   1     -46.296  13.265  22.595  0.00  0.00     0.099 C 
BRANCH  16  17
ATOM     17  C   UNL d   1     -45.727  13.861  22.579  0.00  0.00     0.286 C 
ATOM     18  N   UNL d   1     -45.000  13.727  22.213  0.00  0.00    -0.204 NA
ATOM     19  O   UNL d   1     -45.884  14.592  22.930  0.00  0.00    -0.265 OA
BRANCH  18  20
ATOM     20  C   UNL d   1     -44.842  12.999  21.863  0.00  0.00     0.127 C 
BRANCH  20  21
ATOM     21  C   UNL d   1     -44.063  12.761  21.735  0.00  0.00     0.119 A 
ATOM     22  O   UNL d   1     -43.658  12.179  22.159  0.00  0.00    -0.304 OA
ATOM     23  C   UNL d   1     -42.897  12.121  21.848  0.00  0.00     0.123 A 
ATOM     24  C   UNL d   1     -42.830  12.665  21.232  0.00  0.00     0.029 A 
ATOM     25  C   UNL d   1     -43.551  13.061  21.162  0.00  0.00     0.028 A 
ENDBRANCH  20  21
ENDBRANCH  18  20
ENDBRANCH  16  17
ENDBRANCH  15  16
ENDBRANCH   4  15
TORSDOF 5
ENDMDL
MODEL 5
REMARK VINA RESULT:      -6.2      1.202      5.502
REMARK  5 active torsions:
REMARK  status: ('A' for Active; 'I' for Inactive)
REMARK    1  A    between atoms: S_10  and  C_4 
REMARK    2  A    between atoms: C_15  and  S_10 
REMARK    3  A    between atoms: C_11  and  C_15 
REMARK       I    between atoms: N_12  and  C_11 
REMARK    4  A    between atoms: C_16  and  N_12 
REMARK    5  A    between atoms: C_17  and  C_16 
ROOT
ATOM      1  C   UNL d   1     -46.264  11.588  23.429  0.00  0.00     0.141 A 
ATOM      2  C   UNL d   1     -45.533  11.906  23.217  0.00  0.00     0.110 A 
ATOM      3  O   UNL d   1     -46.148  10.800  23.643  0.00  0.00    -0.303 OA
ATOM      4  C   UNL d   1     -46.942  12.057  23.399  0.00  0.00     0.137 A 
ATOM      5  N   UNL d   1     -46.887  12.845  23.158  0.00  0.00    -0.218 NA
ATOM      6  C   UNL d   1     -44.964  11.313  23.301  0.00  0.00     0.043 A 
ATOM      7  N   UNL d   1     -45.478  12.692  22.976  0.00  0.00    -0.225 NA
ATOM      8  C   UNL d   1     -45.345  10.629  23.564  0.00  0.00     0.102 A 
ATOM      9  C   UNL d   1     -46.156  13.162  22.946  0.00  0.00     0.163 A 
ATOM     10  C   UNL d   1     -44.149  11.307  23.171  0.00  0.00     0.004 A 
ATOM     11  C   UNL d   1     -44.910   9.941  23.698  0.00  0.00     0.025 A 
ATOM     12  C   UNL d   1     -46.102  13.949  22.705  0.00  0.00     0.042 C 
ATOM     13  C   UNL d   1     -43.714  10.618  23.305  0.00  0.00     0.000 A 
ATOM     14  C   UNL d   1     -44.095   9.936  23.568  0.00  0.00     0.002 A 
ENDROOT
BRANCH   4  15
ATOM     15  S   UNL d   1     -47.673  11.742  23.611  0.00  0.00    -0.060 SA
BRANCH  15  16
ATOM     16  C   UNL d   1     -48.332  12.236  23.678  0.00  0.00     0.099 C 
BRANCH  16  17
ATOM     17  C   UNL d   1     -49.092  11.921  23.623  0.00  0.00     0.286 C 
ATOM     18  N   UNL d   1     -49.738  12.421  23.504  0.00  0.00    -0.204 NA
ATOM     19  O   UNL d   1     -49.206  11.106  23.685  0.00  0.00    -0.265 OA
BRANCH  18  20
ATOM     20  C   UNL d   1     -49.625  13.234  23.442  0.00  0.00     0.127 C 
BRANCH  20  21
ATOM     21  C   UNL d   1     -50.164  13.696  23.023  0.00  0.00     0.119 A 
ATOM     22  O   UNL d   1     -50.367  14.478  23.193  0.00  0.00    -0.304 OA
ATOM     23  C   UNL d   1     -50.923  14.723  22.636  0.00  0.00     0.123 A 
ATOM     24  C   UNL d   1     -51.064  14.095  22.121  0.00  0.00     0.029 A 
ATOM     25  C   UNL d   1     -50.595  13.459  22.360  0.00  0.00     0.028 A 
ENDBRANCH  20  21
ENDBRANCH  18  20
ENDBRANCH  16  17
ENDBRANCH  15  16
ENDBRANCH   4  15
TORSDOF 5
ENDMDL
MODEL 6
REMARK VINA RESULT:      -6.0      8.055     10.056
REMARK  5 active torsions:
REMARK  status: ('A' for Active; 'I' for Inactive)
REMARK    1  A    between atoms: S_10  and  C_4 
REMARK    2  A    between atoms: C_15  and  S_10 
REMARK    3  A    between atoms: C_11  and  C_15 
REMARK       I    between atoms: N_12  and  C_11 
REMARK    4  A    between atoms: C_16  and  N_12 
REMARK    5  A    between atoms: C_17  and  C_16 
ROOT
ATOM      1  C   UNL d   1     -39.843  14.110  18.260  0.00  0.00     0.141 A 
ATOM      2  C   UNL d   1     -39.672  14.258  17.466  0.00  0.00     0.110 A 
ATOM      3  O   UNL d   1     -39.365  13.486  18.512  0.00  0.00    -0.303 OA
ATOM      4  C   UNL d   1     -40.411  14.562  18.650  0.00  0.00     0.137 A 
ATOM      5  N   UNL d   1     -40.809  15.162  18.246  0.00  0.00    -0.218 NA
ATOM      6  C   UNL d   1     -39.088  13.724  17.228  0.00  0.00     0.043 A 
ATOM      7  N   UNL d   1     -40.069  14.857  17.062  0.00  0.00    -0.225 NA
ATOM      8  C   UNL d   1     -38.898  13.248  17.875  0.00  0.00     0.102 A 
ATOM      9  C   UNL d   1     -40.639  15.310  17.453  0.00  0.00     0.163 A 
ATOM     10  C   UNL d   1     -38.704  13.612  16.506  0.00  0.00     0.004 A 
ATOM     11  C   UNL d   1     -38.325  12.659  17.799  0.00  0.00     0.025 A 
ATOM     12  C   UNL d   1     -41.036  15.909  17.050  0.00  0.00     0.042 C 
ATOM     13  C   UNL d   1     -38.131  13.022  16.431  0.00  0.00     0.000 A 
ATOM     14  C   UNL d   1     -37.942  12.547  17.077  0.00  0.00     0.002 A 
ENDROOT
BRANCH   4  15
ATOM     15  S   UNL d   1     -40.583  14.416  19.443  0.00  0.00    -0.060 SA
BRANCH  15  16
ATOM     16  C   UNL d   1     -40.403  14.984  20.016  0.00  0.00     0.099 C 
BRANCH  16  17
ATOM     17  C   UNL d   1     -40.706  14.911  20.779  0.00  0.00     0.286 C 
ATOM     18  N   UNL d   1     -40.265  15.174  21.425  0.00  0.00    -0.204 NA
ATOM     19  O   UNL d   1     -41.451  14.575  20.897  0.00  0.00    -0.265 OA
BRANCH  18  20
ATOM     20  C   UNL d   1     -39.521  15.509  21.308  0.00  0.00     0.127 C 
BRANCH  20  21
ATOM     21  C   UNL d   1     -39.033  15.668  21.952  0.00  0.00     0.119 A 
ATOM     22  O   UNL d   1     -39.277  15.748  22.737  0.00  0.00    -0.304 OA
ATOM     23  C   UNL d   1     -38.610  15.904  23.196  0.00  0.00     0.123 A 
ATOM     24  C   UNL d   1     -37.954  15.921  22.697  0.00  0.00     0.029 A 
ATOM     25  C   UNL d   1     -38.215  15.775  21.928  0.00  0.00     0.028 A 
ENDBRANCH  20  21
ENDBRANCH  18  20
ENDBRANCH  16  17
ENDBRANCH  15  16
ENDBRANCH   4  15
TORSDOF 5
ENDMDL
MODEL 7
REMARK VINA RESULT:      -5.6      1.673      5.299
REMARK  5 active torsions:
REMARK  status: ('A' for Active; 'I' for Inactive)
REMARK    1  A    between atoms: S_10  and  C_4 
REMARK    2  A    between atoms: C_15  and  S_10 
REMARK    3  A    between atoms: C_11  and  C_15 
REMARK       I    between atoms: N_12  and  C_11 
REMARK    4  A    between atoms: C_16  and  N_12 
REMARK    5  A    between atoms: C_17  and  C_16 
ROOT
ATOM      1  C   UNL d   1     -45.492  13.160  22.418  0.00  0.00     0.141 A 
ATOM      2  C   UNL d   1     -45.105  12.445  22.553  0.00  0.00     0.110 A 
ATOM      3  O   UNL d   1     -44.987  13.646  21.981  0.00  0.00    -0.303 OA
ATOM      4  C   UNL d   1     -46.255  13.279  22.709  0.00  0.00     0.137 A 
ATOM      5  N   UNL d   1     -46.630  12.680  23.136  0.00  0.00    -0.218 NA
ATOM      6  C   UNL d   1     -44.359  12.488  22.200  0.00  0.00     0.043 A 
ATOM      7  N   UNL d   1     -45.480  11.846  22.980  0.00  0.00    -0.225 NA
ATOM      8  C   UNL d   1     -44.287  13.230  21.847  0.00  0.00     0.102 A 
ATOM      9  C   UNL d   1     -46.243  11.964  23.271  0.00  0.00     0.163 A 
ATOM     10  C   UNL d   1     -43.738  11.947  22.155  0.00  0.00     0.004 A 
ATOM     11  C   UNL d   1     -43.593  13.431  21.449  0.00  0.00     0.025 A 
ATOM     12  C   UNL d   1     -46.618  11.367  23.698  0.00  0.00     0.042 C 
ATOM     13  C   UNL d   1     -43.044  12.148  21.757  0.00  0.00     0.000 A 
ATOM     14  C   UNL d   1     -42.972  12.890  21.404  0.00  0.00     0.002 A 
ENDROOT
BRANCH   4  15
ATOM     15  S   UNL d   1     -46.643  13.993  22.574  0.00  0.00    -0.060 SA
BRANCH  15  16
ATOM     16  C   UNL d   1     -47.453  14.057  22.726  0.00  0.00     0.099 C 
BRANCH  16  17
ATOM     17  C   UNL d   1     -47.841  14.772  22.595  0.00  0.00     0.286 C 
ATOM     18  N   UNL d   1     -48.665  14.790  22.538  0.00  0.00    -0.204 NA
ATOM     19  O   UNL d   1     -47.407  15.471  22.520  0.00  0.00    -0.265 OA
BRANCH  18  20
ATOM     20  C   UNL d   1     -49.099  14.094  22.613  0.00  0.00     0.127 C 
BRANCH  20  21
ATOM     21  C   UNL d   1     -49.855  14.041  22.289  0.00  0.00     0.119 A 
ATOM     22  O   UNL d   1     -50.372  14.672  22.159  0.00  0.00    -0.304 OA
ATOM     23  C   UNL d   1     -51.063  14.369  21.828  0.00  0.00     0.123 A 
ATOM     24  C   UNL d   1     -50.976  13.553  21.753  0.00  0.00     0.029 A 
ATOM     25  C   UNL d   1     -50.229  13.350  22.038  0.00  0.00     0.028 A 
ENDBRANCH  20  21
ENDBRANCH  18  20
ENDBRANCH  16  17
ENDBRANCH  15  16
ENDBRANCH   4  15
TORSDOF 5
ENDMDL
