MODEL 1
REMARK VINA RESULT:      77.0      0.000      0.000
REMARK  3 active torsions:
REMARK  status: ('A' for Active; 'I' for Inactive)
REMARK    1  A    between atoms: C_13  and  C_5 
REMARK       I    between atoms: C_7  and  N_12 
REMARK    2  A    between atoms: C_10  and  C_7 
REMARK    3  A    between atoms: N_12  and  C_15 
ROOT
ATOM      1  C   UNL d   1      59.017  49.535  50.737  0.00  0.00     0.021 A 
ATOM      2  C   UNL d   1      57.820  49.526  51.530  0.00  0.00     0.085 A 
ATOM      3  C   UNL d   1      58.643  49.521  51.479  0.00  0.00     0.021 A 
ATOM      4  C   UNL d   1      58.560  49.552  50.054  0.00  0.00     0.002 A 
ATOM      5  C   UNL d   1      57.743  49.556  50.095  0.00  0.00     0.002 A 
ATOM      6  C   UNL d   1      57.369  49.543  50.836  0.00  0.00     0.019 A 
ENDROOT
BRANCH   1   7
ATOM      7  C   UNL d   1      59.841  49.530  50.700  0.00  0.00     0.102 A 
ATOM      8  N   UNL d   1      60.270  49.463  51.410  0.00  0.00    -0.162 NA
ATOM      9  N   UNL d   1      61.105  49.457  51.380  0.00  0.00    -0.189 N 
ATOM     10  C   UNL d   1      61.501  49.519  50.651  0.00  0.00     0.187 A 
ATOM     11  C   UNL d   1      61.664  49.400  51.971  0.00  0.00     0.224 A 
ATOM     12  N   UNL d   1      62.290  49.496  50.815  0.00  0.00    -0.127 NA
ATOM     13  C   UNL d   1      61.050  49.585  49.951  0.00  0.00     0.042 A 
ATOM     14  N   UNL d   1      62.400  49.423  51.626  0.00  0.00    -0.124 NA
ATOM     15  C   UNL d   1      60.221  49.590  49.981  0.00  0.00     0.024 A 
ENDBRANCH   1   7
BRANCH   2  16
ATOM     16  N   UNL d   1      57.451  49.512  52.262  0.00  0.00    -0.206 NA
ATOM     17  C   UNL d   1      57.898  49.591  52.946  0.00  0.00     0.302 C 
ATOM     18  O   UNL d   1      58.718  49.683  52.904  0.00  0.00    -0.263 OA
BRANCH  17  19
ATOM     19  C   UNL d   1      57.527  49.577  53.680  0.00  0.00     0.158 A 
ATOM     20  O   UNL d   1      57.887  49.436  54.405  0.00  0.00    -0.300 OA
ATOM     21  C   UNL d   1      57.312  49.475  54.991  0.00  0.00     0.123 A 
ATOM     22  C   UNL d   1      56.583  49.643  54.627  0.00  0.00     0.029 A 
ATOM     23  C   UNL d   1      56.717  49.705  53.820  0.00  0.00     0.032 A 
ENDBRANCH  17  19
ENDBRANCH   2  16
TORSDOF 3
ENDMDL
