MODEL 1
REMARK VINA RESULT:      65.7      0.000      0.000
REMARK  4 active torsions:
REMARK  status: ('A' for Active; 'I' for Inactive)
REMARK    1  A    between atoms: S_2  and  N_1 
REMARK    2  A    between atoms: N_6  and  S_2 
REMARK    3  A    between atoms: C_10  and  C_3 
REMARK    4  A    between atoms: C_14  and  C_10 
ROOT
ATOM      1  N   UNL d   1      57.955  49.309  50.906  0.00  0.00    -0.201 N 
ATOM      2  C   UNL d   1      57.530  49.576  51.578  0.00  0.00     0.158 A 
ATOM      3  N   UNL d   1      56.744  49.700  51.345  0.00  0.00    -0.226 NA
ATOM      4  C   UNL d   1      57.427  49.274  50.277  0.00  0.00     0.095 A 
ATOM      5  C   UNL d   1      56.683  49.514  50.544  0.00  0.00     0.100 A 
ATOM      6  C   UNL d   1      57.537  49.052  49.492  0.00  0.00     0.020 A 
ATOM      7  C   UNL d   1      56.048  49.529  50.018  0.00  0.00     0.021 A 
ATOM      8  C   UNL d   1      56.902  49.067  48.965  0.00  0.00     0.002 A 
ATOM      9  C   UNL d   1      56.153  49.307  49.228  0.00  0.00     0.002 A 
ENDROOT
BRANCH   1  10
ATOM     10  S   UNL d   1      58.749  49.120  50.885  0.00  0.00     0.338 S 
ATOM     11  O   UNL d   1      58.632  48.533  51.449  0.00  0.00    -0.181 OA
ATOM     12  O   UNL d   1      58.868  49.707  50.319  0.00  0.00    -0.181 OA
BRANCH  10  13
ATOM     13  N   UNL d   1      59.551  48.939  50.854  0.00  0.00    -0.212 N 
ATOM     14  C   UNL d   1      59.794  48.185  50.632  0.00  0.00     0.120 A 
ATOM     15  C   UNL d   1      60.606  48.005  50.602  0.00  0.00     0.142 A 
ATOM     16  O   UNL d   1      61.160  48.586  50.796  0.00  0.00    -0.300 OA
ATOM     17  C   UNL d   1      60.909  49.333  51.015  0.00  0.00     0.142 A 
ATOM     18  C   UNL d   1      60.111  49.513  51.045  0.00  0.00     0.120 A 
ENDBRANCH  10  13
ENDBRANCH   1  10
BRANCH   2  19
ATOM     19  C   UNL d   1      57.843  49.693  52.335  0.00  0.00     0.038 C 
BRANCH  19  20
ATOM     20  C   UNL d   1      57.349  49.641  52.990  0.00  0.00     0.003 A 
ATOM     21  C   UNL d   1      57.670  49.708  53.749  0.00  0.00     0.000 A 
ATOM     22  C   UNL d   1      57.177  49.656  54.404  0.00  0.00     0.000 A 
ATOM     23  C   UNL d   1      56.373  49.540  54.311  0.00  0.00     0.000 A 
ATOM     24  C   UNL d   1      56.050  49.473  53.548  0.00  0.00     0.000 A 
ATOM     25  C   UNL d   1      56.544  49.525  52.889  0.00  0.00     0.000 A 
ENDBRANCH  19  20
ENDBRANCH   2  19
TORSDOF 4
ENDMDL
