MODEL 1
REMARK VINA RESULT:      -5.9      0.000      0.000
REMARK  3 active torsions:
REMARK  status: ('A' for Active; 'I' for Inactive)
REMARK    1  A    between atoms: N_10  and  C_3 
REMARK    2  A    between atoms: C_11  and  C_4 
REMARK    3  A    between atoms: C_12  and  N_10 
ROOT
ATOM      1  C   UNL d   1     -41.467-122.536 -52.829  0.00  0.00     0.167 A 
ATOM      2  N   UNL d   1     -41.382-123.061 -52.193  0.00  0.00    -0.195 N 
ATOM      3  C   UNL d   1     -41.213-122.769 -51.444  0.00  0.00     0.167 A 
ATOM      4  C   UNL d   1     -41.631-122.981 -53.495  0.00  0.00     0.057 A 
ATOM      5  N   UNL d   1     -41.495-123.817 -52.481  0.00  0.00    -0.161 NA
ATOM      6  N   UNL d   1     -41.382-121.729 -52.706  0.00  0.00    -0.227 NA
ATOM      7  C   UNL d   1     -41.128-121.953 -51.326  0.00  0.00     0.058 A 
ATOM      8  C   UNL d   1     -41.647-123.776 -53.272  0.00  0.00     0.124 A 
ATOM      9  C   UNL d   1     -41.212-121.440 -51.949  0.00  0.00     0.086 A 
ATOM     10  C   UNL d   1     -41.124-120.626 -51.814  0.00  0.00     0.021 C 
ENDROOT
BRANCH   3  11
ATOM     11  N   UNL d   1     -41.127-123.293 -50.808  0.00  0.00    -0.227 NA
BRANCH  11  12
ATOM     12  C   UNL d   1     -41.600-123.206 -50.142  0.00  0.00     0.083 A 
ATOM     13  C   UNL d   1     -42.418-123.170 -50.047  0.00  0.00     0.019 A 
ATOM     14  C   UNL d   1     -42.575-123.079 -49.244  0.00  0.00     0.002 A 
ATOM     15  C   UNL d   1     -41.866-123.058 -48.840  0.00  0.00     0.002 A 
ATOM     16  C   UNL d   1     -41.252-123.137 -49.388  0.00  0.00     0.019 A 
ENDBRANCH  11  12
ENDBRANCH   3  11
BRANCH   4  17
ATOM     17  C   UNL d   1     -41.747-122.613 -54.226  0.00  0.00     0.004 A 
ATOM     18  C   UNL d   1     -41.123-122.528 -54.745  0.00  0.00     0.000 A 
ATOM     19  C   UNL d   1     -41.236-122.160 -55.478  0.00  0.00     0.000 A 
ATOM     20  C   UNL d   1     -41.990-121.878 -55.680  0.00  0.00     0.000 A 
ATOM     21  C   UNL d   1     -42.616-121.967 -55.152  0.00  0.00     0.000 A 
ATOM     22  C   UNL d   1     -42.494-122.332 -54.431  0.00  0.00     0.000 A 
ENDBRANCH   4  17
TORSDOF 3
ENDMDL
MODEL 2
REMARK VINA RESULT:      -5.1      0.681      4.146
REMARK  3 active torsions:
REMARK  status: ('A' for Active; 'I' for Inactive)
REMARK    1  A    between atoms: N_10  and  C_3 
REMARK    2  A    between atoms: C_11  and  C_4 
REMARK    3  A    between atoms: C_12  and  N_10 
ROOT
ATOM      1  C   UNL d   1     -41.503-122.505 -51.271  0.00  0.00     0.167 A 
ATOM      2  N   UNL d   1     -41.408-122.809 -52.036  0.00  0.00    -0.195 N 
ATOM      3  C   UNL d   1     -41.220-122.304 -52.656  0.00  0.00     0.167 A 
ATOM      4  C   UNL d   1     -41.685-123.130 -50.778  0.00  0.00     0.057 A 
ATOM      5  N   UNL d   1     -41.533-123.616 -51.997  0.00  0.00    -0.161 NA
ATOM      6  N   UNL d   1     -41.409-121.700 -51.138  0.00  0.00    -0.227 NA
ATOM      7  C   UNL d   1     -41.127-121.493 -52.515  0.00  0.00     0.058 A 
ATOM      8  C   UNL d   1     -41.702-123.817 -51.234  0.00  0.00     0.124 A 
ATOM      9  C   UNL d   1     -41.220-121.195 -51.767  0.00  0.00     0.086 A 
ATOM     10  C   UNL d   1     -41.124-120.379 -51.643  0.00  0.00     0.021 C 
ENDROOT
BRANCH   3  11
ATOM     11  N   UNL d   1     -41.125-122.608 -53.420  0.00  0.00    -0.227 NA
BRANCH  11  12
ATOM     12  C   UNL d   1     -41.570-122.303 -54.039  0.00  0.00     0.083 A 
ATOM     13  C   UNL d   1     -42.314-121.948 -54.061  0.00  0.00     0.019 A 
ATOM     14  C   UNL d   1     -42.477-121.750 -54.844  0.00  0.00     0.002 A 
ATOM     15  C   UNL d   1     -41.844-121.977 -55.307  0.00  0.00     0.002 A 
ATOM     16  C   UNL d   1     -41.273-122.322 -54.817  0.00  0.00     0.019 A 
ENDBRANCH  11  12
ENDBRANCH   3  11
BRANCH   4  17
ATOM     17  C   UNL d   1     -41.814-123.003 -49.971  0.00  0.00     0.004 A 
ATOM     18  C   UNL d   1     -41.204-123.104 -49.438  0.00  0.00     0.000 A 
ATOM     19  C   UNL d   1     -41.330-122.978 -48.629  0.00  0.00     0.000 A 
ATOM     20  C   UNL d   1     -42.083-122.747 -48.366  0.00  0.00     0.000 A 
ATOM     21  C   UNL d   1     -42.693-122.646 -48.909  0.00  0.00     0.000 A 
ATOM     22  C   UNL d   1     -42.559-122.774 -49.705  0.00  0.00     0.000 A 
ENDBRANCH   4  17
TORSDOF 3
ENDMDL
