MODEL 1
REMARK VINA RESULT:      56.0      0.000      0.000
REMARK  5 active torsions:
REMARK  status: ('A' for Active; 'I' for Inactive)
REMARK    1  A    between atoms: C_7  and  N_1 
REMARK    2  A    between atoms: C_23  and  C_5 
REMARK    3  A    between atoms: C_22  and  C_6 
REMARK    4  A    between atoms: C_8  and  C_7 
REMARK       I    between atoms: N_11  and  C_8 
REMARK    5  A    between atoms: C_17  and  N_11 
ROOT
ATOM      1  C   UNL d   1     -49.742  27.243  33.312  0.00  0.00     0.148 C 
ENDROOT
BRANCH   1   2
ATOM      2  N   UNL d   1     -50.132  26.515  33.319  0.00  0.00    -0.235 N 
ATOM      3  C   UNL d   1     -49.692  25.812  33.329  0.00  0.00     0.273 A 
ATOM      4  C   UNL d   1     -50.078  25.090  33.337  0.00  0.00     0.086 A 
ATOM      5  O   UNL d   1     -48.864  25.842  33.332  0.00  0.00    -0.266 OA
ATOM      6  S   UNL d   1     -50.897  25.050  33.334  0.00  0.00    -0.077 SA
ATOM      7  C   UNL d   1     -51.337  25.744  33.324  0.00  0.00     0.086 A 
ATOM      8  C   UNL d   1     -50.962  26.480  33.317  0.00  0.00     0.273 A 
ATOM      9  O   UNL d   1     -51.400  27.178  33.307  0.00  0.00    -0.266 OA
BRANCH   4  10
ATOM     10  C   UNL d   1     -49.634  24.385  33.347  0.00  0.00     0.011 C 
ATOM     11  C   UNL d   1     -50.019  23.655  33.310  0.00  0.00     0.001 C 
ENDBRANCH   4  10
BRANCH   7  12
ATOM     12  C   UNL d   1     -52.162  25.711  33.321  0.00  0.00     0.011 C 
ATOM     13  C   UNL d   1     -52.545  24.984  33.412  0.00  0.00     0.001 C 
ENDBRANCH   7  12
ENDBRANCH   1   2
BRANCH   1  14
ATOM     14  C   UNL d   1     -49.479  27.574  34.019  0.00  0.00     0.297 C 
ATOM     15  N   UNL d   1     -48.868  28.117  34.008  0.00  0.00    -0.207 NA
ATOM     16  O   UNL d   1     -49.836  27.352  34.730  0.00  0.00    -0.264 OA
BRANCH  15  17
ATOM     17  C   UNL d   1     -48.604  28.448  34.715  0.00  0.00     0.087 A 
ATOM     18  C   UNL d   1     -47.930  28.921  34.721  0.00  0.00     0.045 A 
ATOM     19  C   UNL d   1     -47.660  29.255  35.417  0.00  0.00     0.121 A 
ATOM     20  O   UNL d   1     -47.013  29.744  35.591  0.00  0.00    -0.299 OA
ATOM     21  C   UNL d   1     -48.066  29.117  36.123  0.00  0.00     0.119 A 
ATOM     22  C   UNL d   1     -47.026  29.904  36.406  0.00  0.00     0.304 A 
ATOM     23  O   UNL d   1     -47.675  29.515  36.722  0.00  0.00    -0.300 OA
ATOM     24  C   UNL d   1     -48.744  28.639  36.110  0.00  0.00     0.028 A 
ATOM     25  C   UNL d   1     -49.012  28.307  35.411  0.00  0.00     0.021 A 
ENDBRANCH  15  17
ENDBRANCH   1  14
TORSDOF 5
ENDMDL
