MODEL 1
REMARK VINA RESULT:      61.3      0.000      0.000
REMARK  5 active torsions:
REMARK  status: ('A' for Active; 'I' for Inactive)
REMARK    1  A    between atoms: S_2  and  C_1 
REMARK    2  A    between atoms: N_8  and  S_2 
REMARK    3  A    between atoms: C_11  and  C_16 
REMARK    4  A    between atoms: O_22  and  C_11 
REMARK    5  A    between atoms: C_23  and  O_22 
ROOT
ATOM      1  S   UNL d   1     -55.576-102.179 -40.926  0.00  0.00     0.277 S 
ATOM      2  O   UNL d   1     -56.003-101.472 -40.866  0.00  0.00    -0.199 OA
ATOM      3  O   UNL d   1     -55.150-102.878 -40.998  0.00  0.00    -0.199 OA
ENDROOT
BRANCH   1   4
ATOM      4  C   UNL d   1     -55.740-102.354 -40.138  0.00  0.00     0.178 A 
ATOM      5  C   UNL d   1     -56.517-102.526 -39.917  0.00  0.00     0.282 A 
ATOM      6  N   UNL d   1     -56.679-102.700 -39.132  0.00  0.00    -0.224 N 
ATOM      7  O   UNL d   1     -57.108-102.524 -40.468  0.00  0.00    -0.266 OA
ATOM      8  C   UNL d   1     -57.456-102.871 -38.916  0.00  0.00     0.107 C 
ATOM      9  C   UNL d   1     -56.078-102.702 -38.573  0.00  0.00     0.342 A 
ATOM     10  N   UNL d   1     -55.313-102.532 -38.795  0.00  0.00    -0.255 N 
ATOM     11  O   UNL d   1     -56.239-102.877 -37.783  0.00  0.00    -0.245 OA
ATOM     12  C   UNL d   1     -55.140-102.356 -39.579  0.00  0.00     0.102 A 
ATOM     13  C   UNL d   1     -54.715-102.534 -38.239  0.00  0.00     0.104 C 
ENDBRANCH   1   4
BRANCH   1  14
ATOM     14  N   UNL d   1     -55.405-102.014 -41.717  0.00  0.00    -0.229 N 
ATOM     15  C   UNL d   1     -54.876-101.382 -41.912  0.00  0.00     0.092 A 
ATOM     16  C   UNL d   1     -54.714-101.229 -42.718  0.00  0.00     0.025 A 
ATOM     17  C   UNL d   1     -55.066-101.689 -43.323  0.00  0.00     0.067 A 
ATOM     18  C   UNL d   1     -55.586-102.310 -43.130  0.00  0.00     0.025 A 
ATOM     19  C   UNL d   1     -55.758-102.475 -42.322  0.00  0.00     0.092 A 
BRANCH  17  20
ATOM     20  C   UNL d   1     -54.900-101.529 -44.102  0.00  0.00     0.300 C 
ATOM     21  O   UNL d   1     -54.924-102.115 -44.640  0.00  0.00    -0.259 OA
BRANCH  20  22
ATOM     22  O   UNL d   1     -54.712-100.773 -44.317  0.00  0.00    -0.271 OA
BRANCH  22  23
ATOM     23  C   UNL d   1     -55.254-100.290 -44.623  0.00  0.00     0.126 C 
ATOM     24  C   UNL d   1     -55.083 -99.515 -44.745  0.00  0.00     0.029 C 
ENDBRANCH  22  23
ENDBRANCH  20  22
ENDBRANCH  17  20
ENDBRANCH   1  14
TORSDOF 5
ENDMDL
