MODEL 1
REMARK VINA RESULT:      -2.0      0.000      0.000
REMARK  3 active torsions:
REMARK  status: ('A' for Active; 'I' for Inactive)
REMARK    1  A    between atoms: C_10  and  C_2 
REMARK    2  A    between atoms: C_4  and  C_10 
REMARK    3  A    between atoms: C_27  and  N_13 
ROOT
ATOM      1  C   UNL d   1     -41.335-121.902 -51.262  0.00  0.00     0.093 A 
ATOM      2  C   UNL d   1     -41.326-123.059 -50.069  0.00  0.00     0.035 A 
ATOM      3  C   UNL d   1     -41.385-122.651 -51.473  0.00  0.00    -0.012 A 
ATOM      4  C   UNL d   1     -41.498-122.435 -53.685  0.00  0.00     0.056 A 
ATOM      5  C   UNL d   1     -41.275-122.304 -49.848  0.00  0.00     0.180 A 
ATOM      6  C   UNL d   1     -41.548-123.175 -53.894  0.00  0.00    -0.012 A 
ATOM      7  C   UNL d   1     -41.443-122.251 -52.879  0.00  0.00    -0.016 A 
ATOM      8  C   UNL d   1     -41.439-122.824 -52.286  0.00  0.00    -0.007 A 
ATOM      9  C   UNL d   1     -41.380-123.224 -50.879  0.00  0.00    -0.001 A 
ATOM     10  C   UNL d   1     -41.543-123.751 -53.292  0.00  0.00    -0.004 A 
ATOM     11  C   UNL d   1     -41.339-121.327 -51.864  0.00  0.00    -0.016 A 
ATOM     12  C   UNL d   1     -41.489-123.575 -52.488  0.00  0.00    -0.001 A 
ATOM     13  C   UNL d   1     -41.394-121.503 -52.669  0.00  0.00    -0.007 A 
ATOM     14  C   UNL d   1     -41.502-121.863 -54.279  0.00  0.00    -0.015 A 
ATOM     15  C   UNL d   1     -41.604-123.363 -54.720  0.00  0.00     0.038 A 
ATOM     16  O   UNL d   1     -41.219-121.974 -49.143  0.00  0.00    -0.291 OA
ATOM     17  C   UNL d   1     -41.284-121.145 -51.049  0.00  0.00     0.017 C 
ATOM     18  C   UNL d   1     -41.557-122.023 -55.106  0.00  0.00     0.038 A 
ATOM     19  C   UNL d   1     -41.608-122.780 -55.319  0.00  0.00     0.195 A 
ATOM     20  C   UNL d   1     -41.430-121.410 -53.407  0.00  0.00     0.013 C 
ATOM     21  O   UNL d   1     -41.661-122.960 -56.106  0.00  0.00    -0.287 OA
ENDROOT
BRANCH   2  22
ATOM     22  C   UNL d   1     -41.325-123.648 -49.516  0.00  0.00     0.006 C 
BRANCH  22  23
ATOM     23  C   UNL d   1     -41.878-123.688 -48.910  0.00  0.00     0.039 A 
ATOM     24  C   UNL d   1     -41.865-123.746 -48.107  0.00  0.00     0.085 A 
ATOM     25  N   UNL d   1     -42.662-123.761 -47.840  0.00  0.00    -0.228 N 
ATOM     26  C   UNL d   1     -41.125-123.780 -47.707  0.00  0.00     0.021 C 
ATOM     27  N   UNL d   1     -43.172-123.711 -48.480  0.00  0.00    -0.164 NA
ATOM     28  C   UNL d   1     -42.683-123.666 -49.149  0.00  0.00     0.122 A 
BRANCH  25  29
ATOM     29  C   UNL d   1     -42.893-123.817 -47.035  0.00  0.00     0.101 C 
ATOM     30  C   UNL d   1     -43.712-123.736 -46.821  0.00  0.00     0.022 C 
ENDBRANCH  25  29
ENDBRANCH  22  23
ENDBRANCH   2  22
TORSDOF 3
ENDMDL
