MODEL 1
REMARK VINA RESULT:      21.5      0.000      0.000
REMARK  4 active torsions:
REMARK  status: ('A' for Active; 'I' for Inactive)
REMARK    1  A    between atoms: C_9  and  N_1 
REMARK    2  A    between atoms: C_2  and  C_9 
REMARK    3  A    between atoms: S_13  and  C_5 
REMARK    4  A    between atoms: C_17  and  S_13 
ROOT
ATOM      1  N   UNL d   1      45.250 -13.574  44.263  0.00  0.00    -0.265 N 
ATOM      2  C   UNL d   1      45.965 -13.178  44.391  0.00  0.00     0.296 A 
ATOM      3  S   UNL d   1      46.001 -12.553  43.859  0.00  0.00    -0.025 SA
ATOM      4  C   UNL d   1      44.845 -13.201  43.658  0.00  0.00     0.074 A 
ATOM      5  C   UNL d   1      45.303 -12.568  43.403  0.00  0.00     0.050 A 
ATOM      6  O   UNL d   1      46.534 -13.377  44.950  0.00  0.00    -0.259 OA
ATOM      7  C   UNL d   1      44.112 -13.349  43.298  0.00  0.00     0.018 A 
ATOM      8  C   UNL d   1      45.036 -12.081  42.790  0.00  0.00     0.008 A 
ATOM      9  C   UNL d   1      43.842 -12.866  42.686  0.00  0.00     0.002 A 
ATOM     10  C   UNL d   1      44.314 -12.229  42.437  0.00  0.00     0.001 A 
ENDROOT
BRANCH   1  11
ATOM     11  C   UNL d   1      44.983 -14.238  44.675  0.00  0.00     0.123 C 
BRANCH  11  12
ATOM     12  C   UNL d   1      45.455 -14.900  44.742  0.00  0.00     0.189 A 
ATOM     13  N   UNL d   1      45.114 -15.640  44.816  0.00  0.00    -0.265 N 
ATOM     14  C   UNL d   1      45.719 -16.194  44.873  0.00  0.00     0.201 A 
ATOM     15  C   UNL d   1      44.309 -15.815  44.832  0.00  0.00     0.103 C 
ATOM     16  N   UNL d   1      46.436 -15.794  44.834  0.00  0.00    -0.121 NA
ATOM     17  N   UNL d   1      46.269 -14.993  44.753  0.00  0.00    -0.126 NA
BRANCH  14  18
ATOM     18  S   UNL d   1      45.627 -17.008  44.954  0.00  0.00    -0.048 SA
BRANCH  18  19
ATOM     19  C   UNL d   1      46.158 -17.529  44.599  0.00  0.00     0.038 C 
ATOM     20  C   UNL d   1      45.970 -18.329  44.520  0.00  0.00     0.008 C 
ENDBRANCH  18  19
ENDBRANCH  14  18
ENDBRANCH  11  12
ENDBRANCH   1  11
TORSDOF 4
ENDMDL
