MODEL 1
REMARK VINA RESULT:      -2.4      0.000      0.000
REMARK  5 active torsions:
REMARK  status: ('A' for Active; 'I' for Inactive)
REMARK    1  A    between atoms: C_2  and  S_1 
REMARK    2  A    between atoms: N_3  and  S_1 
REMARK    3  A    between atoms: C_4  and  N_3 
REMARK    4  A    between atoms: O_16  and  C_9 
REMARK    5  A    between atoms: O_17  and  C_14 
ROOT
ATOM      1  C   UNL d   1      31.358  17.068 -24.349  0.00  0.00     0.118 A 
ATOM      2  C   UNL d   1      31.545  16.410 -23.888  0.00  0.00     0.046 A 
ATOM      3  C   UNL d   1      31.898  17.684 -24.426  0.00  0.00     0.113 A 
ATOM      4  C   UNL d   1      32.629  17.644 -24.042  0.00  0.00     0.028 A 
ATOM      5  C   UNL d   1      32.272  16.368 -23.504  0.00  0.00     0.096 A 
ATOM      6  C   UNL d   1      32.817  16.986 -23.581  0.00  0.00     0.026 A 
ENDROOT
BRANCH   1   7
ATOM      7  N   UNL d   1      30.620  17.117 -24.741  0.00  0.00    -0.156 NA
BRANCH   7   8
ATOM      8  S   UNL d   1      29.961  16.696 -24.444  0.00  0.00     0.291 S 
ATOM      9  O   UNL d   1      29.770  17.344 -23.971  0.00  0.00    -0.198 OA
ATOM     10  O   UNL d   1      30.158  16.051 -24.920  0.00  0.00    -0.198 OA
BRANCH   8  11
ATOM     11  C   UNL d   1      29.310  16.283 -24.149  0.00  0.00     0.135 A 
ATOM     12  S   UNL d   1      28.750  16.652 -23.877  0.00  0.00    -0.073 SA
ATOM     13  C   UNL d   1      28.184  16.278 -23.621  0.00  0.00     0.036 A 
ATOM     14  C   UNL d   1      28.179  15.556 -23.638  0.00  0.00     0.008 A 
ATOM     15  C   UNL d   1      29.301  15.568 -24.165  0.00  0.00     0.020 A 
ENDBRANCH   8  11
ENDBRANCH   7   8
ENDBRANCH   1   7
BRANCH   3  16
ATOM     16  O   UNL d   1      31.711  18.342 -24.887  0.00  0.00    -0.327 OA
ATOM     17  C   UNL d   1      32.298  18.880 -25.097  0.00  0.00     0.181 C 
ENDBRANCH   3  16
BRANCH   5  18
ATOM     18  O   UNL d   1      32.459  15.709 -23.043  0.00  0.00    -0.328 OA
ATOM     19  C   UNL d   1      33.240  15.458 -22.983  0.00  0.00     0.181 C 
ENDBRANCH   5  18
TORSDOF 5
ENDMDL
MODEL 2
REMARK VINA RESULT:      -2.2      1.121      1.779
REMARK  5 active torsions:
REMARK  status: ('A' for Active; 'I' for Inactive)
REMARK    1  A    between atoms: C_2  and  S_1 
REMARK    2  A    between atoms: N_3  and  S_1 
REMARK    3  A    between atoms: C_4  and  N_3 
REMARK    4  A    between atoms: O_16  and  C_9 
REMARK    5  A    between atoms: O_17  and  C_14 
ROOT
ATOM      1  C   UNL d   1      31.828  17.035 -24.567  0.00  0.00     0.118 A 
ATOM      2  C   UNL d   1      31.806  17.733 -24.127  0.00  0.00     0.046 A 
ATOM      3  C   UNL d   1      32.497  16.556 -24.547  0.00  0.00     0.113 A 
ATOM      4  C   UNL d   1      33.148  16.772 -24.085  0.00  0.00     0.028 A 
ATOM      5  C   UNL d   1      32.453  17.951 -23.666  0.00  0.00     0.096 A 
ATOM      6  C   UNL d   1      33.126  17.470 -23.645  0.00  0.00     0.026 A 
ENDROOT
BRANCH   1   7
ATOM      7  N   UNL d   1      31.174  16.809 -25.037  0.00  0.00    -0.156 NA
BRANCH   7   8
ATOM      8  S   UNL d   1      30.397  16.876 -24.733  0.00  0.00     0.291 S 
ATOM      9  O   UNL d   1      30.327  17.613 -25.097  0.00  0.00    -0.198 OA
ATOM     10  O   UNL d   1      30.475  16.138 -24.371  0.00  0.00    -0.198 OA
BRANCH   8  11
ATOM     11  C   UNL d   1      29.631  16.945 -24.434  0.00  0.00     0.135 A 
ATOM     12  S   UNL d   1      29.350  16.398 -24.052  0.00  0.00    -0.073 SA
ATOM     13  C   UNL d   1      28.676  16.471 -23.795  0.00  0.00     0.036 A 
ATOM     14  C   UNL d   1      28.296  17.072 -23.916  0.00  0.00     0.008 A 
ATOM     15  C   UNL d   1      29.252  17.540 -24.552  0.00  0.00     0.020 A 
ENDBRANCH   8  11
ENDBRANCH   7   8
ENDBRANCH   1   7
BRANCH   3  16
ATOM     16  O   UNL d   1      32.519  15.859 -24.987  0.00  0.00    -0.327 OA
ATOM     17  C   UNL d   1      33.231  15.461 -25.095  0.00  0.00     0.181 C 
ENDBRANCH   3  16
BRANCH   5  18
ATOM     18  O   UNL d   1      32.431  18.648 -23.226  0.00  0.00    -0.328 OA
ATOM     19  C   UNL d   1      33.088  19.143 -23.205  0.00  0.00     0.181 C 
ENDBRANCH   5  18
TORSDOF 5
ENDMDL
MODEL 3
REMARK VINA RESULT:      -1.8      1.321      3.244
REMARK  5 active torsions:
REMARK  status: ('A' for Active; 'I' for Inactive)
REMARK    1  A    between atoms: C_2  and  S_1 
REMARK    2  A    between atoms: N_3  and  S_1 
REMARK    3  A    between atoms: C_4  and  N_3 
REMARK    4  A    between atoms: O_16  and  C_9 
REMARK    5  A    between atoms: O_17  and  C_14 
ROOT
ATOM      1  C   UNL d   1      29.759  17.097 -24.372  0.00  0.00     0.118 A 
ATOM      2  C   UNL d   1      29.757  16.398 -23.935  0.00  0.00     0.046 A 
ATOM      3  C   UNL d   1      29.076  17.551 -24.427  0.00  0.00     0.113 A 
ATOM      4  C   UNL d   1      28.385  17.307 -24.044  0.00  0.00     0.028 A 
ATOM      5  C   UNL d   1      29.070  16.152 -23.552  0.00  0.00     0.096 A 
ATOM      6  C   UNL d   1      28.382  16.608 -23.607  0.00  0.00     0.026 A 
ENDROOT
BRANCH   1   7
ATOM      7  N   UNL d   1      30.455  17.351 -24.762  0.00  0.00    -0.156 NA
BRANCH   7   8
ATOM      8  S   UNL d   1      31.204  17.098 -24.489  0.00  0.00     0.291 S 
ATOM      9  O   UNL d   1      31.246  17.767 -24.008  0.00  0.00    -0.198 OA
ATOM     10  O   UNL d   1      31.155  16.432 -24.972  0.00  0.00    -0.198 OA
BRANCH   8  11
ATOM     11  C   UNL d   1      31.943  16.851 -24.218  0.00  0.00     0.135 A 
ATOM     12  S   UNL d   1      32.251  17.199 -23.663  0.00  0.00    -0.073 SA
ATOM     13  C   UNL d   1      32.900  16.972 -23.434  0.00  0.00     0.036 A 
ATOM     14  C   UNL d   1      33.231  16.414 -23.751  0.00  0.00     0.008 A 
ATOM     15  C   UNL d   1      32.274  16.298 -24.530  0.00  0.00     0.020 A 
ENDBRANCH   8  11
ENDBRANCH   7   8
ENDBRANCH   1   7
BRANCH   3  16
ATOM     16  O   UNL d   1      29.079  18.251 -24.864  0.00  0.00    -0.327 OA
ATOM     17  C   UNL d   1      28.368  18.596 -25.096  0.00  0.00     0.181 C 
ENDBRANCH   3  16
BRANCH   5  18
ATOM     18  O   UNL d   1      29.067  15.453 -23.115  0.00  0.00    -0.328 OA
ATOM     19  C   UNL d   1      28.794  15.453 -22.339  0.00  0.00     0.181 C 
ENDBRANCH   5  18
TORSDOF 5
ENDMDL
MODEL 4
REMARK VINA RESULT:      -1.7      1.430      3.763
REMARK  5 active torsions:
REMARK  status: ('A' for Active; 'I' for Inactive)
REMARK    1  A    between atoms: C_2  and  S_1 
REMARK    2  A    between atoms: N_3  and  S_1 
REMARK    3  A    between atoms: C_4  and  N_3 
REMARK    4  A    between atoms: O_16  and  C_9 
REMARK    5  A    between atoms: O_17  and  C_14 
ROOT
ATOM      1  C   UNL d   1      29.793  16.148 -23.868  0.00  0.00     0.118 A 
ATOM      2  C   UNL d   1      29.710  16.717 -24.459  0.00  0.00     0.046 A 
ATOM      3  C   UNL d   1      29.188  16.028 -23.324  0.00  0.00     0.113 A 
ATOM      4  C   UNL d   1      28.496  16.478 -23.368  0.00  0.00     0.028 A 
ATOM      5  C   UNL d   1      29.022  17.167 -24.506  0.00  0.00     0.096 A 
ATOM      6  C   UNL d   1      28.413  17.048 -23.959  0.00  0.00     0.026 A 
ENDROOT
BRANCH   1   7
ATOM      7  N   UNL d   1      30.490  15.687 -23.817  0.00  0.00    -0.156 NA
BRANCH   7   8
ATOM      8  S   UNL d   1      31.219  16.001 -24.083  0.00  0.00     0.291 S 
ATOM      9  O   UNL d   1      31.144  15.562 -24.778  0.00  0.00    -0.198 OA
ATOM     10  O   UNL d   1      31.287  16.437 -23.386  0.00  0.00    -0.198 OA
BRANCH   8  11
ATOM     11  C   UNL d   1      31.937  16.308 -24.349  0.00  0.00     0.135 A 
ATOM     12  S   UNL d   1      32.368  16.655 -23.882  0.00  0.00    -0.073 SA
ATOM     13  C   UNL d   1      32.996  16.920 -24.127  0.00  0.00     0.036 A 
ATOM     14  C   UNL d   1      33.187  16.841 -24.819  0.00  0.00     0.008 A 
ATOM     15  C   UNL d   1      32.129  16.232 -25.034  0.00  0.00     0.020 A 
ENDBRANCH   8  11
ENDBRANCH   7   8
ENDBRANCH   1   7
BRANCH   3  16
ATOM     16  O   UNL d   1      29.271  15.458 -22.733  0.00  0.00    -0.327 OA
ATOM     17  C   UNL d   1      28.758  15.453 -22.090  0.00  0.00     0.181 C 
ENDBRANCH   3  16
BRANCH   5  18
ATOM     18  O   UNL d   1      28.939  17.737 -25.097  0.00  0.00    -0.328 OA
ATOM     19  C   UNL d   1      29.021  18.535 -24.914  0.00  0.00     0.181 C 
ENDBRANCH   5  18
TORSDOF 5
ENDMDL
MODEL 5
REMARK VINA RESULT:      -1.6      2.151      3.017
REMARK  5 active torsions:
REMARK  status: ('A' for Active; 'I' for Inactive)
REMARK    1  A    between atoms: C_2  and  S_1 
REMARK    2  A    between atoms: N_3  and  S_1 
REMARK    3  A    between atoms: C_4  and  N_3 
REMARK    4  A    between atoms: O_16  and  C_9 
REMARK    5  A    between atoms: O_17  and  C_14 
ROOT
ATOM      1  C   UNL d   1      33.030  19.060 -23.769  0.00  0.00     0.118 A 
ATOM      2  C   UNL d   1      32.971  18.896 -22.963  0.00  0.00     0.046 A 
ATOM      3  C   UNL d   1      33.164  19.831 -24.024  0.00  0.00     0.113 A 
ATOM      4  C   UNL d   1      33.239  20.442 -23.473  0.00  0.00     0.028 A 
ATOM      5  C   UNL d   1      33.045  19.503 -22.412  0.00  0.00     0.096 A 
ATOM      6  C   UNL d   1      33.180  20.278 -22.666  0.00  0.00     0.026 A 
ENDROOT
BRANCH   1   7
ATOM      7  N   UNL d   1      32.955  18.447 -24.334  0.00  0.00    -0.156 NA
BRANCH   7   8
ATOM      8  S   UNL d   1      32.391  17.840 -24.220  0.00  0.00     0.291 S 
ATOM      9  O   UNL d   1      31.848  18.269 -24.669  0.00  0.00    -0.198 OA
ATOM     10  O   UNL d   1      32.939  17.416 -23.771  0.00  0.00    -0.198 OA
BRANCH   8  11
ATOM     11  C   UNL d   1      31.833  17.242 -24.108  0.00  0.00     0.135 A 
ATOM     12  S   UNL d   1      31.274  17.190 -24.564  0.00  0.00    -0.073 SA
ATOM     13  C   UNL d   1      30.791  16.661 -24.455  0.00  0.00     0.036 A 
ATOM     14  C   UNL d   1      30.866  16.197 -23.907  0.00  0.00     0.008 A 
ATOM     15  C   UNL d   1      31.904  16.781 -23.565  0.00  0.00     0.020 A 
ENDBRANCH   8  11
ENDBRANCH   7   8
ENDBRANCH   1   7
BRANCH   3  16
ATOM     16  O   UNL d   1      33.223  19.995 -24.831  0.00  0.00    -0.327 OA
ATOM     17  C   UNL d   1      33.193  20.773 -25.097  0.00  0.00     0.181 C 
ENDBRANCH   3  16
BRANCH   5  18
ATOM     18  O   UNL d   1      32.986  19.339 -21.605  0.00  0.00    -0.328 OA
ATOM     19  C   UNL d   1      33.003  19.952 -21.058  0.00  0.00     0.181 C 
ENDBRANCH   5  18
TORSDOF 5
ENDMDL
