MODEL 1
REMARK VINA RESULT:      65.4      0.000      0.000
REMARK  4 active torsions:
REMARK  status: ('A' for Active; 'I' for Inactive)
REMARK    1  A    between atoms: N_3  and  S_1 
REMARK    2  A    between atoms: C_13  and  S_1 
REMARK    3  A    between atoms: C_2  and  N_3 
REMARK    4  A    between atoms: N_8  and  C_4 
REMARK       I    between atoms: C_10  and  N_9 
ROOT
ATOM      1  C   UNL d   1      13.648  13.201  -2.070  0.00  0.00     0.110 A 
ATOM      2  C   UNL d   1      14.322  14.025  -2.055  0.00  0.00     0.083 A 
ATOM      3  C   UNL d   1      13.882  12.782  -1.405  0.00  0.00     0.020 A 
ATOM      4  C   UNL d   1      14.782  13.880  -1.384  0.00  0.00     0.018 A 
ATOM      5  C   UNL d   1      14.501  13.178  -1.055  0.00  0.00     0.003 A 
ATOM      6  C   UNL d   1      14.847  12.876  -0.369  0.00  0.00     0.000 A 
ATOM      7  C   UNL d   1      13.588  12.073  -1.084  0.00  0.00     0.002 A 
ATOM      8  C   UNL d   1      15.400  14.276  -1.034  0.00  0.00     0.002 A 
ATOM      9  C   UNL d   1      15.763  13.983  -0.337  0.00  0.00     0.000 A 
ATOM     10  C   UNL d   1      13.948  11.779  -0.390  0.00  0.00     0.000 A 
ATOM     11  C   UNL d   1      15.471  13.276  -0.014  0.00  0.00     0.000 A 
ATOM     12  C   UNL d   1      14.572  12.178  -0.035  0.00  0.00     0.000 A 
ENDROOT
BRANCH   1  13
ATOM     13  N   UNL d   1      13.035  12.945  -2.545  0.00  0.00    -0.157 NA
BRANCH  13  14
ATOM     14  S   UNL d   1      13.161  12.717  -3.327  0.00  0.00     0.285 S 
ATOM     15  O   UNL d   1      12.851  13.441  -3.578  0.00  0.00    -0.198 OA
ATOM     16  O   UNL d   1      13.468  12.002  -3.073  0.00  0.00    -0.198 OA
BRANCH  14  17
ATOM     17  C   UNL d   1      13.283  12.497  -4.105  0.00  0.00     0.105 A 
ATOM     18  C   UNL d   1      12.777  12.770  -4.692  0.00  0.00     0.013 A 
ATOM     19  C   UNL d   1      12.884  12.559  -5.485  0.00  0.00     0.001 A 
ATOM     20  C   UNL d   1      13.530  12.053  -5.674  0.00  0.00     0.000 A 
ATOM     21  C   UNL d   1      14.033  11.781  -5.089  0.00  0.00     0.001 A 
ATOM     22  C   UNL d   1      13.914  12.000  -4.309  0.00  0.00     0.013 A 
ENDBRANCH  14  17
ENDBRANCH  13  14
ENDBRANCH   1  13
BRANCH   2  23
ATOM     23  N   UNL d   1      14.466  14.690  -2.510  0.00  0.00    -0.300 N 
ATOM     24  C   UNL d   1      14.507  15.430  -2.145  0.00  0.00     0.100 A 
ATOM     25  C   UNL d   1      14.647  16.071  -2.595  0.00  0.00     0.102 A 
ATOM     26  N   UNL d   1      14.757  16.038  -3.436  0.00  0.00    -0.269 N 
ATOM     27  C   UNL d   1      14.715  15.305  -3.794  0.00  0.00     0.102 A 
ATOM     28  C   UNL d   1      14.902  16.701  -3.906  0.00  0.00     0.265 C 
ATOM     29  C   UNL d   1      14.562  14.597  -3.308  0.00  0.00     0.100 A 
ATOM     30  O   UNL d   1      14.955  17.469  -3.596  0.00  0.00    -0.267 OA
ATOM     31  C   UNL d   1      15.009  16.674  -4.721  0.00  0.00     0.066 C 
ENDBRANCH   2  23
TORSDOF 4
ENDMDL
MODEL 2
REMARK VINA RESULT:      66.2      1.108      3.426
REMARK  4 active torsions:
REMARK  status: ('A' for Active; 'I' for Inactive)
REMARK    1  A    between atoms: N_3  and  S_1 
REMARK    2  A    between atoms: C_13  and  S_1 
REMARK    3  A    between atoms: C_2  and  N_3 
REMARK    4  A    between atoms: N_8  and  C_4 
REMARK       I    between atoms: C_10  and  N_9 
ROOT
ATOM      1  C   UNL d   1      13.337  13.072  -3.227  0.00  0.00     0.110 A 
ATOM      2  C   UNL d   1      13.786  13.994  -3.511  0.00  0.00     0.083 A 
ATOM      3  C   UNL d   1      13.201  12.722  -3.957  0.00  0.00     0.020 A 
ATOM      4  C   UNL d   1      13.800  13.952  -4.335  0.00  0.00     0.018 A 
ATOM      5  C   UNL d   1      13.465  13.226  -4.538  0.00  0.00     0.003 A 
ATOM      6  C   UNL d   1      13.396  13.010  -5.332  0.00  0.00     0.000 A 
ATOM      7  C   UNL d   1      12.861  11.986  -4.146  0.00  0.00     0.002 A 
ATOM      8  C   UNL d   1      14.064  14.456  -4.916  0.00  0.00     0.002 A 
ATOM      9  C   UNL d   1      14.002  14.252  -5.727  0.00  0.00     0.000 A 
ATOM     10  C   UNL d   1      12.798  11.781  -4.954  0.00  0.00     0.000 A 
ATOM     11  C   UNL d   1      13.662  13.519  -5.920  0.00  0.00     0.000 A 
ATOM     12  C   UNL d   1      13.063  12.289  -5.542  0.00  0.00     0.000 A 
ENDROOT
BRANCH   1  13
ATOM     13  N   UNL d   1      13.132  12.702  -2.529  0.00  0.00    -0.157 NA
BRANCH  13  14
ATOM     14  S   UNL d   1      13.702  12.467  -1.981  0.00  0.00     0.285 S 
ATOM     15  O   UNL d   1      13.526  13.134  -1.527  0.00  0.00    -0.198 OA
ATOM     16  O   UNL d   1      13.871  11.807  -2.436  0.00  0.00    -0.198 OA
BRANCH  14  17
ATOM     17  C   UNL d   1      14.265  12.239  -1.434  0.00  0.00     0.105 A 
ATOM     18  C   UNL d   1      14.047  12.108  -0.653  0.00  0.00     0.013 A 
ATOM     19  C   UNL d   1      14.603  11.877  -0.085  0.00  0.00     0.001 A 
ATOM     20  C   UNL d   1      15.402  11.780  -0.332  0.00  0.00     0.000 A 
ATOM     21  C   UNL d   1      15.618  11.911  -1.109  0.00  0.00     0.001 A 
ATOM     22  C   UNL d   1      15.056  12.139  -1.660  0.00  0.00     0.013 A 
ENDBRANCH  14  17
ENDBRANCH  13  14
ENDBRANCH   1  13
BRANCH   2  23
ATOM     23  N   UNL d   1      14.084  14.657  -3.132  0.00  0.00    -0.300 N 
ATOM     24  C   UNL d   1      14.006  15.397  -3.490  0.00  0.00     0.100 A 
ATOM     25  C   UNL d   1      14.299  16.035  -3.116  0.00  0.00     0.102 A 
ATOM     26  N   UNL d   1      14.689  15.998  -2.363  0.00  0.00    -0.269 N 
ATOM     27  C   UNL d   1      14.765  15.265  -2.012  0.00  0.00     0.102 A 
ATOM     28  C   UNL d   1      14.994  16.658  -1.972  0.00  0.00     0.265 C 
ATOM     29  C   UNL d   1      14.447  14.559  -2.416  0.00  0.00     0.100 A 
ATOM     30  O   UNL d   1      14.946  17.426  -2.281  0.00  0.00    -0.267 OA
ATOM     31  C   UNL d   1      15.374  16.627  -1.242  0.00  0.00     0.066 C 
ENDBRANCH   2  23
TORSDOF 4
ENDMDL
