MODEL 1
REMARK VINA RESULT:      -0.4      0.000      0.000
REMARK  9 active torsions:
REMARK  status: ('A' for Active; 'I' for Inactive)
REMARK    1  A    between atoms: C_5  and  C_1 
REMARK    2  A    between atoms: C_10  and  C_2 
REMARK    3  A    between atoms: S_11  and  C_3 
REMARK    4  A    between atoms: C_9  and  C_4 
REMARK       I    between atoms: N_8  and  C_5 
REMARK    5  A    between atoms: C_13  and  N_8 
REMARK    6  A    between atoms: C_18  and  S_11 
REMARK    7  A    between atoms: C_16  and  C_18 
REMARK    8  A    between atoms: C_23  and  C_16 
REMARK    9  A    between atoms: O_25  and  C_20 
ROOT
ATOM      1  C   UNL d   1      58.847  -1.779  29.811  0.00  0.00     0.077 A 
ATOM      2  C   UNL d   1      58.618  -0.461  30.305  0.00  0.00     0.047 A 
ATOM      3  C   UNL d   1      57.859  -0.685  30.551  0.00  0.00     0.112 A 
ATOM      4  C   UNL d   1      59.113  -1.007  29.935  0.00  0.00     0.032 A 
ATOM      5  C   UNL d   1      58.088  -2.003  30.056  0.00  0.00     0.087 A 
ATOM      6  N   UNL d   1      57.593  -1.457  30.427  0.00  0.00    -0.239 NA
ATOM      7  C   UNL d   1      57.809  -2.784  29.935  0.00  0.00     0.021 C 
ENDROOT
BRANCH   1   8
ATOM      8  C   UNL d   1      59.358  -2.326  29.433  0.00  0.00     0.281 C 
ATOM      9  N   UNL d   1      59.242  -3.128  29.544  0.00  0.00    -0.206 NA
ATOM     10  O   UNL d   1      59.966  -2.055  28.960  0.00  0.00    -0.265 OA
BRANCH   9  11
ATOM     11  C   UNL d   1      59.736  -3.666  29.180  0.00  0.00     0.107 A 
ATOM     12  C   UNL d   1      59.433  -4.340  28.830  0.00  0.00     0.112 A 
ATOM     13  C   UNL d   1      59.947  -4.873  28.465  0.00  0.00     0.026 A 
ATOM     14  C   UNL d   1      60.768  -4.722  28.457  0.00  0.00     0.002 A 
ATOM     15  C   UNL d   1      61.065  -4.046  28.808  0.00  0.00     0.002 A 
ATOM     16  C   UNL d   1      60.552  -3.513  29.173  0.00  0.00     0.021 A 
BRANCH  12  17
ATOM     17  O   UNL d   1      58.613  -4.502  28.832  0.00  0.00    -0.327 OA
ATOM     18  C   UNL d   1      58.065  -5.294  28.603  0.00  0.00     0.181 C 
ENDBRANCH  12  17
ENDBRANCH   9  11
ENDBRANCH   1   8
BRANCH   4  19
ATOM     19  C   UNL d   1      59.877  -0.781  29.687  0.00  0.00     0.100 A 
ATOM     20  O   UNL d   1      60.435  -0.547  30.244  0.00  0.00    -0.305 OA
ATOM     21  C   UNL d   1      61.133  -0.359  29.830  0.00  0.00     0.123 A 
ATOM     22  C   UNL d   1      61.009  -0.473  29.047  0.00  0.00     0.029 A 
ATOM     23  C   UNL d   1      60.247  -0.732  28.934  0.00  0.00     0.027 A 
ENDBRANCH   4  19
BRANCH   2  24
ATOM     24  C   UNL d   1      58.897   0.326  30.429  0.00  0.00     0.124 C 
ATOM     25  N   UNL d   1      58.818   0.678  31.161  0.00  0.00    -0.146 N 
ENDBRANCH   2  24
BRANCH   3  26
ATOM     26  S   UNL d   1      57.347  -0.132  30.930  0.00  0.00    -0.064 SA
BRANCH  26  27
ATOM     27  C   UNL d   1      56.776  -0.393  31.452  0.00  0.00     0.079 C 
BRANCH  27  28
ATOM     28  C   UNL d   1      56.650   0.020  32.134  0.00  0.00     0.202 C 
ATOM     29  O   UNL d   1      57.123   0.681  32.305  0.00  0.00    -0.286 OA
BRANCH  28  30
ATOM     30  C   UNL d   1      56.061  -0.210  32.653  0.00  0.00     0.040 A 
ATOM     31  C   UNL d   1      55.677   0.354  33.127  0.00  0.00     0.003 A 
ATOM     32  C   UNL d   1      55.083   0.126  33.651  0.00  0.00     0.000 A 
ATOM     33  C   UNL d   1      54.868  -0.696  33.699  0.00  0.00     0.000 A 
ATOM     34  C   UNL d   1      55.261  -1.239  33.219  0.00  0.00     0.000 A 
ATOM     35  C   UNL d   1      55.850  -1.003  32.702  0.00  0.00     0.003 A 
ENDBRANCH  28  30
ENDBRANCH  27  28
ENDBRANCH  26  27
ENDBRANCH   3  26
TORSDOF 9
ENDMDL
