MODEL 1
REMARK VINA RESULT:       6.1      0.000      0.000
REMARK  5 active torsions:
REMARK  status: ('A' for Active; 'I' for Inactive)
REMARK    1  A    between atoms: O_4  and  C_1 
REMARK    2  A    between atoms: C_11  and  C_2 
REMARK    3  A    between atoms: C_5  and  O_4 
REMARK    4  A    between atoms: C_7  and  C_5 
REMARK    5  A    between atoms: N_10  and  C_11 
ROOT
ATOM      1  C   UNL d   1      58.345  -9.764  30.710  0.00  0.00     0.122 A 
ATOM      2  C   UNL d   1      58.341  -9.763  31.542  0.00  0.00     0.043 A 
ATOM      3  C   UNL d   1      57.629  -9.710  30.291  0.00  0.00     0.105 A 
ATOM      4  C   UNL d   1      56.909  -9.655  30.714  0.00  0.00     0.030 A 
ATOM      5  C   UNL d   1      56.918  -9.655  31.548  0.00  0.00     0.059 A 
ATOM      6  C   UNL d   1      57.655  -9.711  31.945  0.00  0.00     0.015 A 
ATOM      7  N   UNL d   1      57.630  -9.711  29.486  0.00  0.00    -0.242 NA
ATOM      8 CL   UNL d   1      56.219  -9.602  31.958  0.00  0.00    -0.082 Cl
ATOM      9  C   UNL d   1      56.203  -9.602  30.323  0.00  0.00     0.004 A 
ATOM     10  C   UNL d   1      56.905  -9.656  29.082  0.00  0.00     0.099 A 
ATOM     11  C   UNL d   1      56.219  -9.604  29.484  0.00  0.00     0.021 A 
ENDROOT
BRANCH   1  12
ATOM     12  O   UNL d   1      59.048  -9.818  30.298  0.00  0.00    -0.271 OA
BRANCH  12  13
ATOM     13  C   UNL d   1      59.492  -9.156  30.127  0.00  0.00     0.306 C 
ATOM     14  O   UNL d   1      59.355  -8.469  30.576  0.00  0.00    -0.258 OA
BRANCH  13  15
ATOM     15  C   UNL d   1      60.048  -9.173  29.536  0.00  0.00     0.093 A 
ATOM     16  S   UNL d   1      60.097  -8.655  28.933  0.00  0.00    -0.081 SA
ATOM     17  C   UNL d   1      60.744  -8.873  28.456  0.00  0.00     0.036 A 
ATOM     18  C   UNL d   1      61.082  -9.530  28.782  0.00  0.00     0.008 A 
ATOM     19  C   UNL d   1      60.626  -9.720  29.482  0.00  0.00     0.012 A 
ENDBRANCH  13  15
ENDBRANCH  12  13
ENDBRANCH   1  12
BRANCH   2  20
ATOM     20  C   UNL d   1      59.061  -9.817  31.977  0.00  0.00     0.082 C 
BRANCH  20  21
ATOM     21  N   UNL d   1      59.068  -9.597  32.792  0.00  0.00    -0.300 N 
ATOM     22  C   UNL d   1      58.418  -9.813  33.261  0.00  0.00     0.100 A 
ATOM     23  C   UNL d   1      58.418  -9.603  34.054  0.00  0.00     0.100 A 
ATOM     24  N   UNL d   1      59.060  -9.181  34.376  0.00  0.00    -0.299 N 
ATOM     25  C   UNL d   1      59.676  -8.987  33.889  0.00  0.00     0.100 A 
ATOM     26  C   UNL d   1      59.075  -8.960  35.176  0.00  0.00     0.100 C 
ATOM     27  C   UNL d   1      59.695  -9.185  33.105  0.00  0.00     0.100 A 
ENDBRANCH  20  21
ENDBRANCH   2  20
TORSDOF 5
ENDMDL
MODEL 2
REMARK VINA RESULT:       6.3      9.028      9.347
REMARK  5 active torsions:
REMARK  status: ('A' for Active; 'I' for Inactive)
REMARK    1  A    between atoms: O_4  and  C_1 
REMARK    2  A    between atoms: C_11  and  C_2 
REMARK    3  A    between atoms: C_5  and  O_4 
REMARK    4  A    between atoms: C_7  and  C_5 
REMARK    5  A    between atoms: N_10  and  C_11 
ROOT
ATOM      1  C   UNL d   1      58.315  -0.430  30.491  0.00  0.00     0.122 A 
ATOM      2  C   UNL d   1      57.650  -0.282  30.969  0.00  0.00     0.043 A 
ATOM      3  C   UNL d   1      58.425  -1.182  30.155  0.00  0.00     0.105 A 
ATOM      4  C   UNL d   1      57.863  -1.785  30.302  0.00  0.00     0.030 A 
ATOM      5  C   UNL d   1      57.202  -1.624  30.782  0.00  0.00     0.059 A 
ATOM      6  C   UNL d   1      57.115  -0.856  31.109  0.00  0.00     0.015 A 
ATOM      7  N   UNL d   1      59.068  -1.328  29.691  0.00  0.00    -0.242 NA
ATOM      8 CL   UNL d   1      56.656  -2.209  30.925  0.00  0.00    -0.082 Cl
ATOM      9  C   UNL d   1      57.955  -2.522  29.983  0.00  0.00     0.004 A 
ATOM     10  C   UNL d   1      59.164  -2.086  29.362  0.00  0.00     0.099 A 
ATOM     11  C   UNL d   1      58.629  -2.660  29.502  0.00  0.00     0.021 A 
ENDROOT
BRANCH   1  12
ATOM     12  O   UNL d   1      58.863   0.158  30.348  0.00  0.00    -0.271 OA
BRANCH  12  13
ATOM     13  C   UNL d   1      58.978   0.459  29.599  0.00  0.00     0.306 C 
ATOM     14  O   UNL d   1      58.305   0.673  29.158  0.00  0.00    -0.258 OA
BRANCH  13  15
ATOM     15  C   UNL d   1      59.728   0.544  29.299  0.00  0.00     0.093 A 
ATOM     16  S   UNL d   1      59.910   0.600  28.526  0.00  0.00    -0.081 SA
ATOM     17  C   UNL d   1      60.737   0.681  28.461  0.00  0.00     0.036 A 
ATOM     18  C   UNL d   1      61.046   0.673  29.207  0.00  0.00     0.008 A 
ATOM     19  C   UNL d   1      60.387   0.584  29.746  0.00  0.00     0.012 A 
ENDBRANCH  13  15
ENDBRANCH  12  13
ENDBRANCH   1  12
BRANCH   2  20
ATOM     20  C   UNL d   1      57.528   0.477  31.315  0.00  0.00     0.082 C 
BRANCH  20  21
ATOM     21  N   UNL d   1      57.206   0.528  32.094  0.00  0.00    -0.300 N 
ATOM     22  C   UNL d   1      56.386   0.630  32.171  0.00  0.00     0.100 A 
ATOM     23  C   UNL d   1      56.065   0.681  32.925  0.00  0.00     0.100 A 
ATOM     24  N   UNL d   1      56.558   0.630  33.594  0.00  0.00    -0.299 N 
ATOM     25  C   UNL d   1      57.353   0.530  33.480  0.00  0.00     0.100 A 
ATOM     26  C   UNL d   1      56.249   0.680  34.364  0.00  0.00     0.100 C 
ATOM     27  C   UNL d   1      57.688   0.478  32.746  0.00  0.00     0.100 A 
ENDBRANCH  20  21
ENDBRANCH   2  20
TORSDOF 5
ENDMDL
MODEL 3
REMARK VINA RESULT:       8.5      9.144      9.520
REMARK  5 active torsions:
REMARK  status: ('A' for Active; 'I' for Inactive)
REMARK    1  A    between atoms: O_4  and  C_1 
REMARK    2  A    between atoms: C_11  and  C_2 
REMARK    3  A    between atoms: C_5  and  O_4 
REMARK    4  A    between atoms: C_7  and  C_5 
REMARK    5  A    between atoms: N_10  and  C_11 
ROOT
ATOM      1  C   UNL d   1      57.120  -0.455  32.606  0.00  0.00     0.122 A 
ATOM      2  C   UNL d   1      57.102   0.094  33.230  0.00  0.00     0.043 A 
ATOM      3  C   UNL d   1      56.515  -1.021  32.533  0.00  0.00     0.105 A 
ATOM      4  C   UNL d   1      55.892  -1.030  33.091  0.00  0.00     0.030 A 
ATOM      5  C   UNL d   1      55.885  -0.474  33.712  0.00  0.00     0.059 A 
ATOM      6  C   UNL d   1      56.508   0.086  33.762  0.00  0.00     0.015 A 
ATOM      7  N   UNL d   1      56.530  -1.554  31.929  0.00  0.00    -0.242 NA
ATOM      8 CL   UNL d   1      55.280  -0.483  34.254  0.00  0.00    -0.082 Cl
ATOM      9  C   UNL d   1      55.295  -1.573  33.035  0.00  0.00     0.004 A 
ATOM     10  C   UNL d   1      55.917  -2.114  31.871  0.00  0.00     0.099 A 
ATOM     11  C   UNL d   1      55.323  -2.122  32.402  0.00  0.00     0.021 A 
ENDROOT
BRANCH   1  12
ATOM     12  O   UNL d   1      57.729  -0.446  32.061  0.00  0.00    -0.271 OA
BRANCH  12  13
ATOM     13  C   UNL d   1      57.668  -0.030  31.364  0.00  0.00     0.306 C 
ATOM     14  O   UNL d   1      56.996   0.449  31.253  0.00  0.00    -0.258 OA
BRANCH  13  15
ATOM     15  C   UNL d   1      58.249  -0.083  30.799  0.00  0.00     0.093 A 
ATOM     16  S   UNL d   1      58.607   0.535  30.446  0.00  0.00    -0.081 SA
ATOM     17  C   UNL d   1      59.165   0.236  29.904  0.00  0.00     0.036 A 
ATOM     18  C   UNL d   1      59.135  -0.571  29.939  0.00  0.00     0.008 A 
ATOM     19  C   UNL d   1      58.540  -0.772  30.520  0.00  0.00     0.012 A 
ENDBRANCH  13  15
ENDBRANCH  12  13
ENDBRANCH   1  12
BRANCH   2  20
ATOM     20  C   UNL d   1      57.710   0.672  33.314  0.00  0.00     0.082 C 
BRANCH  20  21
ATOM     21  N   UNL d   1      58.183   0.674  34.013  0.00  0.00    -0.300 N 
ATOM     22  C   UNL d   1      59.009   0.672  33.926  0.00  0.00     0.100 A 
ATOM     23  C   UNL d   1      59.476   0.674  34.601  0.00  0.00     0.100 A 
ATOM     24  N   UNL d   1      59.122   0.679  35.355  0.00  0.00    -0.299 N 
ATOM     25  C   UNL d   1      58.315   0.682  35.401  0.00  0.00     0.100 A 
ATOM     26  C   UNL d   1      59.580   0.682  36.048  0.00  0.00     0.100 C 
ATOM     27  C   UNL d   1      57.838   0.680  34.748  0.00  0.00     0.100 A 
ENDBRANCH  20  21
ENDBRANCH   2  20
TORSDOF 5
ENDMDL
MODEL 4
REMARK VINA RESULT:       8.9      9.902     10.603
REMARK  5 active torsions:
REMARK  status: ('A' for Active; 'I' for Inactive)
REMARK    1  A    between atoms: O_4  and  C_1 
REMARK    2  A    between atoms: C_11  and  C_2 
REMARK    3  A    between atoms: C_5  and  O_4 
REMARK    4  A    between atoms: C_7  and  C_5 
REMARK    5  A    between atoms: N_10  and  C_11 
ROOT
ATOM      1  C   UNL d   1      56.926   0.500  33.211  0.00  0.00     0.122 A 
ATOM      2  C   UNL d   1      56.205   0.500  33.627  0.00  0.00     0.043 A 
ATOM      3  C   UNL d   1      57.644   0.559  33.625  0.00  0.00     0.105 A 
ATOM      4  C   UNL d   1      57.633   0.618  34.460  0.00  0.00     0.030 A 
ATOM      5  C   UNL d   1      56.904   0.617  34.865  0.00  0.00     0.059 A 
ATOM      6  C   UNL d   1      56.195   0.557  34.422  0.00  0.00     0.015 A 
ATOM      7  N   UNL d   1      58.343   0.558  33.225  0.00  0.00    -0.242 NA
ATOM      8 CL   UNL d   1      56.894   0.675  35.675  0.00  0.00    -0.082 Cl
ATOM      9  C   UNL d   1      58.322   0.676  34.879  0.00  0.00     0.004 A 
ATOM     10  C   UNL d   1      59.053   0.618  33.655  0.00  0.00     0.099 A 
ATOM     11  C   UNL d   1      59.043   0.675  34.450  0.00  0.00     0.021 A 
ENDROOT
BRANCH   1  12
ATOM     12  O   UNL d   1      56.936   0.442  32.396  0.00  0.00    -0.271 OA
BRANCH  12  13
ATOM     13  C   UNL d   1      56.929  -0.281  32.022  0.00  0.00     0.306 C 
ATOM     14  O   UNL d   1      56.529  -0.909  32.395  0.00  0.00    -0.258 OA
BRANCH  13  15
ATOM     15  C   UNL d   1      57.302  -0.380  31.307  0.00  0.00     0.093 A 
ATOM     16  S   UNL d   1      57.470  -1.081  30.968  0.00  0.00    -0.081 SA
ATOM     17  C   UNL d   1      57.852  -0.933  30.243  0.00  0.00     0.036 A 
ATOM     18  C   UNL d   1      57.910  -0.132  30.153  0.00  0.00     0.008 A 
ATOM     19  C   UNL d   1      57.552   0.221  30.846  0.00  0.00     0.012 A 
ENDBRANCH  13  15
ENDBRANCH  12  13
ENDBRANCH   1  12
BRANCH   2  20
ATOM     20  C   UNL d   1      55.471   0.441  33.217  0.00  0.00     0.082 C 
BRANCH  20  21
ATOM     21  N   UNL d   1      54.750   0.445  33.657  0.00  0.00    -0.300 N 
ATOM     22  C   UNL d   1      54.778   0.207  34.452  0.00  0.00     0.100 A 
ATOM     23  C   UNL d   1      54.082   0.208  34.888  0.00  0.00     0.100 A 
ATOM     24  N   UNL d   1      53.367   0.445  34.532  0.00  0.00    -0.299 N 
ATOM     25  C   UNL d   1      53.378   0.670  33.756  0.00  0.00     0.100 A 
ATOM     26  C   UNL d   1      52.654   0.452  34.959  0.00  0.00     0.100 C 
ATOM     27  C   UNL d   1      54.053   0.676  33.311  0.00  0.00     0.100 A 
ENDBRANCH  20  21
ENDBRANCH   2  20
TORSDOF 5
ENDMDL
