MODEL 1
REMARK VINA RESULT:      37.6      0.000      0.000
REMARK  5 active torsions:
REMARK  status: ('A' for Active; 'I' for Inactive)
REMARK    1  A    between atoms: C_13  and  C_4 
REMARK    2  A    between atoms: C_7  and  S_11 
REMARK    3  A    between atoms: O_14  and  C_7 
REMARK    4  A    between atoms: S_11  and  C_13 
REMARK    5  A    between atoms: C_16  and  O_14 
ROOT
ATOM      1  C   UNL d   1     -51.054  24.534  33.374  0.00  0.00     0.148 A 
ATOM      2  N   UNL d   1     -50.827  23.734  33.342  0.00  0.00    -0.288 N 
ATOM      3  N   UNL d   1     -51.892  24.538  33.396  0.00  0.00    -0.226 NA
ATOM      4  C   UNL d   1     -52.170  23.770  33.379  0.00  0.00     0.107 A 
ATOM      5  C   UNL d   1     -51.504  23.264  33.345  0.00  0.00     0.101 A 
ATOM      6  C   UNL d   1     -50.487  25.132  33.379  0.00  0.00     0.035 A 
ATOM      7  C   UNL d   1     -50.014  23.547  33.315  0.00  0.00     0.082 A 
ATOM      8  C   UNL d   1     -49.453  24.151  33.320  0.00  0.00     0.019 A 
ATOM      9  C   UNL d   1     -49.684  24.938  33.352  0.00  0.00     0.004 A 
ATOM     10  C   UNL d   1     -50.716  25.934  33.411  0.00  0.00     0.003 C 
ENDROOT
BRANCH   4  11
ATOM     11  C   UNL d   1     -52.957  23.525  33.392  0.00  0.00     0.059 C 
BRANCH  11  12
ATOM     12  S   UNL d   1     -53.286  23.234  34.081  0.00  0.00    -0.049 SA
BRANCH  12  13
ATOM     13  C   UNL d   1     -53.659  23.755  34.612  0.00  0.00     0.185 C 
ATOM     14  S   UNL d   1     -53.773  24.534  34.401  0.00  0.00    -0.044 SA
BRANCH  13  15
ATOM     15  O   UNL d   1     -53.910  23.478  35.345  0.00  0.00    -0.288 OA
BRANCH  15  16
ATOM     16  C   UNL d   1     -54.165  23.195  36.073  0.00  0.00     0.124 C 
ATOM     17  C   UNL d   1     -54.105  23.671  36.748  0.00  0.00     0.029 C 
ENDBRANCH  15  16
ENDBRANCH  13  15
ENDBRANCH  12  13
ENDBRANCH  11  12
ENDBRANCH   4  11
TORSDOF 5
ENDMDL
MODEL 2
REMARK VINA RESULT:      39.0      3.043      4.455
REMARK  5 active torsions:
REMARK  status: ('A' for Active; 'I' for Inactive)
REMARK    1  A    between atoms: C_13  and  C_4 
REMARK    2  A    between atoms: C_7  and  S_11 
REMARK    3  A    between atoms: O_14  and  C_7 
REMARK    4  A    between atoms: S_11  and  C_13 
REMARK    5  A    between atoms: C_16  and  O_14 
ROOT
ATOM      1  C   UNL d   1     -51.839  25.471  33.452  0.00  0.00     0.148 A 
ATOM      2  N   UNL d   1     -51.307  24.837  33.364  0.00  0.00    -0.288 N 
ATOM      3  N   UNL d   1     -51.372  26.166  33.475  0.00  0.00    -0.226 NA
ATOM      4  C   UNL d   1     -50.583  25.967  33.404  0.00  0.00     0.107 A 
ATOM      5  C   UNL d   1     -50.539  25.135  33.334  0.00  0.00     0.101 A 
ATOM      6  C   UNL d   1     -52.651  25.335  33.498  0.00  0.00     0.035 A 
ATOM      7  C   UNL d   1     -51.610  24.060  33.323  0.00  0.00     0.082 A 
ATOM      8  C   UNL d   1     -52.422  23.932  33.369  0.00  0.00     0.019 A 
ATOM      9  C   UNL d   1     -52.942  24.563  33.456  0.00  0.00     0.004 A 
ATOM     10  C   UNL d   1     -53.183  25.971  33.587  0.00  0.00     0.003 C 
ENDROOT
BRANCH   4  11
ATOM     11  C   UNL d   1     -49.938  26.483  33.400  0.00  0.00     0.059 C 
BRANCH  11  12
ATOM     12  S   UNL d   1     -49.639  26.770  34.104  0.00  0.00    -0.049 SA
BRANCH  12  13
ATOM     13  C   UNL d   1     -48.895  27.145  34.114  0.00  0.00     0.185 C 
ATOM     14  S   UNL d   1     -48.269  26.811  33.712  0.00  0.00    -0.044 SA
BRANCH  13  15
ATOM     15  O   UNL d   1     -48.799  27.848  34.529  0.00  0.00    -0.288 OA
BRANCH  15  16
ATOM     16  C   UNL d   1     -48.703  28.555  34.936  0.00  0.00     0.124 C 
ATOM     17  C   UNL d   1     -47.947  28.798  35.172  0.00  0.00     0.029 C 
ENDBRANCH  15  16
ENDBRANCH  13  15
ENDBRANCH  12  13
ENDBRANCH  11  12
ENDBRANCH   4  11
TORSDOF 5
ENDMDL
