MODEL 1
REMARK VINA RESULT:      -4.7      0.000      0.000
REMARK  1 active torsions:
REMARK  status: ('A' for Active; 'I' for Inactive)
REMARK    1  A    between atoms: C_2  and  C_1 
ROOT
ATOM      1  C   UNL d   1     -41.892-122.234 -54.408  0.00  0.00     0.169 A 
ATOM      2  N   UNL d   1     -41.852-121.947 -53.646  0.00  0.00    -0.142 NA
ATOM      3  N   UNL d   1     -41.424-122.481 -53.182  0.00  0.00    -0.146 NA
ATOM      4  C   UNL d   1     -41.488-122.954 -54.436  0.00  0.00     0.050 A 
ATOM      5  C   UNL d   1     -41.200-123.106 -53.679  0.00  0.00     0.124 A 
ENDROOT
BRANCH   1   6
ATOM      6  C   UNL d   1     -42.269-121.871 -55.048  0.00  0.00     0.231 C 
ATOM      7  O   UNL d   1     -41.823-121.594 -55.684  0.00  0.00    -0.643 OA
ATOM      8  O   UNL d   1     -43.087-121.788 -55.051  0.00  0.00    -0.643 OA
ENDBRANCH   1   6
TORSDOF 1
ENDMDL
MODEL 2
REMARK VINA RESULT:      -4.7      1.596      1.996
REMARK  1 active torsions:
REMARK  status: ('A' for Active; 'I' for Inactive)
REMARK    1  A    between atoms: C_2  and  C_1 
ROOT
ATOM      1  C   UNL d   1     -41.916-122.286 -54.227  0.00  0.00     0.169 A 
ATOM      2  N   UNL d   1     -42.622-121.879 -54.193  0.00  0.00    -0.142 NA
ATOM      3  N   UNL d   1     -42.839-121.660 -54.960  0.00  0.00    -0.146 NA
ATOM      4  C   UNL d   1     -41.678-122.329 -55.016  0.00  0.00     0.050 A 
ATOM      5  C   UNL d   1     -42.248-121.943 -55.468  0.00  0.00     0.124 A 
ENDROOT
BRANCH   1   6
ATOM      6  C   UNL d   1     -41.504-122.604 -53.584  0.00  0.00     0.231 C 
ATOM      7  O   UNL d   1     -41.122-122.101 -53.053  0.00  0.00    -0.643 OA
ATOM      8  O   UNL d   1     -41.474-123.418 -53.474  0.00  0.00    -0.643 OA
ENDBRANCH   1   6
TORSDOF 1
ENDMDL
MODEL 3
REMARK VINA RESULT:      -3.8      0.949      1.079
REMARK  1 active torsions:
REMARK  status: ('A' for Active; 'I' for Inactive)
REMARK    1  A    between atoms: C_2  and  C_1 
ROOT
ATOM      1  C   UNL d   1     -41.731-122.750 -53.912  0.00  0.00     0.169 A 
ATOM      2  N   UNL d   1     -41.860-123.552 -53.833  0.00  0.00    -0.142 NA
ATOM      3  N   UNL d   1     -41.490-123.813 -53.142  0.00  0.00    -0.146 NA
ATOM      4  C   UNL d   1     -41.277-122.496 -53.271  0.00  0.00     0.050 A 
ATOM      5  C   UNL d   1     -41.128-123.152 -52.796  0.00  0.00     0.124 A 
ENDROOT
BRANCH   1   6
ATOM      6  C   UNL d   1     -42.005-122.269 -54.526  0.00  0.00     0.231 C 
ATOM      7  O   UNL d   1     -41.699-122.362 -55.287  0.00  0.00    -0.643 OA
ATOM      8  O   UNL d   1     -42.581-121.701 -54.380  0.00  0.00    -0.643 OA
ENDBRANCH   1   6
TORSDOF 1
ENDMDL
MODEL 4
REMARK VINA RESULT:      -3.3      2.775      3.104
REMARK  1 active torsions:
REMARK  status: ('A' for Active; 'I' for Inactive)
REMARK    1  A    between atoms: C_2  and  C_1 
ROOT
ATOM      1  C   UNL d   1     -41.623-122.390 -51.504  0.00  0.00     0.169 A 
ATOM      2  N   UNL d   1     -42.328-122.106 -51.208  0.00  0.00    -0.142 NA
ATOM      3  N   UNL d   1     -42.382-122.310 -50.409  0.00  0.00    -0.146 NA
ATOM      4  C   UNL d   1     -41.223-122.778 -50.895  0.00  0.00     0.050 A 
ATOM      5  C   UNL d   1     -41.692-122.729 -50.219  0.00  0.00     0.124 A 
ENDROOT
BRANCH   1   6
ATOM      6  C   UNL d   1     -41.350-122.307 -52.280  0.00  0.00     0.231 C 
ATOM      7  O   UNL d   1     -41.123-121.564 -52.557  0.00  0.00    -0.643 OA
ATOM      8  O   UNL d   1     -41.306-122.963 -52.775  0.00  0.00    -0.643 OA
ENDBRANCH   1   6
TORSDOF 1
ENDMDL
MODEL 5
REMARK VINA RESULT:      -3.2      4.220      4.701
REMARK  1 active torsions:
REMARK  status: ('A' for Active; 'I' for Inactive)
REMARK    1  A    between atoms: C_2  and  C_1 
ROOT
ATOM      1  C   UNL d   1     -42.455-122.683 -50.084  0.00  0.00     0.169 A 
ATOM      2  N   UNL d   1     -42.686-122.176 -50.680  0.00  0.00    -0.142 NA
ATOM      3  N   UNL d   1     -42.034-122.016 -51.161  0.00  0.00    -0.146 NA
ATOM      4  C   UNL d   1     -41.652-122.849 -50.181  0.00  0.00     0.050 A 
ATOM      5  C   UNL d   1     -41.393-122.437 -50.847  0.00  0.00     0.124 A 
ENDROOT
BRANCH   1   6
ATOM      6  C   UNL d   1     -42.937-122.982 -49.482  0.00  0.00     0.231 C 
ATOM      7  O   UNL d   1     -43.451-123.606 -49.641  0.00  0.00    -0.643 OA
ATOM      8  O   UNL d   1     -42.903-122.658 -48.727  0.00  0.00    -0.643 OA
ENDBRANCH   1   6
TORSDOF 1
ENDMDL
MODEL 6
REMARK VINA RESULT:      -2.9     10.210     10.426
REMARK  1 active torsions:
REMARK  status: ('A' for Active; 'I' for Inactive)
REMARK    1  A    between atoms: C_2  and  C_1 
ROOT
ATOM      1  C   UNL d   1     -43.408-114.923 -47.332  0.00  0.00     0.169 A 
ATOM      2  N   UNL d   1     -43.863-114.716 -46.687  0.00  0.00    -0.142 NA
ATOM      3  N   UNL d   1     -44.658-114.844 -46.870  0.00  0.00    -0.146 NA
ATOM      4  C   UNL d   1     -43.912-115.184 -47.931  0.00  0.00     0.050 A 
ATOM      5  C   UNL d   1     -44.684-115.135 -47.646  0.00  0.00     0.124 A 
ENDROOT
BRANCH   1   6
ATOM      6  C   UNL d   1     -42.584-114.880 -47.383  0.00  0.00     0.231 C 
ATOM      7  O   UNL d   1     -42.217-114.148 -47.483  0.00  0.00    -0.643 OA
ATOM      8  O   UNL d   1     -42.132-115.565 -47.335  0.00  0.00    -0.643 OA
ENDBRANCH   1   6
TORSDOF 1
ENDMDL
MODEL 7
REMARK VINA RESULT:      -2.3      5.741      6.150
REMARK  1 active torsions:
REMARK  status: ('A' for Active; 'I' for Inactive)
REMARK    1  A    between atoms: C_2  and  C_1 
ROOT
ATOM      1  C   UNL d   1     -42.530-123.150 -48.667  0.00  0.00     0.169 A 
ATOM      2  N   UNL d   1     -42.572-122.683 -49.334  0.00  0.00    -0.142 NA
ATOM      3  N   UNL d   1     -43.070-123.048 -49.884  0.00  0.00    -0.146 NA
ATOM      4  C   UNL d   1     -43.001-123.818 -48.788  0.00  0.00     0.050 A 
ATOM      5  C   UNL d   1     -43.334-123.754 -49.539  0.00  0.00     0.124 A 
ENDROOT
BRANCH   1   6
ATOM      6  C   UNL d   1     -42.092-122.990 -47.985  0.00  0.00     0.231 C 
ATOM      7  O   UNL d   1     -42.432-122.554 -47.373  0.00  0.00    -0.643 OA
ATOM      8  O   UNL d   1     -41.320-123.263 -47.916  0.00  0.00    -0.643 OA
ENDBRANCH   1   6
TORSDOF 1
ENDMDL
