MODEL 1
REMARK VINA RESULT:      75.5      0.000      0.000
REMARK  3 active torsions:
REMARK  status: ('A' for Active; 'I' for Inactive)
REMARK    1  A    between atoms: C_9  and  C_1 
REMARK    2  A    between atoms: C_11  and  N_5 
REMARK    3  A    between atoms: N_8  and  C_9 
ROOT
ATOM      1  N   UNL d   1      61.243  47.635  50.196  0.00  0.00    -0.301 N 
ATOM      2  N   UNL d   1      60.361  48.958  50.657  0.00  0.00    -0.300 N 
ATOM      3  C   UNL d   1      61.228  48.314  49.717  0.00  0.00     0.100 A 
ATOM      4  C   UNL d   1      60.815  47.622  50.906  0.00  0.00     0.100 A 
ATOM      5  C   UNL d   1      60.783  48.983  49.949  0.00  0.00     0.100 A 
ATOM      6  C   UNL d   1      60.383  48.279  51.125  0.00  0.00     0.100 A 
ENDROOT
BRANCH   2   7
ATOM      7  C   UNL d   1      59.918  49.616  50.894  0.00  0.00     0.084 C 
BRANCH   7   8
ATOM      8  C   UNL d   1      59.118  49.637  50.711  0.00  0.00     0.059 A 
ATOM      9  C   UNL d   1      58.570  49.641  51.332  0.00  0.00     0.214 A 
ATOM     10  C   UNL d   1      57.756  49.662  51.154  0.00  0.00     0.121 A 
ATOM     11  O   UNL d   1      58.815  49.624  52.111  0.00  0.00    -0.285 OA
ATOM     12  N   UNL d   1      57.207  49.666  51.774  0.00  0.00    -0.241 NA
ATOM     13  C   UNL d   1      57.501  49.679  50.369  0.00  0.00     0.032 A 
ATOM     14  C   UNL d   1      56.397  49.687  51.595  0.00  0.00     0.099 A 
ATOM     15  C   UNL d   1      56.142  49.704  50.811  0.00  0.00     0.021 A 
ATOM     16  C   UNL d   1      56.699  49.700  50.205  0.00  0.00     0.004 A 
ATOM     17  C   UNL d   1      58.054  49.675  49.765  0.00  0.00     0.059 A 
ATOM     18  C   UNL d   1      58.864  49.654  49.927  0.00  0.00     0.016 A 
ATOM     19 CL   UNL d   1      57.797  49.692  48.973  0.00  0.00    -0.082 Cl
ENDBRANCH   7   8
ENDBRANCH   2   7
BRANCH   1  20
ATOM     20  C   UNL d   1      61.679  46.985  49.964  0.00  0.00     0.064 A 
ATOM     21  C   UNL d   1      62.226  47.060  49.352  0.00  0.00     0.020 A 
ATOM     22  C   UNL d   1      62.673  46.404  49.111  0.00  0.00     0.031 A 
ATOM     23  C   UNL d   1      62.568  45.669  49.489  0.00  0.00     0.140 A 
ATOM     24  C   UNL d   1      62.018  45.605  50.102  0.00  0.00     0.031 A 
ATOM     25  F   UNL d   1      63.012  45.024  49.248  0.00  0.00    -0.204 F 
ATOM     26  C   UNL d   1      61.576  46.262  50.337  0.00  0.00     0.020 A 
ENDBRANCH   1  20
TORSDOF 3
ENDMDL
