MODEL 1
REMARK VINA RESULT:      -8.7      0.000      0.000
REMARK  6 active torsions:
REMARK  status: ('A' for Active; 'I' for Inactive)
REMARK    1  A    between atoms: C_2  and  N_10 
REMARK    2  A    between atoms: N_8  and  C_2 
REMARK    3  A    between atoms: C_4  and  N_8 
REMARK    4  A    between atoms: N_10  and  C_16 
REMARK    5  A    between atoms: C_22  and  C_13 
REMARK    6  A    between atoms: C_16  and  C_15 
ROOT
ATOM      1  C   UNL d   1      52.838  33.093  53.124  0.00  0.00     0.221 C 
ATOM      2  S   UNL d   1      52.147  33.320  52.736  0.00  0.00    -0.037 SA
ENDROOT
BRANCH   1   3
ATOM      3  N   UNL d   1      52.929  32.312  53.382  0.00  0.00    -0.216 NA
BRANCH   3   4
ATOM      4  C   UNL d   1      52.647  31.683  52.921  0.00  0.00     0.101 C 
BRANCH   4   5
ATOM      5  C   UNL d   1      52.807  30.904  53.148  0.00  0.00     0.019 A 
ATOM      6  C   UNL d   1      52.858  30.304  52.582  0.00  0.00     0.003 A 
ATOM      7  C   UNL d   1      53.018  29.529  52.817  0.00  0.00     0.019 A 
ATOM      8  C   UNL d   1      53.125  29.356  53.611  0.00  0.00     0.081 A 
ATOM      9  C   UNL d   1      53.073  29.955  54.177  0.00  0.00     0.019 A 
ATOM     10  N   UNL d   1      53.289  28.648  54.006  0.00  0.00    -0.246 NA
ATOM     11  C   UNL d   1      52.915  30.726  53.947  0.00  0.00     0.003 A 
ATOM     12  C   UNL d   1      53.205  29.613  54.917  0.00  0.00     0.021 A 
ATOM     13  C   UNL d   1      53.336  28.819  54.814  0.00  0.00     0.082 A 
ATOM     14  C   UNL d   1      53.490  28.278  55.420  0.00  0.00     0.021 C 
ENDBRANCH   4   5
ENDBRANCH   3   4
ENDBRANCH   1   3
BRANCH   1  15
ATOM     15  N   UNL d   1      53.437  33.643  53.255  0.00  0.00    -0.217 NA
BRANCH  15  16
ATOM     16  C   UNL d   1      53.350  34.212  53.842  0.00  0.00     0.084 A 
ATOM     17  C   UNL d   1      52.799  34.820  53.751  0.00  0.00     0.018 A 
ATOM     18  C   UNL d   1      52.712  35.390  54.339  0.00  0.00     0.002 A 
ATOM     19  C   UNL d   1      52.332  34.859  53.067  0.00  0.00     0.002 C 
ATOM     20  C   UNL d   1      53.178  35.356  55.026  0.00  0.00     0.000 A 
ATOM     21  C   UNL d   1      53.728  34.748  55.117  0.00  0.00     0.002 A 
ATOM     22  C   UNL d   1      53.813  34.175  54.522  0.00  0.00     0.018 A 
BRANCH  22  23
ATOM     23  C   UNL d   1      54.364  33.568  54.614  0.00  0.00     0.002 C 
ATOM     24  C   UNL d   1      54.939  33.616  55.192  0.00  0.00     0.000 C 
ENDBRANCH  22  23
ENDBRANCH  15  16
ENDBRANCH   1  15
TORSDOF 6
ENDMDL
MODEL 2
REMARK VINA RESULT:      -8.6      2.800      5.149
REMARK  6 active torsions:
REMARK  status: ('A' for Active; 'I' for Inactive)
REMARK    1  A    between atoms: C_2  and  N_10 
REMARK    2  A    between atoms: N_8  and  C_2 
REMARK    3  A    between atoms: C_4  and  N_8 
REMARK    4  A    between atoms: N_10  and  C_16 
REMARK    5  A    between atoms: C_22  and  C_13 
REMARK    6  A    between atoms: C_16  and  C_15 
ROOT
ATOM      1  C   UNL d   1      52.084  34.056  53.342  0.00  0.00     0.221 C 
ATOM      2  S   UNL d   1      52.593  34.704  53.318  0.00  0.00    -0.037 SA
ENDROOT
BRANCH   1   3
ATOM      3  N   UNL d   1      51.406  34.046  52.868  0.00  0.00    -0.216 NA
BRANCH   3   4
ATOM      4  C   UNL d   1      50.734  34.480  53.089  0.00  0.00     0.101 C 
BRANCH   4   5
ATOM      5  C   UNL d   1      50.101  34.552  52.561  0.00  0.00     0.019 A 
ATOM      6  C   UNL d   1      50.125  34.180  51.824  0.00  0.00     0.003 A 
ATOM      7  C   UNL d   1      49.489  34.258  51.302  0.00  0.00     0.019 A 
ATOM      8  C   UNL d   1      48.836  34.704  51.518  0.00  0.00     0.081 A 
ATOM      9  C   UNL d   1      48.812  35.077  52.254  0.00  0.00     0.019 A 
ATOM     10  N   UNL d   1      48.131  34.879  51.122  0.00  0.00    -0.246 NA
ATOM     11  C   UNL d   1      49.442  35.002  52.774  0.00  0.00     0.003 A 
ATOM     12  C   UNL d   1      48.093  35.479  52.308  0.00  0.00     0.021 A 
ATOM     13  C   UNL d   1      47.678  35.360  51.621  0.00  0.00     0.082 A 
ATOM     14  C   UNL d   1      46.931  35.669  51.455  0.00  0.00     0.021 C 
ENDBRANCH   4   5
ENDBRANCH   3   4
ENDBRANCH   1   3
BRANCH   1  15
ATOM     15  N   UNL d   1      52.250  33.420  53.837  0.00  0.00    -0.217 NA
BRANCH  15  16
ATOM     16  C   UNL d   1      53.024  33.149  53.912  0.00  0.00     0.084 A 
ATOM     17  C   UNL d   1      53.561  33.558  54.385  0.00  0.00     0.018 A 
ATOM     18  C   UNL d   1      54.336  33.287  54.459  0.00  0.00     0.002 A 
ATOM     19  C   UNL d   1      53.326  34.243  54.787  0.00  0.00     0.002 C 
ATOM     20  C   UNL d   1      54.578  32.601  54.058  0.00  0.00     0.000 A 
ATOM     21  C   UNL d   1      54.040  32.191  53.585  0.00  0.00     0.002 A 
ATOM     22  C   UNL d   1      53.261  32.468  53.513  0.00  0.00     0.018 A 
BRANCH  22  23
ATOM     23  C   UNL d   1      52.723  32.059  53.040  0.00  0.00     0.002 C 
ATOM     24  C   UNL d   1      52.846  31.271  52.862  0.00  0.00     0.000 C 
ENDBRANCH  22  23
ENDBRANCH  15  16
ENDBRANCH   1  15
TORSDOF 6
ENDMDL
MODEL 3
REMARK VINA RESULT:      -7.6      0.903      1.701
REMARK  6 active torsions:
REMARK  status: ('A' for Active; 'I' for Inactive)
REMARK    1  A    between atoms: C_2  and  N_10 
REMARK    2  A    between atoms: N_8  and  C_2 
REMARK    3  A    between atoms: C_4  and  N_8 
REMARK    4  A    between atoms: N_10  and  C_16 
REMARK    5  A    between atoms: C_22  and  C_13 
REMARK    6  A    between atoms: C_16  and  C_15 
ROOT
ATOM      1  C   UNL d   1      53.737  33.308  53.319  0.00  0.00     0.221 C 
ATOM      2  S   UNL d   1      54.475  33.424  53.669  0.00  0.00    -0.037 SA
ENDROOT
BRANCH   1   3
ATOM      3  N   UNL d   1      53.382  32.562  53.344  0.00  0.00    -0.216 NA
BRANCH   3   4
ATOM      4  C   UNL d   1      53.801  31.890  53.098  0.00  0.00     0.101 C 
BRANCH   4   5
ATOM      5  C   UNL d   1      53.512  31.136  53.280  0.00  0.00     0.019 A 
ATOM      6  C   UNL d   1      52.924  30.789  52.814  0.00  0.00     0.003 A 
ATOM      7  C   UNL d   1      52.640  30.037  53.003  0.00  0.00     0.019 A 
ATOM      8  C   UNL d   1      52.943  29.636  53.651  0.00  0.00     0.081 A 
ATOM      9  C   UNL d   1      53.530  29.982  54.116  0.00  0.00     0.019 A 
ATOM     10  N   UNL d   1      52.772  28.892  53.970  0.00  0.00    -0.246 NA
ATOM     11  C   UNL d   1      53.814  30.729  53.932  0.00  0.00     0.003 A 
ATOM     12  C   UNL d   1      53.718  29.450  54.719  0.00  0.00     0.021 A 
ATOM     13  C   UNL d   1      53.259  28.787  54.631  0.00  0.00     0.082 A 
ATOM     14  C   UNL d   1      53.279  28.124  55.123  0.00  0.00     0.021 C 
ENDBRANCH   4   5
ENDBRANCH   3   4
ENDBRANCH   1   3
BRANCH   1  15
ATOM     15  N   UNL d   1      53.355  33.935  52.946  0.00  0.00    -0.217 NA
BRANCH  15  16
ATOM     16  C   UNL d   1      52.809  34.389  53.361  0.00  0.00     0.084 A 
ATOM     17  C   UNL d   1      53.039  34.787  54.046  0.00  0.00     0.018 A 
ATOM     18  C   UNL d   1      52.492  35.241  54.463  0.00  0.00     0.002 A 
ATOM     19  C   UNL d   1      53.819  34.732  54.319  0.00  0.00     0.002 C 
ATOM     20  C   UNL d   1      51.708  35.300  54.194  0.00  0.00     0.000 A 
ATOM     21  C   UNL d   1      51.478  34.902  53.508  0.00  0.00     0.002 A 
ATOM     22  C   UNL d   1      52.033  34.445  53.092  0.00  0.00     0.018 A 
BRANCH  22  23
ATOM     23  C   UNL d   1      51.803  34.047  52.407  0.00  0.00     0.002 C 
ATOM     24  C   UNL d   1      51.076  34.197  52.066  0.00  0.00     0.000 C 
ENDBRANCH  22  23
ENDBRANCH  15  16
ENDBRANCH   1  15
TORSDOF 6
ENDMDL
MODEL 4
REMARK VINA RESULT:      -7.4      3.173      4.943
REMARK  6 active torsions:
REMARK  status: ('A' for Active; 'I' for Inactive)
REMARK    1  A    between atoms: C_2  and  N_10 
REMARK    2  A    between atoms: N_8  and  C_2 
REMARK    3  A    between atoms: C_4  and  N_8 
REMARK    4  A    between atoms: N_10  and  C_16 
REMARK    5  A    between atoms: C_22  and  C_13 
REMARK    6  A    between atoms: C_16  and  C_15 
ROOT
ATOM      1  C   UNL d   1      49.794  34.561  52.209  0.00  0.00     0.221 C 
ATOM      2  S   UNL d   1      49.893  34.499  51.393  0.00  0.00    -0.037 SA
ENDROOT
BRANCH   1   3
ATOM      3  N   UNL d   1      50.455  34.627  52.701  0.00  0.00    -0.216 NA
BRANCH   3   4
ATOM      4  C   UNL d   1      51.140  34.187  52.543  0.00  0.00     0.101 C 
BRANCH   4   5
ATOM      5  C   UNL d   1      51.780  34.221  53.067  0.00  0.00     0.019 A 
ATOM      6  C   UNL d   1      52.082  34.949  53.314  0.00  0.00     0.003 A 
ATOM      7  C   UNL d   1      52.720  34.973  53.838  0.00  0.00     0.019 A 
ATOM      8  C   UNL d   1      53.052  34.275  54.112  0.00  0.00     0.081 A 
ATOM      9  C   UNL d   1      52.750  33.547  53.865  0.00  0.00     0.019 A 
ATOM     10  N   UNL d   1      53.681  34.127  54.629  0.00  0.00    -0.246 NA
ATOM     11  C   UNL d   1      52.116  33.519  53.345  0.00  0.00     0.003 A 
ATOM     12  C   UNL d   1      53.194  32.955  54.231  0.00  0.00     0.021 A 
ATOM     13  C   UNL d   1      53.760  33.306  54.695  0.00  0.00     0.082 A 
ATOM     14  C   UNL d   1      54.317  32.904  55.154  0.00  0.00     0.021 C 
ENDBRANCH   4   5
ENDBRANCH   3   4
ENDBRANCH   1   3
BRANCH   1  15
ATOM     15  N   UNL d   1      49.036  34.557  52.533  0.00  0.00    -0.217 NA
BRANCH  15  16
ATOM     16  C   UNL d   1      48.482  35.112  52.288  0.00  0.00     0.084 A 
ATOM     17  C   UNL d   1      48.158  35.066  51.531  0.00  0.00     0.018 A 
ATOM     18  C   UNL d   1      47.602  35.622  51.284  0.00  0.00     0.002 A 
ATOM     19  C   UNL d   1      48.389  34.460  51.014  0.00  0.00     0.002 C 
ATOM     20  C   UNL d   1      47.367  36.232  51.798  0.00  0.00     0.000 A 
ATOM     21  C   UNL d   1      47.691  36.278  52.555  0.00  0.00     0.002 A 
ATOM     22  C   UNL d   1      48.250  35.715  52.799  0.00  0.00     0.018 A 
BRANCH  22  23
ATOM     23  C   UNL d   1      48.574  35.762  53.556  0.00  0.00     0.002 C 
ATOM     24  C   UNL d   1      48.229  36.236  54.125  0.00  0.00     0.000 C 
ENDBRANCH  22  23
ENDBRANCH  15  16
ENDBRANCH   1  15
TORSDOF 6
ENDMDL
MODEL 5
REMARK VINA RESULT:      -7.4      3.935      5.599
REMARK  6 active torsions:
REMARK  status: ('A' for Active; 'I' for Inactive)
REMARK    1  A    between atoms: C_2  and  N_10 
REMARK    2  A    between atoms: N_8  and  C_2 
REMARK    3  A    between atoms: C_4  and  N_8 
REMARK    4  A    between atoms: N_10  and  C_16 
REMARK    5  A    between atoms: C_22  and  C_13 
REMARK    6  A    between atoms: C_16  and  C_15 
ROOT
ATOM      1  C   UNL d   1      48.764  35.145  52.026  0.00  0.00     0.221 C 
ATOM      2  S   UNL d   1      48.487  34.718  51.376  0.00  0.00    -0.037 SA
ENDROOT
BRANCH   1   3
ATOM      3  N   UNL d   1      49.355  34.826  52.507  0.00  0.00    -0.216 NA
BRANCH   3   4
ATOM      4  C   UNL d   1      50.012  34.448  52.169  0.00  0.00     0.101 C 
BRANCH   4   5
ATOM      5  C   UNL d   1      50.625  34.178  52.655  0.00  0.00     0.019 A 
ATOM      6  C   UNL d   1      50.617  33.407  52.951  0.00  0.00     0.003 A 
ATOM      7  C   UNL d   1      51.233  33.145  53.435  0.00  0.00     0.019 A 
ATOM      8  C   UNL d   1      51.850  33.651  53.621  0.00  0.00     0.081 A 
ATOM      9  C   UNL d   1      51.859  34.422  53.326  0.00  0.00     0.019 A 
ATOM     10  N   UNL d   1      52.529  33.549  54.082  0.00  0.00    -0.246 NA
ATOM     11  C   UNL d   1      51.249  34.686  52.845  0.00  0.00     0.003 A 
ATOM     12  C   UNL d   1      52.542  34.790  53.607  0.00  0.00     0.021 A 
ATOM     13  C   UNL d   1      52.950  34.261  54.066  0.00  0.00     0.082 A 
ATOM     14  C   UNL d   1      53.665  34.414  54.450  0.00  0.00     0.021 C 
ENDBRANCH   4   5
ENDBRANCH   3   4
ENDBRANCH   1   3
BRANCH   1  15
ATOM     15  N   UNL d   1      48.450  35.888  52.195  0.00  0.00    -0.217 NA
BRANCH  15  16
ATOM     16  C   UNL d   1      47.663  35.959  52.420  0.00  0.00     0.084 A 
ATOM     17  C   UNL d   1      47.061  35.809  51.876  0.00  0.00     0.018 A 
ATOM     18  C   UNL d   1      46.272  35.880  52.102  0.00  0.00     0.002 A 
ATOM     19  C   UNL d   1      47.248  35.586  51.100  0.00  0.00     0.002 C 
ATOM     20  C   UNL d   1      46.079  36.104  52.879  0.00  0.00     0.000 A 
ATOM     21  C   UNL d   1      46.681  36.254  53.423  0.00  0.00     0.002 A 
ATOM     22  C   UNL d   1      47.475  36.181  53.191  0.00  0.00     0.018 A 
BRANCH  22  23
ATOM     23  C   UNL d   1      48.076  36.331  53.735  0.00  0.00     0.002 C 
ATOM     24  C   UNL d   1      47.909  36.709  54.441  0.00  0.00     0.000 C 
ENDBRANCH  22  23
ENDBRANCH  15  16
ENDBRANCH   1  15
TORSDOF 6
ENDMDL
MODEL 6
REMARK VINA RESULT:      -7.3      3.625      5.986
REMARK  6 active torsions:
REMARK  status: ('A' for Active; 'I' for Inactive)
REMARK    1  A    between atoms: C_2  and  N_10 
REMARK    2  A    between atoms: N_8  and  C_2 
REMARK    3  A    between atoms: C_4  and  N_8 
REMARK    4  A    between atoms: N_10  and  C_16 
REMARK    5  A    between atoms: C_22  and  C_13 
REMARK    6  A    between atoms: C_16  and  C_15 
ROOT
ATOM      1  C   UNL d   1      50.823  34.126  52.814  0.00  0.00     0.221 C 
ATOM      2  S   UNL d   1      51.188  34.074  52.075  0.00  0.00    -0.037 SA
ENDROOT
BRANCH   1   3
ATOM      3  N   UNL d   1      50.039  34.383  52.869  0.00  0.00    -0.216 NA
BRANCH   3   4
ATOM      4  C   UNL d   1      49.691  34.805  52.244  0.00  0.00     0.101 C 
BRANCH   4   5
ATOM      5  C   UNL d   1      48.959  35.174  52.356  0.00  0.00     0.019 A 
ATOM      6  C   UNL d   1      48.801  35.588  53.053  0.00  0.00     0.003 A 
ATOM      7  C   UNL d   1      48.068  35.954  53.158  0.00  0.00     0.019 A 
ATOM      8  C   UNL d   1      47.499  35.906  52.569  0.00  0.00     0.081 A 
ATOM      9  C   UNL d   1      47.657  35.491  51.872  0.00  0.00     0.019 A 
ATOM     10  N   UNL d   1      46.731  36.208  52.516  0.00  0.00    -0.246 NA
ATOM     11  C   UNL d   1      48.384  35.127  51.766  0.00  0.00     0.003 A 
ATOM     12  C   UNL d   1      46.986  35.541  51.394  0.00  0.00     0.021 A 
ATOM     13  C   UNL d   1      46.423  35.977  51.783  0.00  0.00     0.082 A 
ATOM     14  C   UNL d   1      45.671  36.154  51.492  0.00  0.00     0.021 C 
ENDBRANCH   4   5
ENDBRANCH   3   4
ENDBRANCH   1   3
BRANCH   1  15
ATOM     15  N   UNL d   1      51.240  33.923  53.494  0.00  0.00    -0.217 NA
BRANCH  15  16
ATOM     16  C   UNL d   1      52.003  33.622  53.433  0.00  0.00     0.084 A 
ATOM     17  C   UNL d   1      52.121  32.833  53.223  0.00  0.00     0.018 A 
ATOM     18  C   UNL d   1      52.885  32.532  53.162  0.00  0.00     0.002 A 
ATOM     19  C   UNL d   1      51.472  32.341  53.072  0.00  0.00     0.002 C 
ATOM     20  C   UNL d   1      53.540  33.021  53.313  0.00  0.00     0.000 A 
ATOM     21  C   UNL d   1      53.422  33.810  53.523  0.00  0.00     0.002 A 
ATOM     22  C   UNL d   1      52.650  34.110  53.583  0.00  0.00     0.018 A 
BRANCH  22  23
ATOM     23  C   UNL d   1      52.532  34.899  53.793  0.00  0.00     0.002 C 
ATOM     24  C   UNL d   1      53.106  35.306  54.208  0.00  0.00     0.000 C 
ENDBRANCH  22  23
ENDBRANCH  15  16
ENDBRANCH   1  15
TORSDOF 6
ENDMDL
