MODEL 1
REMARK VINA RESULT:      -1.4      0.000      0.000
REMARK  7 active torsions:
REMARK  status: ('A' for Active; 'I' for Inactive)
REMARK    1  A    between atoms: O_8  and  C_2 
REMARK    2  A    between atoms: C_10  and  C_5 
REMARK    3  A    between atoms: C_21  and  O_8 
REMARK    4  A    between atoms: N_9  and  C_10 
REMARK    5  A    between atoms: C_12  and  C_15 
REMARK    6  A    between atoms: O_26  and  C_12 
REMARK    7  A    between atoms: C_32  and  O_26 
ROOT
ATOM      1  C   UNL d   1      33.175  20.336 -23.132  0.00  0.00     0.108 A 
ATOM      2  C   UNL d   1      33.109  18.797 -23.753  0.00  0.00     0.161 A 
ATOM      3  C   UNL d   1      33.142  20.218 -23.960  0.00  0.00     0.064 A 
ATOM      4  C   UNL d   1      33.110  19.458 -24.268  0.00  0.00     0.222 A 
ATOM      5  C   UNL d   1      33.208  21.105 -22.821  0.00  0.00     0.079 A 
ATOM      6  O   UNL d   1      33.176  19.687 -22.615  0.00  0.00    -0.305 OA
ATOM      7  C   UNL d   1      33.142  18.913 -22.932  0.00  0.00     0.126 A 
ATOM      8  C   UNL d   1      33.143  20.882 -24.463  0.00  0.00     0.009 A 
ATOM      9  C   UNL d   1      33.209  21.756 -23.327  0.00  0.00     0.199 A 
ATOM     10  O   UNL d   1      33.077  19.339 -25.084  0.00  0.00    -0.284 OA
ATOM     11  C   UNL d   1      33.176  21.643 -24.152  0.00  0.00     0.042 A 
ATOM     12  O   UNL d   1      33.241  22.515 -23.022  0.00  0.00    -0.286 OA
ATOM     13  C   UNL d   1      33.142  18.262 -22.427  0.00  0.00     0.029 C 
ENDROOT
BRANCH   2  14
ATOM     14  O   UNL d   1      33.077  18.035 -24.065  0.00  0.00    -0.302 OA
BRANCH  14  15
ATOM     15  C   UNL d   1      32.363  17.626 -24.075  0.00  0.00     0.100 A 
ATOM     16  C   UNL d   1      32.249  16.987 -23.568  0.00  0.00     0.025 A 
ATOM     17  C   UNL d   1      31.535  16.578 -23.578  0.00  0.00     0.007 A 
ATOM     18  C   UNL d   1      30.934  16.808 -24.095  0.00  0.00     0.064 A 
ATOM     19  C   UNL d   1      31.055  17.457 -24.606  0.00  0.00     0.007 A 
ATOM     20  C   UNL d   1      31.764  17.859 -24.592  0.00  0.00     0.025 A 
BRANCH  18  21
ATOM     21  C   UNL d   1      30.216  16.400 -24.108  0.00  0.00     0.300 C 
ATOM     22  O   UNL d   1      30.190  15.610 -24.345  0.00  0.00    -0.259 OA
BRANCH  21  23
ATOM     23  O   UNL d   1      29.516  16.778 -23.883  0.00  0.00    -0.271 OA
BRANCH  23  24
ATOM     24  C   UNL d   1      28.844  16.327 -23.723  0.00  0.00     0.126 C 
ATOM     25  C   UNL d   1      28.114  16.692 -23.614  0.00  0.00     0.029 C 
ENDBRANCH  23  24
ENDBRANCH  21  23
ENDBRANCH  18  21
ENDBRANCH  14  15
ENDBRANCH   2  14
BRANCH   5  26
ATOM     26  C   UNL d   1      33.240  21.215 -22.013  0.00  0.00     0.086 C 
BRANCH  26  27
ATOM     27  N   UNL d   1      32.779  21.803 -21.658  0.00  0.00    -0.300 N 
ATOM     28  C   UNL d   1      32.976  22.598 -21.758  0.00  0.00     0.100 A 
ATOM     29  C   UNL d   1      32.518  23.179 -21.405  0.00  0.00     0.100 A 
ATOM     30  N   UNL d   1      31.864  22.975 -20.952  0.00  0.00    -0.299 N 
ATOM     31  C   UNL d   1      31.666  22.176 -20.851  0.00  0.00     0.100 A 
ATOM     32  C   UNL d   1      31.399  23.564 -20.594  0.00  0.00     0.100 C 
ATOM     33  C   UNL d   1      32.127  21.589 -21.206  0.00  0.00     0.100 A 
ENDBRANCH  26  27
ENDBRANCH   5  26
TORSDOF 7
ENDMDL
MODEL 2
REMARK VINA RESULT:      -0.3      0.842      1.488
REMARK  7 active torsions:
REMARK  status: ('A' for Active; 'I' for Inactive)
REMARK    1  A    between atoms: O_8  and  C_2 
REMARK    2  A    between atoms: C_10  and  C_5 
REMARK    3  A    between atoms: C_21  and  O_8 
REMARK    4  A    between atoms: N_9  and  C_10 
REMARK    5  A    between atoms: C_12  and  C_15 
REMARK    6  A    between atoms: O_26  and  C_12 
REMARK    7  A    between atoms: C_32  and  O_26 
ROOT
ATOM      1  C   UNL d   1      32.986  19.976 -22.646  0.00  0.00     0.108 A 
ATOM      2  C   UNL d   1      32.733  18.813 -23.805  0.00  0.00     0.161 A 
ATOM      3  C   UNL d   1      32.862  19.179 -22.422  0.00  0.00     0.064 A 
ATOM      4  C   UNL d   1      32.737  18.605 -22.994  0.00  0.00     0.222 A 
ATOM      5  C   UNL d   1      33.112  20.558 -22.067  0.00  0.00     0.079 A 
ATOM      6  O   UNL d   1      32.984  20.193 -23.447  0.00  0.00    -0.305 OA
ATOM      7  C   UNL d   1      32.856  19.603 -24.029  0.00  0.00     0.126 A 
ATOM      8  C   UNL d   1      32.868  18.982 -21.613  0.00  0.00     0.009 A 
ATOM      9  C   UNL d   1      33.116  20.353 -21.269  0.00  0.00     0.199 A 
ATOM     10  O   UNL d   1      32.615  17.818 -22.775  0.00  0.00    -0.284 OA
ATOM     11  C   UNL d   1      32.993  19.561 -21.041  0.00  0.00     0.042 A 
ATOM     12  O   UNL d   1      33.241  20.925 -20.696  0.00  0.00    -0.286 OA
ATOM     13  C   UNL d   1      32.852  19.808 -24.826  0.00  0.00     0.029 C 
ENDROOT
BRANCH   2  14
ATOM     14  O   UNL d   1      32.608  18.235 -24.377  0.00  0.00    -0.302 OA
BRANCH  14  15
ATOM     15  C   UNL d   1      31.901  17.813 -24.386  0.00  0.00     0.100 A 
ATOM     16  C   UNL d   1      31.882  17.038 -24.107  0.00  0.00     0.025 A 
ATOM     17  C   UNL d   1      31.176  16.616 -24.116  0.00  0.00     0.007 A 
ATOM     18  C   UNL d   1      30.488  16.968 -24.404  0.00  0.00     0.064 A 
ATOM     19  C   UNL d   1      30.512  17.753 -24.685  0.00  0.00     0.007 A 
ATOM     20  C   UNL d   1      31.215  18.168 -24.674  0.00  0.00     0.025 A 
BRANCH  18  21
ATOM     21  C   UNL d   1      29.777  16.548 -24.414  0.00  0.00     0.300 C 
ATOM     22  O   UNL d   1      29.681  15.904 -24.921  0.00  0.00    -0.259 OA
BRANCH  21  23
ATOM     23  O   UNL d   1      29.154  16.766 -23.917  0.00  0.00    -0.271 OA
BRANCH  23  24
ATOM     24  C   UNL d   1      28.407  16.437 -24.032  0.00  0.00     0.126 C 
ATOM     25  C   UNL d   1      27.827  16.506 -23.451  0.00  0.00     0.029 C 
ENDBRANCH  23  24
ENDBRANCH  21  23
ENDBRANCH  18  21
ENDBRANCH  14  15
ENDBRANCH   2  14
BRANCH   5  26
ATOM     26  C   UNL d   1      33.233  21.333 -22.291  0.00  0.00     0.086 C 
BRANCH  26  27
ATOM     27  N   UNL d   1      32.726  21.926 -22.015  0.00  0.00    -0.300 N 
ATOM     28  C   UNL d   1      32.603  22.606 -22.465  0.00  0.00     0.100 A 
ATOM     29  C   UNL d   1      32.100  23.193 -22.190  0.00  0.00     0.100 A 
ATOM     30  N   UNL d   1      31.718  23.108 -21.468  0.00  0.00    -0.299 N 
ATOM     31  C   UNL d   1      31.841  22.425 -21.015  0.00  0.00     0.100 A 
ATOM     32  C   UNL d   1      31.208  23.702 -21.189  0.00  0.00     0.100 C 
ATOM     33  C   UNL d   1      32.348  21.832 -21.291  0.00  0.00     0.100 A 
ENDBRANCH  26  27
ENDBRANCH   5  26
TORSDOF 7
ENDMDL
