MODEL 1
REMARK VINA RESULT:      70.7      0.000      0.000
REMARK  9 active torsions:
REMARK  status: ('A' for Active; 'I' for Inactive)
REMARK    1  A    between atoms: C_17  and  N_4 
REMARK    2  A    between atoms: S_16  and  C_7 
REMARK    3  A    between atoms: S_15  and  C_8 
REMARK    4  A    between atoms: C_11  and  C_19 
REMARK    5  A    between atoms: C_22  and  S_15 
REMARK    6  A    between atoms: C_19  and  S_16 
REMARK    7  A    between atoms: C_20  and  C_22 
REMARK    8  A    between atoms: O_25  and  C_20 
REMARK    9  A    between atoms: C_29  and  O_25 
ROOT
ATOM      1  N   UNL d   1     -54.908-101.003 -42.558  0.00  0.00    -0.269 N 
ATOM      2  C   UNL d   1     -55.027-100.912 -43.382  0.00  0.00     0.201 A 
ATOM      3  C   UNL d   1     -54.860-101.804 -42.394  0.00  0.00     0.177 A 
ATOM      4  N   UNL d   1     -55.052-101.664 -43.724  0.00  0.00    -0.121 NA
ATOM      5  N   UNL d   1     -54.948-102.203 -43.107  0.00  0.00    -0.127 NA
ENDROOT
BRANCH   3   6
ATOM      6  C   UNL d   1     -54.744-102.053 -41.626  0.00  0.00     0.078 C 
BRANCH   6   7
ATOM      7  S   UNL d   1     -55.153-102.710 -41.325  0.00  0.00    -0.045 SA
BRANCH   7   8
ATOM      8  C   UNL d   1     -55.413-102.740 -40.526  0.00  0.00     0.198 A 
ATOM      9  N   UNL d   1     -56.233-102.762 -40.355  0.00  0.00    -0.183 NA
ATOM     10  C   UNL d   1     -56.494-102.792 -39.581  0.00  0.00     0.283 A 
ATOM     11  C   UNL d   1     -55.963-102.801 -38.953  0.00  0.00     0.082 A 
ATOM     12  O   UNL d   1     -57.333-102.813 -39.428  0.00  0.00    -0.265 OA
ATOM     13  C   UNL d   1     -55.152-102.780 -39.101  0.00  0.00     0.117 A 
ATOM     14  C   UNL d   1     -56.064-102.828 -38.150  0.00  0.00     0.013 A 
ATOM     15  N   UNL d   1     -54.863-102.750 -39.873  0.00  0.00    -0.214 NA
ATOM     16  S   UNL d   1     -54.754-102.794 -38.396  0.00  0.00    -0.068 SA
ATOM     17  C   UNL d   1     -55.322-102.824 -37.803  0.00  0.00     0.031 A 
ATOM     18  C   UNL d   1     -55.448-102.852 -36.986  0.00  0.00     0.006 A 
ATOM     19  C   UNL d   1     -56.235-102.873 -36.816  0.00  0.00     0.001 A 
ATOM     20  C   UNL d   1     -56.631-102.858 -37.558  0.00  0.00     0.001 A 
ENDBRANCH   7   8
ENDBRANCH   6   7
ENDBRANCH   3   6
BRANCH   1  21
ATOM     21  C   UNL d   1     -54.853-100.368 -42.031  0.00  0.00     0.067 A 
ATOM     22  C   UNL d   1     -54.788 -99.596 -42.315  0.00  0.00     0.018 A 
ATOM     23  C   UNL d   1     -54.733 -98.959 -41.753  0.00  0.00     0.002 A 
ATOM     24  C   UNL d   1     -54.743 -99.103 -40.948  0.00  0.00     0.000 A 
ATOM     25  C   UNL d   1     -54.808 -99.885 -40.660  0.00  0.00     0.002 A 
ATOM     26  C   UNL d   1     -54.863-100.514 -41.195  0.00  0.00     0.018 A 
ENDBRANCH   1  21
BRANCH   2  27
ATOM     27  S   UNL d   1     -55.113-100.193 -43.834  0.00  0.00    -0.042 SA
BRANCH  27  28
ATOM     28  C   UNL d   1     -55.720-100.150 -44.387  0.00  0.00     0.107 C 
BRANCH  28  29
ATOM     29  C   UNL d   1     -56.507-100.311 -44.162  0.00  0.00     0.307 C 
ATOM     30  O   UNL d   1     -56.750-101.087 -44.014  0.00  0.00    -0.258 OA
BRANCH  29  31
ATOM     31  O   UNL d   1     -57.030 -99.679 -44.093  0.00  0.00    -0.271 OA
BRANCH  31  32
ATOM     32  C   UNL d   1     -57.723 -99.634 -44.548  0.00  0.00     0.126 C 
ATOM     33  C   UNL d   1     -58.226 -98.982 -44.509  0.00  0.00     0.029 C 
ENDBRANCH  31  32
ENDBRANCH  29  31
ENDBRANCH  28  29
ENDBRANCH  27  28
ENDBRANCH   2  27
TORSDOF 9
ENDMDL
