MODEL 1
REMARK VINA RESULT:       4.4      0.000      0.000
REMARK  0 active torsions:
REMARK  status: ('A' for Active; 'I' for Inactive)
ROOT
ATOM      1  N   UNL d   1      45.393 -15.782  36.575  0.00  0.00    -0.183 NA
ATOM      2  C   UNL d   1      45.816 -15.115  36.819  0.00  0.00     0.339 A 
ATOM      3  N   UNL d   1      44.587 -14.437  37.062  0.00  0.00    -0.201 NA
ATOM      4  C   UNL d   1      45.416 -14.449  37.060  0.00  0.00     0.337 A 
ATOM      5  C   UNL d   1      44.570 -15.775  36.575  0.00  0.00     0.184 A 
ATOM      6  C   UNL d   1      44.170 -15.108  36.816  0.00  0.00     0.121 A 
ATOM      7  N   UNL d   1      44.148 -16.441  36.331  0.00  0.00    -0.223 NA
ATOM      8  C   UNL d   1      43.341 -15.096  36.818  0.00  0.00     0.031 A 
ATOM      9  O   UNL d   1      46.647 -15.119  36.820  0.00  0.00    -0.260 OA
ATOM     10  O   UNL d   1      45.840 -13.774  37.307  0.00  0.00    -0.260 OA
ATOM     11  C   UNL d   1      42.922 -15.768  36.572  0.00  0.00     0.055 A 
ATOM     12  C   UNL d   1      43.322 -16.434  36.331  0.00  0.00     0.107 A 
ATOM     13 BR   UNL d   1      42.098 -15.767  36.570  0.00  0.00    -0.048 Br
ENDROOT
TORSDOF 0
ENDMDL
MODEL 2
REMARK VINA RESULT:       7.2      2.062      2.743
REMARK  0 active torsions:
REMARK  status: ('A' for Active; 'I' for Inactive)
ROOT
ATOM      1  N   UNL d   1      44.793 -16.088  36.521  0.00  0.00    -0.183 NA
ATOM      2  C   UNL d   1      43.969 -16.088  36.571  0.00  0.00     0.339 A 
ATOM      3  N   UNL d   1      44.010 -14.765  37.098  0.00  0.00    -0.201 NA
ATOM      4  C   UNL d   1      43.580 -15.432  36.858  0.00  0.00     0.337 A 
ATOM      5  C   UNL d   1      45.224 -15.427  36.760  0.00  0.00     0.184 A 
ATOM      6  C   UNL d   1      44.835 -14.771  37.046  0.00  0.00     0.121 A 
ATOM      7  N   UNL d   1      46.048 -15.427  36.709  0.00  0.00    -0.223 NA
ATOM      8  C   UNL d   1      45.264 -14.104  37.286  0.00  0.00     0.031 A 
ATOM      9  O   UNL d   1      43.531 -16.753  36.332  0.00  0.00    -0.260 OA
ATOM     10  O   UNL d   1      42.748 -15.430  36.909  0.00  0.00    -0.260 OA
ATOM     11  C   UNL d   1      46.091 -14.109  37.234  0.00  0.00     0.055 A 
ATOM     12  C   UNL d   1      46.479 -14.765  36.948  0.00  0.00     0.107 A 
ATOM     13 BR   UNL d   1      46.527 -13.451  37.471  0.00  0.00    -0.048 Br
ENDROOT
TORSDOF 0
ENDMDL
