MODEL 1
REMARK VINA RESULT:      -1.6      0.000      0.000
REMARK  5 active torsions:
REMARK  status: ('A' for Active; 'I' for Inactive)
REMARK    1  A    between atoms: N_2  and  S_1 
REMARK    2  A    between atoms: C_3  and  S_1 
REMARK    3  A    between atoms: C_8  and  N_2 
REMARK    4  A    between atoms: C_7  and  C_6 
REMARK    5  A    between atoms: C_16  and  C_8 
ROOT
ATOM      1  C   UNL d   1     -41.659-121.902 -51.400  0.00  0.00     0.105 A 
ATOM      2  C   UNL d   1     -41.919-122.048 -53.031  0.00  0.00     0.000 A 
ATOM      3  C   UNL d   1     -41.123-122.317 -51.869  0.00  0.00     0.013 A 
ATOM      4  C   UNL d   1     -42.324-121.560 -51.745  0.00  0.00     0.013 A 
ATOM      5  C   UNL d   1     -41.253-122.390 -52.688  0.00  0.00     0.001 A 
ATOM      6  C   UNL d   1     -42.455-121.634 -52.564  0.00  0.00     0.001 A 
ENDROOT
BRANCH   1   7
ATOM      7  S   UNL d   1     -41.525-121.832 -50.589  0.00  0.00     0.285 S 
ATOM      8  O   UNL d   1     -41.124-121.127 -50.711  0.00  0.00    -0.198 OA
ATOM      9  O   UNL d   1     -41.391-121.760 -49.787  0.00  0.00    -0.198 OA
BRANCH   7  10
ATOM     10  N   UNL d   1     -41.928-122.541 -50.463  0.00  0.00    -0.155 NA
BRANCH  10  11
ATOM     11  C   UNL d   1     -41.899-122.900 -49.718  0.00  0.00     0.137 C 
BRANCH  11  12
ATOM     12  C   UNL d   1     -42.591-123.249 -49.401  0.00  0.00     0.120 A 
ATOM     13  O   UNL d   1     -43.299-123.393 -49.803  0.00  0.00    -0.304 OA
ATOM     14  C   UNL d   1     -43.823-123.744 -49.272  0.00  0.00     0.123 A 
ATOM     15  C   UNL d   1     -43.445-123.817 -48.551  0.00  0.00     0.029 A 
ATOM     16  C   UNL d   1     -42.682-123.512 -48.628  0.00  0.00     0.028 A 
ENDBRANCH  11  12
ENDBRANCH  10  11
ENDBRANCH   7  10
ENDBRANCH   1   7
BRANCH   2  17
ATOM     17  C   UNL d   1     -42.043-122.122 -53.835  0.00  0.00     0.000 A 
ATOM     18  C   UNL d   1     -42.446-121.530 -54.243  0.00  0.00     0.000 A 
ATOM     19  C   UNL d   1     -42.575-121.597 -55.055  0.00  0.00     0.000 A 
ATOM     20  C   UNL d   1     -42.295-122.271 -55.459  0.00  0.00     0.000 A 
ATOM     21  C   UNL d   1     -41.893-122.862 -55.052  0.00  0.00     0.000 A 
ATOM     22  C   UNL d   1     -42.423-122.342 -56.271  0.00  0.00     0.000 C 
ATOM     23  C   UNL d   1     -41.765-122.791 -54.240  0.00  0.00     0.000 A 
ENDBRANCH   2  17
TORSDOF 5
ENDMDL
MODEL 2
REMARK VINA RESULT:      -0.3      1.808      4.963
REMARK  5 active torsions:
REMARK  status: ('A' for Active; 'I' for Inactive)
REMARK    1  A    between atoms: N_2  and  S_1 
REMARK    2  A    between atoms: C_3  and  S_1 
REMARK    3  A    between atoms: C_8  and  N_2 
REMARK    4  A    between atoms: C_7  and  C_6 
REMARK    5  A    between atoms: C_16  and  C_8 
ROOT
ATOM      1  C   UNL d   1     -41.642-123.059 -52.316  0.00  0.00     0.105 A 
ATOM      2  C   UNL d   1     -41.937-122.988 -50.687  0.00  0.00     0.000 A 
ATOM      3  C   UNL d   1     -41.356-122.427 -51.872  0.00  0.00     0.013 A 
ATOM      4  C   UNL d   1     -42.074-123.656 -51.948  0.00  0.00     0.013 A 
ATOM      5  C   UNL d   1     -41.505-122.391 -51.053  0.00  0.00     0.001 A 
ATOM      6  C   UNL d   1     -42.222-123.620 -51.130  0.00  0.00     0.001 A 
ENDROOT
BRANCH   1   7
ATOM      7  S   UNL d   1     -41.492-123.091 -53.127  0.00  0.00     0.285 S 
ATOM      8  O   UNL d   1     -41.123-123.817 -53.036  0.00  0.00    -0.198 OA
ATOM      9  O   UNL d   1     -41.342-123.124 -53.930  0.00  0.00    -0.198 OA
BRANCH   7  10
ATOM     10  N   UNL d   1     -41.862-122.360 -53.223  0.00  0.00    -0.155 NA
BRANCH  10  11
ATOM     11  C   UNL d   1     -41.674-121.888 -53.876  0.00  0.00     0.137 C 
BRANCH  11  12
ATOM     12  C   UNL d   1     -42.220-121.817 -54.505  0.00  0.00     0.120 A 
ATOM     13  O   UNL d   1     -43.029-121.658 -54.440  0.00  0.00    -0.304 OA
ATOM     14  C   UNL d   1     -43.343-121.638 -55.202  0.00  0.00     0.123 A 
ATOM     15  C   UNL d   1     -42.739-121.782 -55.733  0.00  0.00     0.029 A 
ATOM     16  C   UNL d   1     -42.042-121.893 -55.304  0.00  0.00     0.028 A 
ENDBRANCH  11  12
ENDBRANCH  10  11
ENDBRANCH   7  10
ENDBRANCH   1   7
BRANCH   2  17
ATOM     17  C   UNL d   1     -42.080-122.948 -49.883  0.00  0.00     0.000 A 
ATOM     18  C   UNL d   1     -41.468-123.091 -49.351  0.00  0.00     0.000 A 
ATOM     19  C   UNL d   1     -41.603-123.053 -48.538  0.00  0.00     0.000 A 
ATOM     20  C   UNL d   1     -42.368-122.869 -48.260  0.00  0.00     0.000 A 
ATOM     21  C   UNL d   1     -42.980-122.726 -48.791  0.00  0.00     0.000 A 
ATOM     22  C   UNL d   1     -42.507-122.830 -47.448  0.00  0.00     0.000 C 
ATOM     23  C   UNL d   1     -42.840-122.764 -49.603  0.00  0.00     0.000 A 
ENDBRANCH   2  17
TORSDOF 5
ENDMDL
