MODEL 1
REMARK VINA RESULT:      77.6      0.000      0.000
REMARK  5 active torsions:
REMARK  status: ('A' for Active; 'I' for Inactive)
REMARK    1  A    between atoms: N_9  and  S_1 
REMARK    2  A    between atoms: C_12  and  S_1 
REMARK    3  A    between atoms: C_6  and  C_15 
REMARK    4  A    between atoms: C_18  and  N_9 
REMARK       I    between atoms: C_16  and  N_17 
REMARK    5  A    between atoms: N_17  and  C_23 
ROOT
ATOM      1  C   UNL d   1     -55.621-101.561 -42.980  0.00  0.00     0.021 A 
ATOM      2  C   UNL d   1     -55.912-102.432 -41.872  0.00  0.00     0.094 A 
ATOM      3  C   UNL d   1     -56.101-101.773 -42.333  0.00  0.00     0.021 A 
ATOM      4  C   UNL d   1     -54.958-102.013 -43.156  0.00  0.00     0.002 A 
ATOM      5  C   UNL d   1     -54.761-102.667 -42.706  0.00  0.00     0.002 A 
ATOM      6  C   UNL d   1     -55.241-102.880 -42.059  0.00  0.00     0.020 A 
ENDROOT
BRANCH   2   7
ATOM      7  N   UNL d   1     -56.384-102.641 -41.235  0.00  0.00    -0.158 NA
BRANCH   7   8
ATOM      8  S   UNL d   1     -56.088-102.584 -40.472  0.00  0.00     0.285 S 
ATOM      9  O   UNL d   1     -55.360-102.349 -40.779  0.00  0.00    -0.198 OA
ATOM     10  O   UNL d   1     -56.814-102.818 -40.155  0.00  0.00    -0.198 OA
BRANCH   8  11
ATOM     11  C   UNL d   1     -55.790-102.527 -39.699  0.00  0.00     0.105 A 
ATOM     12  C   UNL d   1     -55.030-102.809 -39.544  0.00  0.00     0.015 A 
ATOM     13  C   UNL d   1     -54.711-102.761 -38.776  0.00  0.00     0.020 A 
ATOM     14  C   UNL d   1     -55.167-102.426 -38.166  0.00  0.00     0.085 A 
ATOM     15  C   UNL d   1     -55.927-102.145 -38.322  0.00  0.00     0.020 A 
ATOM     16  C   UNL d   1     -56.236-102.197 -39.096  0.00  0.00     0.015 A 
BRANCH  14  17
ATOM     17  N   UNL d   1     -54.865-102.376 -37.418  0.00  0.00    -0.208 NA
ATOM     18  C   UNL d   1     -55.346-102.520 -36.772  0.00  0.00     0.279 C 
ATOM     19  O   UNL d   1     -56.138-102.717 -36.882  0.00  0.00    -0.265 OA
ATOM     20  C   UNL d   1     -55.044-102.470 -36.020  0.00  0.00     0.068 C 
ENDBRANCH  14  17
ENDBRANCH   8  11
ENDBRANCH   7   8
ENDBRANCH   2   7
BRANCH   1  21
ATOM     21  C   UNL d   1     -55.823-100.899 -43.432  0.00  0.00     0.102 A 
ATOM     22  N   UNL d   1     -55.231-100.542 -43.898  0.00  0.00    -0.162 NA
ATOM     23  N   UNL d   1     -55.427 -99.873 -44.358  0.00  0.00    -0.189 N 
ATOM     24  C   UNL d   1     -54.976 -99.413 -44.859  0.00  0.00     0.224 A 
ATOM     25  C   UNL d   1     -56.202 -99.566 -44.351  0.00  0.00     0.187 A 
ATOM     26  N   UNL d   1     -55.452 -98.828 -45.165  0.00  0.00    -0.124 NA
ATOM     27  N   UNL d   1     -56.204 -98.929 -44.847  0.00  0.00    -0.127 NA
ATOM     28  C   UNL d   1     -56.780 -99.942 -43.875  0.00  0.00     0.042 A 
ATOM     29  C   UNL d   1     -56.584-100.606 -43.419  0.00  0.00     0.024 A 
ENDBRANCH   1  21
TORSDOF 5
ENDMDL
