MODEL 1
REMARK VINA RESULT:      27.3      0.000      0.000
REMARK  5 active torsions:
REMARK  status: ('A' for Active; 'I' for Inactive)
REMARK    1  A    between atoms: C_6  and  C_1 
REMARK    2  A    between atoms: C_8  and  N_3 
REMARK    3  A    between atoms: C_7  and  C_8 
REMARK    4  A    between atoms: C_9  and  C_7 
REMARK    5  A    between atoms: C_10  and  C_9 
ROOT
ATOM      1  C   UNL d   1      14.971  12.996  -0.522  0.00  0.00     0.187 A 
ATOM      2  N   UNL d   1      15.413  13.605  -0.153  0.00  0.00    -0.224 NA
ATOM      3  N   UNL d   1      14.519  13.336  -1.133  0.00  0.00    -0.287 N 
ATOM      4  C   UNL d   1      14.675  14.148  -1.149  0.00  0.00     0.083 A 
ATOM      5  C   UNL d   1      15.223  14.317  -0.549  0.00  0.00     0.099 A 
ATOM      6  C   UNL d   1      14.392  14.771  -1.631  0.00  0.00     0.019 A 
ATOM      7  C   UNL d   1      15.493  15.098  -0.424  0.00  0.00     0.021 A 
ATOM      8  C   UNL d   1      14.656  15.544  -1.510  0.00  0.00     0.002 A 
ATOM      9  C   UNL d   1      15.205  15.706  -0.908  0.00  0.00     0.002 A 
ENDROOT
BRANCH   3  10
ATOM     10  C   UNL d   1      14.053  12.795  -1.547  0.00  0.00     0.082 C 
BRANCH  10  11
ATOM     11  C   UNL d   1      13.847  12.940  -2.327  0.00  0.00     0.019 C 
BRANCH  11  12
ATOM     12  C   UNL d   1      13.334  12.423  -2.718  0.00  0.00     0.002 C 
BRANCH  12  13
ATOM     13  C   UNL d   1      13.254  12.466  -3.536  0.00  0.00     0.000 A 
ATOM     14  C   UNL d   1      13.113  13.193  -3.898  0.00  0.00     0.000 A 
ATOM     15  C   UNL d   1      13.034  13.229  -4.713  0.00  0.00     0.000 A 
ATOM     16  C   UNL d   1      13.096  12.545  -5.170  0.00  0.00     0.000 A 
ATOM     17  C   UNL d   1      13.238  11.817  -4.804  0.00  0.00     0.000 A 
ATOM     18  C   UNL d   1      13.316  11.781  -3.993  0.00  0.00     0.000 A 
ENDBRANCH  12  13
ENDBRANCH  11  12
ENDBRANCH  10  11
ENDBRANCH   3  10
BRANCH   1  19
ATOM     19  C   UNL d   1      15.048  12.319  -0.268  0.00  0.00     0.230 C 
ATOM     20  O   UNL d   1      14.430  11.832  -0.020  0.00  0.00    -0.283 OA
ATOM     21  C   UNL d   1      15.811  12.011  -0.222  0.00  0.00     0.049 C 
ENDBRANCH   1  19
TORSDOF 5
ENDMDL
MODEL 2
REMARK VINA RESULT:      30.0      0.965      3.783
REMARK  5 active torsions:
REMARK  status: ('A' for Active; 'I' for Inactive)
REMARK    1  A    between atoms: C_6  and  C_1 
REMARK    2  A    between atoms: C_8  and  N_3 
REMARK    3  A    between atoms: C_7  and  C_8 
REMARK    4  A    between atoms: C_9  and  C_7 
REMARK    5  A    between atoms: C_10  and  C_9 
ROOT
ATOM      1  C   UNL d   1      14.107  12.210  -1.658  0.00  0.00     0.187 A 
ATOM      2  N   UNL d   1      13.555  11.779  -2.119  0.00  0.00    -0.224 NA
ATOM      3  N   UNL d   1      14.326  12.891  -2.085  0.00  0.00    -0.287 N 
ATOM      4  C   UNL d   1      13.918  12.889  -2.804  0.00  0.00     0.083 A 
ATOM      5  C   UNL d   1      13.443  12.207  -2.829  0.00  0.00     0.099 A 
ATOM      6  C   UNL d   1      13.908  13.416  -3.454  0.00  0.00     0.019 A 
ATOM      7  C   UNL d   1      12.961  12.046  -3.492  0.00  0.00     0.021 A 
ATOM      8  C   UNL d   1      13.432  13.260  -4.110  0.00  0.00     0.002 A 
ATOM      9  C   UNL d   1      12.960  12.577  -4.129  0.00  0.00     0.002 A 
ENDROOT
BRANCH   3  10
ATOM     10  C   UNL d   1      14.871  13.372  -1.694  0.00  0.00     0.082 C 
BRANCH  10  11
ATOM     11  C   UNL d   1      14.682  14.149  -1.516  0.00  0.00     0.019 C 
BRANCH  11  12
ATOM     12  C   UNL d   1      15.196  14.599  -1.049  0.00  0.00     0.002 C 
BRANCH  12  13
ATOM     13  C   UNL d   1      15.180  15.421  -1.097  0.00  0.00     0.000 A 
ATOM     14  C   UNL d   1      15.064  15.787  -1.827  0.00  0.00     0.000 A 
ATOM     15  C   UNL d   1      15.049  16.606  -1.867  0.00  0.00     0.000 A 
ATOM     16  C   UNL d   1      15.150  17.061  -1.187  0.00  0.00     0.000 A 
ATOM     17  C   UNL d   1      15.267  16.690  -0.458  0.00  0.00     0.000 A 
ATOM     18  C   UNL d   1      15.281  15.876  -0.416  0.00  0.00     0.000 A 
ENDBRANCH  12  13
ENDBRANCH  11  12
ENDBRANCH  10  11
ENDBRANCH   3  10
BRANCH   1  19
ATOM     19  C   UNL d   1      14.291  11.941  -1.008  0.00  0.00     0.230 C 
ATOM     20  O   UNL d   1      15.061  11.779  -0.764  0.00  0.00    -0.283 OA
ATOM     21  C   UNL d   1      13.685  11.785  -0.473  0.00  0.00     0.049 C 
ENDBRANCH   1  19
TORSDOF 5
ENDMDL
