MODEL 1
REMARK VINA RESULT:      66.6      0.000      0.000
REMARK  7 active torsions:
REMARK  status: ('A' for Active; 'I' for Inactive)
REMARK    1  A    between atoms: C_11  and  C_3 
REMARK    2  A    between atoms: C_10  and  C_4 
REMARK    3  A    between atoms: O_16  and  C_10 
REMARK    4  A    between atoms: N_15  and  C_11 
REMARK    5  A    between atoms: C_21  and  N_15 
REMARK    6  A    between atoms: C_23  and  O_16 
REMARK    7  A    between atoms: C_18  and  C_21 
ROOT
ATOM      1  C   UNL d   1     -50.999  26.089  33.339  0.00  0.00     0.035 A 
ATOM      2  C   UNL d   1     -51.481  25.420  33.330  0.00  0.00     0.100 A 
ATOM      3  C   UNL d   1     -50.177  26.012  33.353  0.00  0.00     0.060 A 
ATOM      4  C   UNL d   1     -51.492  26.755  33.331  0.00  0.00     0.088 A 
ATOM      5  O   UNL d   1     -52.259  25.673  33.316  0.00  0.00    -0.307 OA
ATOM      6  C   UNL d   1     -52.246  26.468  33.318  0.00  0.00     0.105 A 
ATOM      7  C   UNL d   1     -49.830  25.267  33.359  0.00  0.00     0.197 A 
ATOM      8  C   UNL d   1     -51.129  24.680  33.335  0.00  0.00     0.026 A 
ATOM      9  C   UNL d   1     -50.308  24.603  33.349  0.00  0.00     0.041 A 
ATOM     10  O   UNL d   1     -49.013  25.192  33.373  0.00  0.00    -0.286 OA
ATOM     11  C   UNL d   1     -52.936  26.958  33.306  0.00  0.00     0.027 C 
ATOM     12  C   UNL d   1     -51.612  24.006  33.326  0.00  0.00     0.002 A 
ATOM     13  C   UNL d   1     -49.960  23.853  33.354  0.00  0.00     0.003 A 
ATOM     14  C   UNL d   1     -50.439  23.190  33.345  0.00  0.00     0.000 A 
ATOM     15  C   UNL d   1     -51.260  23.266  33.331  0.00  0.00     0.000 A 
ENDROOT
BRANCH   3  16
ATOM     16  C   UNL d   1     -49.670  26.697  33.363  0.00  0.00     0.102 C 
BRANCH  16  17
ATOM     17  N   UNL d   1     -49.291  26.945  34.065  0.00  0.00    -0.241 NA
BRANCH  17  18
ATOM     18  C   UNL d   1     -48.624  27.411  34.016  0.00  0.00     0.118 C 
BRANCH  18  19
ATOM     19  C   UNL d   1     -48.456  27.956  34.631  0.00  0.00     0.101 A 
ATOM     20  N   UNL d   1     -48.770  27.851  35.382  0.00  0.00    -0.242 NA
ATOM     21  C   UNL d   1     -48.605  28.387  35.987  0.00  0.00     0.099 A 
ATOM     22  C   UNL d   1     -48.124  29.034  35.848  0.00  0.00     0.021 A 
ATOM     23  C   UNL d   1     -47.806  29.145  35.097  0.00  0.00     0.003 A 
ATOM     24  C   UNL d   1     -47.972  28.609  34.492  0.00  0.00     0.021 A 
ENDBRANCH  18  19
ENDBRANCH  17  18
ENDBRANCH  16  17
ENDBRANCH   3  16
BRANCH   4  25
ATOM     25  C   UNL d   1     -51.281  27.582  33.336  0.00  0.00     0.302 C 
ATOM     26  O   UNL d   1     -50.485  27.790  33.371  0.00  0.00    -0.259 OA
BRANCH  25  27
ATOM     27  O   UNL d   1     -51.849  28.139  33.307  0.00  0.00    -0.271 OA
BRANCH  27  28
ATOM     28  C   UNL d   1     -51.943  28.681  33.919  0.00  0.00     0.126 C 
ATOM     29  C   UNL d   1     -51.835  29.495  33.782  0.00  0.00     0.029 C 
ENDBRANCH  27  28
ENDBRANCH  25  27
ENDBRANCH   4  25
TORSDOF 7
ENDMDL
