MODEL 1
REMARK VINA RESULT:      -1.2      0.000      0.000
REMARK  4 active torsions:
REMARK  status: ('A' for Active; 'I' for Inactive)
REMARK    1  A    between atoms: S_3  and  N_1 
REMARK    2  A    between atoms: C_9  and  S_3 
REMARK    3  A    between atoms: C_10  and  N_5 
REMARK    4  A    between atoms: C_15  and  C_10 
ROOT
ATOM      1  N   UNL d   1      57.887  -0.185  30.350  0.00  0.00    -0.195 N 
ATOM      2  C   UNL d   1      58.431   0.030  30.917  0.00  0.00     0.193 A 
ATOM      3  C   UNL d   1      58.177   0.270  31.663  0.00  0.00     0.185 A 
ATOM      4  N   UNL d   1      57.361   0.224  31.641  0.00  0.00    -0.269 N 
ATOM      5  C   UNL d   1      57.190  -0.037  30.889  0.00  0.00     0.179 A 
ATOM      6  N   UNL d   1      59.234   0.008  30.739  0.00  0.00    -0.223 NA
ATOM      7  N   UNL d   1      58.729   0.487  32.234  0.00  0.00    -0.224 NA
ATOM      8  C   UNL d   1      59.783   0.226  31.312  0.00  0.00     0.101 A 
ATOM      9  C   UNL d   1      59.532   0.465  32.056  0.00  0.00     0.101 A 
ATOM     10  C   UNL d   1      60.089   0.682  32.624  0.00  0.00     0.021 A 
ATOM     11  C   UNL d   1      60.583   0.203  31.131  0.00  0.00     0.021 A 
ATOM     12  C   UNL d   1      61.133   0.421  31.703  0.00  0.00     0.002 A 
ATOM     13  C   UNL d   1      60.879   0.658  32.445  0.00  0.00     0.002 A 
ENDROOT
BRANCH   1  14
ATOM     14  S   UNL d   1      58.197  -0.440  29.551  0.00  0.00     0.274 S 
ATOM     15  O   UNL d   1      58.124   0.147  28.885  0.00  0.00    -0.200 OA
ATOM     16  O   UNL d   1      57.902   0.338  29.442  0.00  0.00    -0.200 OA
BRANCH  14  17
ATOM     17  C   UNL d   1      58.553  -1.128  29.277  0.00  0.00     0.104 A 
ATOM     18  C   UNL d   1      59.179  -1.082  28.730  0.00  0.00     0.013 A 
ATOM     19  C   UNL d   1      59.535  -1.782  28.458  0.00  0.00     0.001 A 
ATOM     20  C   UNL d   1      59.269  -2.517  28.727  0.00  0.00     0.000 A 
ATOM     21  C   UNL d   1      58.641  -2.554  29.274  0.00  0.00     0.001 A 
ATOM     22  C   UNL d   1      59.623  -3.208  28.455  0.00  0.00     0.000 C 
ATOM     23  C   UNL d   1      58.288  -1.863  29.546  0.00  0.00     0.013 A 
ENDBRANCH  14  17
ENDBRANCH   1  14
BRANCH   4  24
ATOM     24  C   UNL d   1      56.832   0.404  32.249  0.00  0.00     0.108 C 
BRANCH  24  25
ATOM     25  C   UNL d   1      56.381  -0.197  32.603  0.00  0.00     0.118 A 
ATOM     26  O   UNL d   1      56.457  -1.009  32.459  0.00  0.00    -0.304 OA
ATOM     27  C   UNL d   1      55.895  -1.414  32.933  0.00  0.00     0.123 A 
ATOM     28  C   UNL d   1      55.475  -0.844  33.367  0.00  0.00     0.029 A 
ATOM     29  C   UNL d   1      55.779  -0.093  33.160  0.00  0.00     0.028 A 
ENDBRANCH  24  25
ENDBRANCH   4  24
TORSDOF 4
ENDMDL
