MODEL 1
REMARK VINA RESULT:      -9.4      0.000      0.000
REMARK  0 active torsions:
REMARK  status: ('A' for Active; 'I' for Inactive)
ROOT
ATOM      1  C   UNL d   1     -48.207  11.879  23.444  0.00  0.00     0.166 A 
ATOM      2  C   UNL d   1     -48.227  12.682  23.246  0.00  0.00     0.117 A 
ATOM      3  N   UNL d   1     -47.415  11.628  23.452  0.00  0.00    -0.288 N 
ATOM      4  C   UNL d   1     -47.445  12.930  23.132  0.00  0.00     0.037 A 
ATOM      5  N   UNL d   1     -48.905  11.460  23.595  0.00  0.00    -0.225 NA
ATOM      6  C   UNL d   1     -46.961  12.281  23.260  0.00  0.00     0.067 A 
ATOM      7  N   UNL d   1     -48.948  13.067  23.200  0.00  0.00    -0.241 NA
ATOM      8  C   UNL d   1     -49.627  11.846  23.548  0.00  0.00     0.101 A 
ATOM      9  C   UNL d   1     -49.646  12.654  23.350  0.00  0.00     0.099 A 
ATOM     10  C   UNL d   1     -46.132  12.375  23.181  0.00  0.00     0.018 A 
ATOM     11  C   UNL d   1     -47.134  13.680  22.925  0.00  0.00     0.003 A 
ATOM     12  C   UNL d   1     -46.812  11.065  23.551  0.00  0.00     0.101 C 
ATOM     13  C   UNL d   1     -46.332  13.761  22.851  0.00  0.00     0.000 A 
ATOM     14  C   UNL d   1     -45.848  13.122  22.977  0.00  0.00     0.002 A 
ATOM     15  C   UNL d   1     -50.356  13.008  23.310  0.00  0.00     0.021 A 
ATOM     16  C   UNL d   1     -50.325  11.431  23.698  0.00  0.00     0.021 A 
ATOM     17  C   UNL d   1     -45.968  14.423  22.663  0.00  0.00     0.000 C 
ATOM     18  C   UNL d   1     -51.062  12.616  23.455  0.00  0.00     0.002 A 
ATOM     19  C   UNL d   1     -51.044  11.815  23.652  0.00  0.00     0.002 A 
ENDROOT
TORSDOF 0
ENDMDL
MODEL 2
REMARK VINA RESULT:      -9.3      0.805      1.795
REMARK  0 active torsions:
REMARK  status: ('A' for Active; 'I' for Inactive)
ROOT
ATOM      1  C   UNL d   1     -48.771  13.732  23.005  0.00  0.00     0.166 A 
ATOM      2  C   UNL d   1     -48.288  13.063  23.052  0.00  0.00     0.117 A 
ATOM      3  N   UNL d   1     -48.296  14.387  22.811  0.00  0.00    -0.288 N 
ATOM      4  C   UNL d   1     -47.513  13.301  22.885  0.00  0.00     0.037 A 
ATOM      5  N   UNL d   1     -49.585  13.682  23.143  0.00  0.00    -0.225 NA
ATOM      6  C   UNL d   1     -47.531  14.108  22.741  0.00  0.00     0.067 A 
ATOM      7  N   UNL d   1     -48.621  12.338  23.237  0.00  0.00    -0.241 NA
ATOM      8  C   UNL d   1     -49.919  12.956  23.329  0.00  0.00     0.101 A 
ATOM      9  C   UNL d   1     -49.434  12.282  23.375  0.00  0.00     0.099 A 
ATOM     10  C   UNL d   1     -46.814  14.500  22.556  0.00  0.00     0.018 A 
ATOM     11  C   UNL d   1     -46.800  12.862  22.853  0.00  0.00     0.003 A 
ATOM     12  C   UNL d   1     -48.167  15.190  22.643  0.00  0.00     0.101 C 
ATOM     13  C   UNL d   1     -46.112  13.249  22.674  0.00  0.00     0.000 A 
ATOM     14  C   UNL d   1     -46.124  14.047  22.529  0.00  0.00     0.002 A 
ATOM     15  C   UNL d   1     -49.778  11.590  23.556  0.00  0.00     0.021 A 
ATOM     16  C   UNL d   1     -50.732  12.901  23.467  0.00  0.00     0.021 A 
ATOM     17  C   UNL d   1     -45.411  12.912  22.625  0.00  0.00     0.000 C 
ATOM     18  C   UNL d   1     -50.582  11.512  23.698  0.00  0.00     0.002 A 
ATOM     19  C   UNL d   1     -51.064  12.180  23.652  0.00  0.00     0.002 A 
ENDROOT
TORSDOF 0
ENDMDL
MODEL 3
REMARK VINA RESULT:      -9.3      1.277      2.329
REMARK  0 active torsions:
REMARK  status: ('A' for Active; 'I' for Inactive)
ROOT
ATOM      1  C   UNL d   1     -48.014  14.149  22.946  0.00  0.00     0.166 A 
ATOM      2  C   UNL d   1     -48.297  13.410  23.187  0.00  0.00     0.117 A 
ATOM      3  N   UNL d   1     -47.188  14.102  22.867  0.00  0.00    -0.288 N 
ATOM      4  C   UNL d   1     -47.646  12.904  23.257  0.00  0.00     0.037 A 
ATOM      5  N   UNL d   1     -48.530  14.784  22.824  0.00  0.00    -0.225 NA
ATOM      6  C   UNL d   1     -46.978  13.336  23.060  0.00  0.00     0.067 A 
ATOM      7  N   UNL d   1     -49.100  13.306  23.306  0.00  0.00    -0.241 NA
ATOM      8  C   UNL d   1     -49.335  14.680  22.943  0.00  0.00     0.101 A 
ATOM      9  C   UNL d   1     -49.620  13.937  23.186  0.00  0.00     0.099 A 
ATOM     10  C   UNL d   1     -46.231  12.956  23.084  0.00  0.00     0.018 A 
ATOM     11  C   UNL d   1     -47.601  12.097  23.481  0.00  0.00     0.003 A 
ATOM     12  C   UNL d   1     -46.437  14.412  22.695  0.00  0.00     0.101 C 
ATOM     13  C   UNL d   1     -46.876  11.739  23.501  0.00  0.00     0.000 A 
ATOM     14  C   UNL d   1     -46.211  12.161  23.307  0.00  0.00     0.002 A 
ATOM     15  C   UNL d   1     -50.402  13.858  23.296  0.00  0.00     0.021 A 
ATOM     16  C   UNL d   1     -49.853  15.312  22.823  0.00  0.00     0.021 A 
ATOM     17  C   UNL d   1     -46.752  10.995  23.698  0.00  0.00     0.000 C 
ATOM     18  C   UNL d   1     -50.936  14.471  23.182  0.00  0.00     0.002 A 
ATOM     19  C   UNL d   1     -50.654  15.209  22.942  0.00  0.00     0.002 A 
ENDROOT
TORSDOF 0
ENDMDL
MODEL 4
REMARK VINA RESULT:      -9.2      1.293      1.796
REMARK  0 active torsions:
REMARK  status: ('A' for Active; 'I' for Inactive)
ROOT
ATOM      1  C   UNL d   1     -48.796  13.189  23.357  0.00  0.00     0.166 A 
ATOM      2  C   UNL d   1     -48.291  13.776  23.066  0.00  0.00     0.117 A 
ATOM      3  N   UNL d   1     -48.362  12.485  23.440  0.00  0.00    -0.288 N 
ATOM      4  C   UNL d   1     -47.543  13.436  22.968  0.00  0.00     0.037 A 
ATOM      5  N   UNL d   1     -49.591  13.351  23.517  0.00  0.00    -0.225 NA
ATOM      6  C   UNL d   1     -47.598  12.651  23.198  0.00  0.00     0.067 A 
ATOM      7  N   UNL d   1     -48.584  14.529  22.934  0.00  0.00    -0.241 NA
ATOM      8  C   UNL d   1     -49.885  14.105  23.385  0.00  0.00     0.101 A 
ATOM      9  C   UNL d   1     -49.377  14.696  23.092  0.00  0.00     0.099 A 
ATOM     10  C   UNL d   1     -46.914  12.169  23.155  0.00  0.00     0.018 A 
ATOM     11  C   UNL d   1     -46.823  13.766  22.692  0.00  0.00     0.003 A 
ATOM     12  C   UNL d   1     -48.272  11.683  23.638  0.00  0.00     0.101 C 
ATOM     13  C   UNL d   1     -46.168  13.293  22.654  0.00  0.00     0.000 A 
ATOM     14  C   UNL d   1     -46.217  12.516  22.880  0.00  0.00     0.002 A 
ATOM     15  C   UNL d   1     -49.682  15.419  22.971  0.00  0.00     0.021 A 
ATOM     16  C   UNL d   1     -50.678  14.271  23.543  0.00  0.00     0.021 A 
ATOM     17  C   UNL d   1     -45.465  13.525  22.409  0.00  0.00     0.000 C 
ATOM     18  C   UNL d   1     -50.466  15.607  23.121  0.00  0.00     0.002 A 
ATOM     19  C   UNL d   1     -50.970  15.022  23.411  0.00  0.00     0.002 A 
ENDROOT
TORSDOF 0
ENDMDL
MODEL 5
REMARK VINA RESULT:      -9.1      0.990      3.971
REMARK  0 active torsions:
REMARK  status: ('A' for Active; 'I' for Inactive)
ROOT
ATOM      1  C   UNL d   1     -48.488  14.098  22.990  0.00  0.00     0.166 A 
ATOM      2  C   UNL d   1     -48.590  13.283  23.088  0.00  0.00     0.117 A 
ATOM      3  N   UNL d   1     -49.223  14.470  23.094  0.00  0.00    -0.288 N 
ATOM      4  C   UNL d   1     -49.390  13.149  23.252  0.00  0.00     0.037 A 
ATOM      5  N   UNL d   1     -47.744  14.417  22.819  0.00  0.00    -0.225 NA
ATOM      6  C   UNL d   1     -49.765  13.879  23.254  0.00  0.00     0.067 A 
ATOM      7  N   UNL d   1     -47.944  12.785  23.013  0.00  0.00    -0.241 NA
ATOM      8  C   UNL d   1     -47.097  13.918  22.743  0.00  0.00     0.101 A 
ATOM      9  C   UNL d   1     -47.200  13.098  22.841  0.00  0.00     0.099 A 
ATOM     10  C   UNL d   1     -50.588  13.908  23.407  0.00  0.00     0.018 A 
ATOM     11  C   UNL d   1     -49.807  12.438  23.400  0.00  0.00     0.003 A 
ATOM     12  C   UNL d   1     -49.727  15.131  23.127  0.00  0.00     0.101 C 
ATOM     13  C   UNL d   1     -50.602  12.476  23.547  0.00  0.00     0.000 A 
ATOM     14  C   UNL d   1     -50.978  13.195  23.550  0.00  0.00     0.002 A 
ATOM     15  C   UNL d   1     -46.561  12.633  22.764  0.00  0.00     0.021 A 
ATOM     16  C   UNL d   1     -46.353  14.232  22.572  0.00  0.00     0.021 A 
ATOM     17  C   UNL d   1     -51.058  11.861  23.692  0.00  0.00     0.000 C 
ATOM     18  C   UNL d   1     -45.812  12.923  22.594  0.00  0.00     0.002 A 
ATOM     19  C   UNL d   1     -45.710  13.736  22.497  0.00  0.00     0.002 A 
ENDROOT
TORSDOF 0
ENDMDL
MODEL 6
REMARK VINA RESULT:      -9.0      1.352      3.714
REMARK  0 active torsions:
REMARK  status: ('A' for Active; 'I' for Inactive)
ROOT
ATOM      1  C   UNL d   1     -48.767  13.239  23.107  0.00  0.00     0.166 A 
ATOM      2  C   UNL d   1     -48.733  14.065  23.131  0.00  0.00     0.117 A 
ATOM      3  N   UNL d   1     -49.551  13.003  23.249  0.00  0.00    -0.288 N 
ATOM      4  C   UNL d   1     -49.497  14.342  23.289  0.00  0.00     0.037 A 
ATOM      5  N   UNL d   1     -48.089  12.788  22.959  0.00  0.00    -0.225 NA
ATOM      6  C   UNL d   1     -49.985  13.687  23.359  0.00  0.00     0.067 A 
ATOM      7  N   UNL d   1     -48.017  14.442  23.007  0.00  0.00    -0.241 NA
ATOM      8  C   UNL d   1     -47.372  13.166  22.835  0.00  0.00     0.101 A 
ATOM      9  C   UNL d   1     -47.337  13.997  22.859  0.00  0.00     0.099 A 
ATOM     10  C   UNL d   1     -50.799  13.807  23.520  0.00  0.00     0.018 A 
ATOM     11  C   UNL d   1     -49.790  15.123  23.375  0.00  0.00     0.003 A 
ATOM     12  C   UNL d   1     -50.155  12.439  23.344  0.00  0.00     0.101 C 
ATOM     13  C   UNL d   1     -50.576  15.228  23.531  0.00  0.00     0.000 A 
ATOM     14  C   UNL d   1     -51.064  14.584  23.601  0.00  0.00     0.002 A 
ATOM     15  C   UNL d   1     -46.633  14.342  22.737  0.00  0.00     0.021 A 
ATOM     16  C   UNL d   1     -46.692  12.720  22.687  0.00  0.00     0.021 A 
ATOM     17  C   UNL d   1     -50.923  15.920  23.624  0.00  0.00     0.000 C 
ATOM     18  C   UNL d   1     -45.945  13.920  22.588  0.00  0.00     0.002 A 
ATOM     19  C   UNL d   1     -45.979  13.096  22.563  0.00  0.00     0.002 A 
ENDROOT
TORSDOF 0
ENDMDL
MODEL 7
REMARK VINA RESULT:      -7.9      1.571      3.199
REMARK  0 active torsions:
REMARK  status: ('A' for Active; 'I' for Inactive)
ROOT
ATOM      1  C   UNL d   1     -46.715  13.270  23.073  0.00  0.00     0.166 A 
ATOM      2  C   UNL d   1     -47.515  13.063  23.074  0.00  0.00     0.117 A 
ATOM      3  N   UNL d   1     -46.652  14.080  22.900  0.00  0.00    -0.288 N 
ATOM      4  C   UNL d   1     -47.950  13.745  22.901  0.00  0.00     0.037 A 
ATOM      5  N   UNL d   1     -46.128  12.708  23.228  0.00  0.00    -0.225 NA
ATOM      6  C   UNL d   1     -47.415  14.357  22.797  0.00  0.00     0.067 A 
ATOM      7  N   UNL d   1     -47.730  12.288  23.231  0.00  0.00    -0.241 NA
ATOM      8  C   UNL d   1     -46.343  11.932  23.385  0.00  0.00     0.101 A 
ATOM      9  C   UNL d   1     -47.148  11.723  23.386  0.00  0.00     0.099 A 
ATOM     10  C   UNL d   1     -47.707  15.121  22.614  0.00  0.00     0.018 A 
ATOM     11  C   UNL d   1     -48.777  13.864  22.829  0.00  0.00     0.003 A 
ATOM     12  C   UNL d   1     -46.231  14.785  22.769  0.00  0.00     0.101 C 
ATOM     13  C   UNL d   1     -49.049  14.605  22.652  0.00  0.00     0.000 A 
ATOM     14  C   UNL d   1     -48.524  15.215  22.549  0.00  0.00     0.002 A 
ATOM     15  C   UNL d   1     -47.335  10.967  23.541  0.00  0.00     0.021 A 
ATOM     16  C   UNL d   1     -45.761  11.367  23.541  0.00  0.00     0.021 A 
ATOM     17  C   UNL d   1     -49.801  14.795  22.569  0.00  0.00     0.000 C 
ATOM     18  C   UNL d   1     -46.773  10.389  23.698  0.00  0.00     0.002 A 
ATOM     19  C   UNL d   1     -45.975  10.595  23.697  0.00  0.00     0.002 A 
ENDROOT
TORSDOF 0
ENDMDL
MODEL 8
REMARK VINA RESULT:      -7.7      0.886      1.955
REMARK  0 active torsions:
REMARK  status: ('A' for Active; 'I' for Inactive)
ROOT
ATOM      1  C   UNL d   1     -47.485  12.883  22.968  0.00  0.00     0.166 A 
ATOM      2  C   UNL d   1     -47.472  12.122  23.292  0.00  0.00     0.117 A 
ATOM      3  N   UNL d   1     -46.708  13.097  22.765  0.00  0.00    -0.288 N 
ATOM      4  C   UNL d   1     -46.686  11.863  23.290  0.00  0.00     0.037 A 
ATOM      5  N   UNL d   1     -48.194  13.301  22.890  0.00  0.00    -0.225 NA
ATOM      6  C   UNL d   1     -46.231  12.464  22.968  0.00  0.00     0.067 A 
ATOM      7  N   UNL d   1     -48.173  11.778  23.539  0.00  0.00    -0.241 NA
ATOM      8  C   UNL d   1     -48.896  12.957  23.138  0.00  0.00     0.101 A 
ATOM      9  C   UNL d   1     -48.883  12.191  23.464  0.00  0.00     0.099 A 
ATOM     10  C   UNL d   1     -45.404  12.350  22.899  0.00  0.00     0.018 A 
ATOM     11  C   UNL d   1     -46.346  11.142  23.550  0.00  0.00     0.003 A 
ATOM     12  C   UNL d   1     -46.131  13.613  22.462  0.00  0.00     0.101 C 
ATOM     13  C   UNL d   1     -45.546  11.041  23.479  0.00  0.00     0.000 A 
ATOM     14  C   UNL d   1     -45.091  11.633  23.161  0.00  0.00     0.002 A 
ATOM     15  C   UNL d   1     -49.574  11.877  23.697  0.00  0.00     0.021 A 
ATOM     16  C   UNL d   1     -49.607  13.371  23.062  0.00  0.00     0.021 A 
ATOM     17  C   UNL d   1     -45.158  10.402  23.698  0.00  0.00     0.000 C 
ATOM     18  C   UNL d   1     -50.292  12.269  23.632  0.00  0.00     0.002 A 
ATOM     19  C   UNL d   1     -50.305  13.028  23.309  0.00  0.00     0.002 A 
ENDROOT
TORSDOF 0
ENDMDL
MODEL 9
REMARK VINA RESULT:      -6.8      9.146      9.929
REMARK  0 active torsions:
REMARK  status: ('A' for Active; 'I' for Inactive)
ROOT
ATOM      1  C   UNL d   1     -39.579  14.638  19.121  0.00  0.00     0.166 A 
ATOM      2  C   UNL d   1     -40.169  15.208  19.018  0.00  0.00     0.117 A 
ATOM      3  N   UNL d   1     -39.426  14.281  18.386  0.00  0.00    -0.288 N 
ATOM      4  C   UNL d   1     -40.383  15.205  18.219  0.00  0.00     0.037 A 
ATOM      5  N   UNL d   1     -39.242  14.501  19.864  0.00  0.00    -0.225 NA
ATOM      6  C   UNL d   1     -39.925  14.638  17.845  0.00  0.00     0.067 A 
ATOM      7  N   UNL d   1     -40.424  15.644  19.663  0.00  0.00    -0.241 NA
ATOM      8  C   UNL d   1     -39.497  14.937  20.510  0.00  0.00     0.101 A 
ATOM      9  C   UNL d   1     -40.091  15.511  20.407  0.00  0.00     0.099 A 
ATOM     10  C   UNL d   1     -40.027  14.516  17.022  0.00  0.00     0.018 A 
ATOM     11  C   UNL d   1     -40.948  15.663  17.802  0.00  0.00     0.003 A 
ATOM     12  C   UNL d   1     -39.036  13.747  17.883  0.00  0.00     0.101 C 
ATOM     13  C   UNL d   1     -41.040  15.538  17.008  0.00  0.00     0.000 A 
ATOM     14  C   UNL d   1     -40.589  14.978  16.632  0.00  0.00     0.002 A 
ATOM     15  C   UNL d   1     -40.323  15.922  21.046  0.00  0.00     0.021 A 
ATOM     16  C   UNL d   1     -39.164  14.804  21.254  0.00  0.00     0.021 A 
ATOM     17  C   UNL d   1     -41.542  15.922  16.552  0.00  0.00     0.000 C 
ATOM     18  C   UNL d   1     -40.007  15.807  21.794  0.00  0.00     0.002 A 
ATOM     19  C   UNL d   1     -39.418  15.238  21.897  0.00  0.00     0.002 A 
ENDROOT
TORSDOF 0
ENDMDL
