MODEL 1
REMARK VINA RESULT:      71.6      0.000      0.000
REMARK  4 active torsions:
REMARK  status: ('A' for Active; 'I' for Inactive)
REMARK    1  A    between atoms: C_2  and  N_1 
REMARK    2  A    between atoms: C_12  and  C_5 
REMARK    3  A    between atoms: O_20  and  C_12 
REMARK    4  A    between atoms: C_22  and  O_20 
ROOT
ATOM      1  N   UNL d   1      58.663  49.232  50.734  0.00  0.00    -0.237 N 
ATOM      2  C   UNL d   1      58.885  49.472  51.499  0.00  0.00     0.263 A 
ATOM      3  C   UNL d   1      59.346  49.113  50.287  0.00  0.00     0.263 A 
ATOM      4  C   UNL d   1      60.002  49.277  50.770  0.00  0.00     0.039 A 
ATOM      5  C   UNL d   1      59.710  49.500  51.521  0.00  0.00     0.039 A 
ATOM      6  C   UNL d   1      60.819  49.254  50.630  0.00  0.00     0.049 A 
ATOM      7  C   UNL d   1      60.240  49.700  52.131  0.00  0.00     0.049 A 
ATOM      8  C   UNL d   1      61.349  49.454  51.240  0.00  0.00    -0.026 A 
ATOM      9  C   UNL d   1      61.062  49.677  51.990  0.00  0.00    -0.026 A 
ATOM     10  C   UNL d   1      60.243  49.397  51.143  0.00  0.00     0.018 A 
ATOM     11  O   UNL d   1      59.373  48.881  49.530  0.00  0.00    -0.267 OA
ATOM     12  O   UNL d   1      58.401  49.643  52.096  0.00  0.00    -0.267 OA
ENDROOT
BRANCH   1  13
ATOM     13  C   UNL d   1      57.908  49.136  50.480  0.00  0.00     0.105 A 
ATOM     14  C   UNL d   1      57.518  48.441  50.445  0.00  0.00     0.086 A 
ATOM     15  C   UNL d   1      56.792  48.588  50.164  0.00  0.00     0.014 A 
ATOM     16  C   UNL d   1      56.740  49.372  50.027  0.00  0.00     0.031 A 
ATOM     17  S   UNL d   1      57.428  49.708  50.222  0.00  0.00    -0.069 SA
ATOM     18  C   UNL d   1      56.065  49.681  49.740  0.00  0.00     0.007 C 
BRANCH  14  19
ATOM     19  C   UNL d   1      57.804  47.735  50.654  0.00  0.00     0.302 C 
ATOM     20  O   UNL d   1      58.435  47.433  50.281  0.00  0.00    -0.259 OA
BRANCH  19  21
ATOM     21  O   UNL d   1      57.460  47.321  51.243  0.00  0.00    -0.271 OA
BRANCH  21  22
ATOM     22  C   UNL d   1      57.623  46.542  51.218  0.00  0.00     0.126 C 
ATOM     23  C   UNL d   1      57.052  46.016  51.378  0.00  0.00     0.029 C 
ENDBRANCH  21  22
ENDBRANCH  19  21
ENDBRANCH  14  19
ENDBRANCH   1  13
TORSDOF 4
ENDMDL
