MODEL 1
REMARK VINA RESULT:      -3.5      0.000      0.000
REMARK  7 active torsions:
REMARK  status: ('A' for Active; 'I' for Inactive)
REMARK    1  A    between atoms: C_2  and  C_1 
REMARK       I    between atoms: N_8  and  C_1 
REMARK    2  A    between atoms: C_5  and  C_2 
REMARK    3  A    between atoms: C_6  and  C_2 
REMARK    4  A    between atoms: N_3  and  C_9 
REMARK    5  A    between atoms: C_13  and  N_8 
REMARK    6  A    between atoms: C_9  and  C_10 
REMARK    7  A    between atoms: C_10  and  C_13 
ROOT
ATOM      1  C   UNL d   1      59.096  -0.712  29.376  0.00  0.00     0.058 C 
ENDROOT
BRANCH   1   2
ATOM      2  C   UNL d   1      58.400  -0.342  29.663  0.00  0.00     0.279 C 
ATOM      3  O   UNL d   1      57.873   0.009  29.104  0.00  0.00    -0.265 OA
ATOM      4  N   UNL d   1      58.231  -0.320  30.483  0.00  0.00    -0.206 NA
BRANCH   4   5
ATOM      5  C   UNL d   1      57.546   0.045  30.754  0.00  0.00     0.104 C 
BRANCH   5   6
ATOM      6  C   UNL d   1      57.359   0.046  31.552  0.00  0.00     0.040 C 
BRANCH   6   7
ATOM      7  C   UNL d   1      56.688   0.429  31.814  0.00  0.00     0.082 C 
BRANCH   7   8
ATOM      8  N   UNL d   1      56.435   0.304  32.574  0.00  0.00    -0.299 N 
ATOM      9  C   UNL d   1      56.895   0.539  33.222  0.00  0.00     0.107 A 
ATOM     10  C   UNL d   1      56.629   0.407  33.995  0.00  0.00     0.142 A 
ATOM     11  O   UNL d   1      55.887   0.033  34.119  0.00  0.00    -0.300 OA
ATOM     12  C   UNL d   1      55.422  -0.204  33.475  0.00  0.00     0.142 A 
ATOM     13  C   UNL d   1      55.696  -0.069  32.708  0.00  0.00     0.107 A 
ENDBRANCH   7   8
ENDBRANCH   6   7
ENDBRANCH   5   6
ENDBRANCH   4   5
ENDBRANCH   1   2
BRANCH   1  14
ATOM     14  C   UNL d   1      59.094  -1.513  29.193  0.00  0.00     0.005 A 
ATOM     15  C   UNL d   1      59.639  -2.000  29.572  0.00  0.00     0.000 A 
ATOM     16  C   UNL d   1      59.655  -2.805  29.403  0.00  0.00     0.000 A 
ATOM     17  C   UNL d   1      59.086  -3.123  28.820  0.00  0.00     0.000 A 
ATOM     18  C   UNL d   1      58.549  -2.608  28.455  0.00  0.00     0.000 A 
ATOM     19  C   UNL d   1      58.546  -1.803  28.635  0.00  0.00     0.000 A 
ENDBRANCH   1  14
BRANCH   1  20
ATOM     20  C   UNL d   1      59.773  -0.249  29.287  0.00  0.00     0.005 A 
ATOM     21  C   UNL d   1      60.018  -0.016  28.544  0.00  0.00     0.000 A 
ATOM     22  C   UNL d   1      60.699   0.451  28.455  0.00  0.00     0.000 A 
ATOM     23  C   UNL d   1      61.133   0.681  29.136  0.00  0.00     0.000 A 
ATOM     24  C   UNL d   1      60.873   0.438  29.878  0.00  0.00     0.000 A 
ATOM     25  C   UNL d   1      60.198  -0.023  29.954  0.00  0.00     0.000 A 
ENDBRANCH   1  20
TORSDOF 7
ENDMDL
