MODEL 1
REMARK VINA RESULT:      -5.4      0.000      0.000
REMARK  7 active torsions:
REMARK  status: ('A' for Active; 'I' for Inactive)
REMARK    1  A    between atoms: C_3  and  C_1 
REMARK    2  A    between atoms: N_5  and  C_2 
REMARK    3  A    between atoms: N_4  and  C_3 
REMARK    4  A    between atoms: C_10  and  C_3 
REMARK    5  A    between atoms: C_13  and  N_4 
REMARK       I    between atoms: C_6  and  N_5 
REMARK    6  A    between atoms: C_8  and  C_13 
REMARK    7  A    between atoms: O_16  and  C_8 
ROOT
ATOM      1  C   UNL d   1      52.972  32.971  53.365  0.00  0.00     0.083 C 
ENDROOT
BRANCH   1   2
ATOM      2  C   UNL d   1      53.427  33.345  53.942  0.00  0.00     0.036 A 
ATOM      3  C   UNL d   1      54.239  33.360  53.892  0.00  0.00     0.086 A 
ATOM      4  C   UNL d   1      54.694  33.734  54.470  0.00  0.00     0.020 A 
ATOM      5  C   UNL d   1      54.338  34.093  55.097  0.00  0.00     0.008 A 
ATOM      6  C   UNL d   1      53.494  34.086  55.162  0.00  0.00     0.035 A 
ATOM      7  C   UNL d   1      53.054  33.707  54.575  0.00  0.00     0.010 A 
ATOM      8 BR   UNL d   1      53.110  34.456  55.810  0.00  0.00    -0.049 Br
BRANCH   3   9
ATOM      9  N   UNL d   1      54.617  32.985  53.237  0.00  0.00    -0.208 NA
ATOM     10  C   UNL d   1      55.436  33.056  53.140  0.00  0.00     0.279 C 
ATOM     11  O   UNL d   1      55.797  32.698  52.514  0.00  0.00    -0.265 OA
ATOM     12  C   UNL d   1      55.890  33.483  53.668  0.00  0.00     0.068 C 
ENDBRANCH   3   9
ENDBRANCH   1   2
BRANCH   1  13
ATOM     13  N   UNL d   1      53.127  32.206  53.132  0.00  0.00    -0.238 NA
BRANCH  13  14
ATOM     14  C   UNL d   1      52.605  31.610  53.381  0.00  0.00     0.167 C 
BRANCH  14  15
ATOM     15  C   UNL d   1      52.802  30.813  53.197  0.00  0.00     0.315 C 
ATOM     16  O   UNL d   1      52.780  30.568  52.387  0.00  0.00    -0.257 OA
BRANCH  15  17
ATOM     17  O   UNL d   1      53.012  30.274  53.786  0.00  0.00    -0.295 OA
ATOM     18  C   UNL d   1      52.990  29.490  53.638  0.00  0.00     0.185 C 
ENDBRANCH  15  17
ENDBRANCH  14  15
ENDBRANCH  13  14
ENDBRANCH   1  13
BRANCH   1  19
ATOM     19  C   UNL d   1      52.349  33.376  53.016  0.00  0.00     0.018 A 
ATOM     20  C   UNL d   1      51.587  33.332  53.329  0.00  0.00     0.002 A 
ATOM     21  C   UNL d   1      50.955  33.727  52.997  0.00  0.00     0.000 A 
ATOM     22  C   UNL d   1      51.102  34.200  52.298  0.00  0.00     0.000 A 
ATOM     23  C   UNL d   1      51.861  34.248  51.980  0.00  0.00     0.000 A 
ATOM     24  C   UNL d   1      52.483  33.839  52.335  0.00  0.00     0.002 A 
ENDBRANCH   1  19
TORSDOF 7
ENDMDL
MODEL 2
REMARK VINA RESULT:      -5.2      1.799      3.171
REMARK  7 active torsions:
REMARK  status: ('A' for Active; 'I' for Inactive)
REMARK    1  A    between atoms: C_3  and  C_1 
REMARK    2  A    between atoms: N_5  and  C_2 
REMARK    3  A    between atoms: N_4  and  C_3 
REMARK    4  A    between atoms: C_10  and  C_3 
REMARK    5  A    between atoms: C_13  and  N_4 
REMARK       I    between atoms: C_6  and  N_5 
REMARK    6  A    between atoms: C_8  and  C_13 
REMARK    7  A    between atoms: O_16  and  C_8 
ROOT
ATOM      1  C   UNL d   1      53.267  32.372  53.679  0.00  0.00     0.083 C 
ENDROOT
BRANCH   1   2
ATOM      2  C   UNL d   1      53.988  32.762  53.766  0.00  0.00     0.036 A 
ATOM      3  C   UNL d   1      54.109  33.290  54.373  0.00  0.00     0.086 A 
ATOM      4  C   UNL d   1      54.830  33.681  54.461  0.00  0.00     0.020 A 
ATOM      5  C   UNL d   1      55.430  33.544  53.942  0.00  0.00     0.008 A 
ATOM      6  C   UNL d   1      55.319  32.997  53.305  0.00  0.00     0.035 A 
ATOM      7  C   UNL d   1      54.591  32.615  53.232  0.00  0.00     0.010 A 
ATOM      8 BR   UNL d   1      55.936  32.844  52.757  0.00  0.00    -0.049 Br
BRANCH   3   9
ATOM      9  N   UNL d   1      53.482  33.437  54.920  0.00  0.00    -0.208 NA
ATOM     10  C   UNL d   1      53.514  34.103  55.411  0.00  0.00     0.279 C 
ATOM     11  O   UNL d   1      52.916  34.243  55.933  0.00  0.00    -0.265 OA
ATOM     12  C   UNL d   1      54.142  34.624  55.379  0.00  0.00     0.068 C 
ENDBRANCH   3   9
ENDBRANCH   1   2
BRANCH   1  13
ATOM     13  N   UNL d   1      52.568  32.784  53.596  0.00  0.00    -0.238 NA
BRANCH  13  14
ATOM     14  C   UNL d   1      52.234  32.834  52.837  0.00  0.00     0.167 C 
BRANCH  14  15
ATOM     15  C   UNL d   1      51.551  33.317  52.740  0.00  0.00     0.315 C 
ATOM     16  O   UNL d   1      50.868  33.149  53.211  0.00  0.00    -0.257 OA
BRANCH  15  17
ATOM     17  O   UNL d   1      51.539  33.940  52.200  0.00  0.00    -0.295 OA
ATOM     18  C   UNL d   1      50.867  34.357  52.085  0.00  0.00     0.185 C 
ENDBRANCH  15  17
ENDBRANCH  14  15
ENDBRANCH  13  14
ENDBRANCH   1  13
BRANCH   1  19
ATOM     19  C   UNL d   1      53.249  31.551  53.674  0.00  0.00     0.018 A 
ATOM     20  C   UNL d   1      53.202  31.132  52.965  0.00  0.00     0.002 A 
ATOM     21  C   UNL d   1      53.183  30.317  52.940  0.00  0.00     0.000 A 
ATOM     22  C   UNL d   1      53.213  29.893  53.684  0.00  0.00     0.000 A 
ATOM     23  C   UNL d   1      53.259  30.306  54.397  0.00  0.00     0.000 A 
ATOM     24  C   UNL d   1      53.277  31.131  54.394  0.00  0.00     0.002 A 
ENDBRANCH   1  19
TORSDOF 7
ENDMDL
MODEL 3
REMARK VINA RESULT:      -4.7      1.750      3.259
REMARK  7 active torsions:
REMARK  status: ('A' for Active; 'I' for Inactive)
REMARK    1  A    between atoms: C_3  and  C_1 
REMARK    2  A    between atoms: N_5  and  C_2 
REMARK    3  A    between atoms: N_4  and  C_3 
REMARK    4  A    between atoms: C_10  and  C_3 
REMARK    5  A    between atoms: C_13  and  N_4 
REMARK       I    between atoms: C_6  and  N_5 
REMARK    6  A    between atoms: C_8  and  C_13 
REMARK    7  A    between atoms: O_16  and  C_8 
ROOT
ATOM      1  C   UNL d   1      52.790  33.617  53.458  0.00  0.00     0.083 C 
ENDROOT
BRANCH   1   2
ATOM      2  C   UNL d   1      53.399  33.067  53.374  0.00  0.00     0.036 A 
ATOM      3  C   UNL d   1      53.246  32.269  53.367  0.00  0.00     0.086 A 
ATOM      4  C   UNL d   1      53.855  31.719  53.283  0.00  0.00     0.020 A 
ATOM      5  C   UNL d   1      54.618  31.968  53.207  0.00  0.00     0.008 A 
ATOM      6  C   UNL d   1      54.792  32.796  53.213  0.00  0.00     0.035 A 
ATOM      7  C   UNL d   1      54.170  33.332  53.298  0.00  0.00     0.010 A 
ATOM      8 BR   UNL d   1      55.582  33.070  53.135  0.00  0.00    -0.049 Br
BRANCH   3   9
ATOM      9  N   UNL d   1      52.448  32.003  53.446  0.00  0.00    -0.208 NA
ATOM     10  C   UNL d   1      52.271  31.200  53.342  0.00  0.00     0.279 C 
ATOM     11  O   UNL d   1      51.509  30.947  53.418  0.00  0.00    -0.265 OA
ATOM     12  C   UNL d   1      52.854  30.657  53.163  0.00  0.00     0.068 C 
ENDBRANCH   3   9
ENDBRANCH   1   2
BRANCH   1  13
ATOM     13  N   UNL d   1      52.115  33.575  53.002  0.00  0.00    -0.238 NA
BRANCH  13  14
ATOM     14  C   UNL d   1      51.898  34.247  52.565  0.00  0.00     0.167 C 
BRANCH  14  15
ATOM     15  C   UNL d   1      51.214  34.195  52.078  0.00  0.00     0.315 C 
ATOM     16  O   UNL d   1      51.318  34.122  51.241  0.00  0.00    -0.257 OA
BRANCH  15  17
ATOM     17  O   UNL d   1      50.454  34.215  52.400  0.00  0.00    -0.295 OA
ATOM     18  C   UNL d   1      49.840  34.475  51.961  0.00  0.00     0.185 C 
ENDBRANCH  15  17
ENDBRANCH  14  15
ENDBRANCH  13  14
ENDBRANCH   1  13
BRANCH   1  19
ATOM     19  C   UNL d   1      52.861  34.220  54.010  0.00  0.00     0.018 A 
ATOM     20  C   UNL d   1      53.051  34.988  53.777  0.00  0.00     0.002 A 
ATOM     21  C   UNL d   1      53.126  35.600  54.310  0.00  0.00     0.000 A 
ATOM     22  C   UNL d   1      53.001  35.426  55.139  0.00  0.00     0.000 A 
ATOM     23  C   UNL d   1      52.811  34.660  55.380  0.00  0.00     0.000 A 
ATOM     24  C   UNL d   1      52.741  34.058  54.819  0.00  0.00     0.002 A 
ENDBRANCH   1  19
TORSDOF 7
ENDMDL
MODEL 4
REMARK VINA RESULT:      -4.7      1.857      2.982
REMARK  7 active torsions:
REMARK  status: ('A' for Active; 'I' for Inactive)
REMARK    1  A    between atoms: C_3  and  C_1 
REMARK    2  A    between atoms: N_5  and  C_2 
REMARK    3  A    between atoms: N_4  and  C_3 
REMARK    4  A    between atoms: C_10  and  C_3 
REMARK    5  A    between atoms: C_13  and  N_4 
REMARK       I    between atoms: C_6  and  N_5 
REMARK    6  A    between atoms: C_8  and  C_13 
REMARK    7  A    between atoms: O_16  and  C_8 
ROOT
ATOM      1  C   UNL d   1      52.462  33.515  53.334  0.00  0.00     0.083 C 
ENDROOT
BRANCH   1   2
ATOM      2  C   UNL d   1      52.654  32.713  53.333  0.00  0.00     0.036 A 
ATOM      3  C   UNL d   1      53.422  32.464  53.236  0.00  0.00     0.086 A 
ATOM      4  C   UNL d   1      53.613  31.662  53.235  0.00  0.00     0.020 A 
ATOM      5  C   UNL d   1      53.037  31.108  53.330  0.00  0.00     0.008 A 
ATOM      6  C   UNL d   1      52.232  31.351  53.432  0.00  0.00     0.035 A 
ATOM      7  C   UNL d   1      52.059  32.158  53.430  0.00  0.00     0.010 A 
ATOM      8 BR   UNL d   1      51.621  30.785  53.532  0.00  0.00    -0.049 Br
BRANCH   3   9
ATOM      9  N   UNL d   1      54.030  33.042  53.136  0.00  0.00    -0.208 NA
ATOM     10  C   UNL d   1      54.825  32.813  53.181  0.00  0.00     0.279 C 
ATOM     11  O   UNL d   1      55.405  33.364  53.086  0.00  0.00    -0.265 OA
ATOM     12  C   UNL d   1      55.035  32.036  53.322  0.00  0.00     0.068 C 
ENDBRANCH   3   9
ENDBRANCH   1   2
BRANCH   1  13
ATOM     13  N   UNL d   1      52.879  34.050  53.786  0.00  0.00    -0.238 NA
BRANCH  13  14
ATOM     14  C   UNL d   1      52.461  34.488  54.354  0.00  0.00     0.167 C 
BRANCH  14  15
ATOM     15  C   UNL d   1      52.885  35.065  54.796  0.00  0.00     0.315 C 
ATOM     16  O   UNL d   1      53.227  34.837  55.536  0.00  0.00    -0.257 OA
BRANCH  15  17
ATOM     17  O   UNL d   1      52.972  35.839  54.522  0.00  0.00    -0.295 OA
ATOM     18  C   UNL d   1      53.016  36.445  55.040  0.00  0.00     0.185 C 
ENDBRANCH  15  17
ENDBRANCH  14  15
ENDBRANCH  13  14
ENDBRANCH   1  13
BRANCH   1  19
ATOM     19  C   UNL d   1      51.839  33.783  52.872  0.00  0.00     0.018 A 
ATOM     20  C   UNL d   1      51.068  33.792  53.164  0.00  0.00     0.002 A 
ATOM     21  C   UNL d   1      50.436  34.055  52.720  0.00  0.00     0.000 A 
ATOM     22  C   UNL d   1      50.593  34.329  51.924  0.00  0.00     0.000 A 
ATOM     23  C   UNL d   1      51.363  34.323  51.625  0.00  0.00     0.000 A 
ATOM     24  C   UNL d   1      51.984  34.052  52.095  0.00  0.00     0.002 A 
ENDBRANCH   1  19
TORSDOF 7
ENDMDL
MODEL 5
REMARK VINA RESULT:      -4.7      1.335      3.163
REMARK  7 active torsions:
REMARK  status: ('A' for Active; 'I' for Inactive)
REMARK    1  A    between atoms: C_3  and  C_1 
REMARK    2  A    between atoms: N_5  and  C_2 
REMARK    3  A    between atoms: N_4  and  C_3 
REMARK    4  A    between atoms: C_10  and  C_3 
REMARK    5  A    between atoms: C_13  and  N_4 
REMARK       I    between atoms: C_6  and  N_5 
REMARK    6  A    between atoms: C_8  and  C_13 
REMARK    7  A    between atoms: O_16  and  C_8 
ROOT
ATOM      1  C   UNL d   1      53.168  32.938  53.702  0.00  0.00     0.083 C 
ENDROOT
BRANCH   1   2
ATOM      2  C   UNL d   1      52.875  33.550  53.233  0.00  0.00     0.036 A 
ATOM      3  C   UNL d   1      52.076  33.684  53.168  0.00  0.00     0.086 A 
ATOM      4  C   UNL d   1      51.782  34.296  52.699  0.00  0.00     0.020 A 
ATOM      5  C   UNL d   1      52.288  34.774  52.295  0.00  0.00     0.008 A 
ATOM      6  C   UNL d   1      53.124  34.647  52.353  0.00  0.00     0.035 A 
ATOM      7  C   UNL d   1      53.399  34.030  52.827  0.00  0.00     0.010 A 
ATOM      8 BR   UNL d   1      53.663  35.138  51.938  0.00  0.00    -0.049 Br
BRANCH   3   9
ATOM      9  N   UNL d   1      51.540  33.184  53.590  0.00  0.00    -0.208 NA
ATOM     10  C   UNL d   1      50.724  33.277  53.486  0.00  0.00     0.279 C 
ATOM     11  O   UNL d   1      50.213  32.800  53.888  0.00  0.00    -0.265 OA
ATOM     12  C   UNL d   1      50.423  33.844  52.980  0.00  0.00     0.068 C 
ENDBRANCH   3   9
ENDBRANCH   1   2
BRANCH   1  13
ATOM     13  N   UNL d   1      52.924  32.168  53.595  0.00  0.00    -0.238 NA
BRANCH  13  14
ATOM     14  C   UNL d   1      53.468  31.628  53.276  0.00  0.00     0.167 C 
BRANCH  14  15
ATOM     15  C   UNL d   1      53.209  30.837  53.149  0.00  0.00     0.315 C 
ATOM     16  O   UNL d   1      52.931  30.621  52.379  0.00  0.00    -0.257 OA
BRANCH  15  17
ATOM     17  O   UNL d   1      53.222  30.277  53.755  0.00  0.00    -0.295 OA
ATOM     18  C   UNL d   1      53.199  29.498  53.582  0.00  0.00     0.185 C 
ENDBRANCH  15  17
ENDBRANCH  14  15
ENDBRANCH  13  14
ENDBRANCH   1  13
BRANCH   1  19
ATOM     19  C   UNL d   1      53.717  33.104  54.289  0.00  0.00     0.018 A 
ATOM     20  C   UNL d   1      54.525  33.121  54.122  0.00  0.00     0.002 A 
ATOM     21  C   UNL d   1      55.085  33.284  54.691  0.00  0.00     0.000 A 
ATOM     22  C   UNL d   1      54.812  33.443  55.487  0.00  0.00     0.000 A 
ATOM     23  C   UNL d   1      54.005  33.428  55.661  0.00  0.00     0.000 A 
ATOM     24  C   UNL d   1      53.459  33.260  55.067  0.00  0.00     0.002 A 
ENDBRANCH   1  19
TORSDOF 7
ENDMDL
MODEL 6
REMARK VINA RESULT:      -4.3      1.615      3.508
REMARK  7 active torsions:
REMARK  status: ('A' for Active; 'I' for Inactive)
REMARK    1  A    between atoms: C_3  and  C_1 
REMARK    2  A    between atoms: N_5  and  C_2 
REMARK    3  A    between atoms: N_4  and  C_3 
REMARK    4  A    between atoms: C_10  and  C_3 
REMARK    5  A    between atoms: C_13  and  N_4 
REMARK       I    between atoms: C_6  and  N_5 
REMARK    6  A    between atoms: C_8  and  C_13 
REMARK    7  A    between atoms: O_16  and  C_8 
ROOT
ATOM      1  C   UNL d   1      53.322  31.996  53.873  0.00  0.00     0.083 C 
ENDROOT
BRANCH   1   2
ATOM      2  C   UNL d   1      53.318  31.211  54.128  0.00  0.00     0.036 A 
ATOM      3  C   UNL d   1      53.290  30.597  53.596  0.00  0.00     0.086 A 
ATOM      4  C   UNL d   1      53.287  29.812  53.851  0.00  0.00     0.020 A 
ATOM      5  C   UNL d   1      53.311  29.642  54.637  0.00  0.00     0.008 A 
ATOM      6  C   UNL d   1      53.341  30.271  55.203  0.00  0.00     0.035 A 
ATOM      7  C   UNL d   1      53.344  31.050  54.930  0.00  0.00     0.010 A 
ATOM      8 BR   UNL d   1      53.366  30.108  56.026  0.00  0.00    -0.049 Br
BRANCH   3   9
ATOM      9  N   UNL d   1      53.265  30.770  52.770  0.00  0.00    -0.208 NA
ATOM     10  C   UNL d   1      53.059  30.175  52.231  0.00  0.00     0.279 C 
ATOM     11  O   UNL d   1      53.034  30.341  51.443  0.00  0.00    -0.265 OA
ATOM     12  C   UNL d   1      52.878  29.419  52.484  0.00  0.00     0.068 C 
ENDBRANCH   3   9
ENDBRANCH   1   2
BRANCH   1  13
ATOM     13  N   UNL d   1      52.707  32.302  53.435  0.00  0.00    -0.238 NA
BRANCH  13  14
ATOM     14  C   UNL d   1      52.260  32.918  53.769  0.00  0.00     0.167 C 
BRANCH  14  15
ATOM     15  C   UNL d   1      51.605  33.211  53.330  0.00  0.00     0.315 C 
ATOM     16  O   UNL d   1      50.838  32.887  53.484  0.00  0.00    -0.257 OA
BRANCH  15  17
ATOM     17  O   UNL d   1      51.697  33.800  52.760  0.00  0.00    -0.295 OA
ATOM     18  C   UNL d   1      51.082  34.271  52.567  0.00  0.00     0.185 C 
ENDBRANCH  15  17
ENDBRANCH  14  15
ENDBRANCH  13  14
ENDBRANCH   1  13
BRANCH   1  19
ATOM     19  C   UNL d   1      53.957  32.480  54.063  0.00  0.00     0.018 A 
ATOM     20  C   UNL d   1      54.010  32.836  54.806  0.00  0.00     0.002 A 
ATOM     21  C   UNL d   1      54.633  33.321  55.013  0.00  0.00     0.000 A 
ATOM     22  C   UNL d   1      55.246  33.456  54.430  0.00  0.00     0.000 A 
ATOM     23  C   UNL d   1      55.198  33.103  53.686  0.00  0.00     0.000 A 
ATOM     24  C   UNL d   1      54.557  32.617  53.501  0.00  0.00     0.002 A 
ENDBRANCH   1  19
TORSDOF 7
ENDMDL
MODEL 7
REMARK VINA RESULT:      -2.8      1.716      3.317
REMARK  7 active torsions:
REMARK  status: ('A' for Active; 'I' for Inactive)
REMARK    1  A    between atoms: C_3  and  C_1 
REMARK    2  A    between atoms: N_5  and  C_2 
REMARK    3  A    between atoms: N_4  and  C_3 
REMARK    4  A    between atoms: C_10  and  C_3 
REMARK    5  A    between atoms: C_13  and  N_4 
REMARK       I    between atoms: C_6  and  N_5 
REMARK    6  A    between atoms: C_8  and  C_13 
REMARK    7  A    between atoms: O_16  and  C_8 
ROOT
ATOM      1  C   UNL d   1      53.059  32.949  53.451  0.00  0.00     0.083 C 
ENDROOT
BRANCH   1   2
ATOM      2  C   UNL d   1      52.489  33.513  53.258  0.00  0.00     0.036 A 
ATOM      3  C   UNL d   1      52.299  34.112  53.774  0.00  0.00     0.086 A 
ATOM      4  C   UNL d   1      51.728  34.676  53.581  0.00  0.00     0.020 A 
ATOM      5  C   UNL d   1      51.347  34.640  52.873  0.00  0.00     0.008 A 
ATOM      6  C   UNL d   1      51.534  34.021  52.326  0.00  0.00     0.035 A 
ATOM      7  C   UNL d   1      52.107  33.466  52.535  0.00  0.00     0.010 A 
ATOM      8 BR   UNL d   1      51.144  33.972  51.584  0.00  0.00    -0.049 Br
BRANCH   3   9
ATOM      9  N   UNL d   1      52.696  34.154  54.518  0.00  0.00    -0.208 NA
ATOM     10  C   UNL d   1      52.731  34.875  54.925  0.00  0.00     0.279 C 
ATOM     11  O   UNL d   1      53.110  34.915  55.635  0.00  0.00    -0.265 OA
ATOM     12  C   UNL d   1      52.386  35.551  54.620  0.00  0.00     0.068 C 
ENDBRANCH   3   9
ENDBRANCH   1   2
BRANCH   1  13
ATOM     13  N   UNL d   1      53.804  33.168  53.700  0.00  0.00    -0.238 NA
BRANCH  13  14
ATOM     14  C   UNL d   1      54.456  32.887  53.270  0.00  0.00     0.167 C 
BRANCH  14  15
ATOM     15  C   UNL d   1      55.222  33.149  53.501  0.00  0.00     0.315 C 
ATOM     16  O   UNL d   1      55.783  33.344  52.897  0.00  0.00    -0.257 OA
BRANCH  15  17
ATOM     17  O   UNL d   1      55.431  33.216  54.297  0.00  0.00    -0.295 OA
ATOM     18  C   UNL d   1      55.938  33.788  54.530  0.00  0.00     0.185 C 
ENDBRANCH  15  17
ENDBRANCH  14  15
ENDBRANCH  13  14
ENDBRANCH   1  13
BRANCH   1  19
ATOM     19  C   UNL d   1      52.877  32.151  53.392  0.00  0.00     0.018 A 
ATOM     20  C   UNL d   1      52.921  31.759  52.667  0.00  0.00     0.002 A 
ATOM     21  C   UNL d   1      52.743  30.967  52.589  0.00  0.00     0.000 A 
ATOM     22  C   UNL d   1      52.504  30.539  53.291  0.00  0.00     0.000 A 
ATOM     23  C   UNL d   1      52.458  30.925  54.019  0.00  0.00     0.000 A 
ATOM     24  C   UNL d   1      52.643  31.727  54.071  0.00  0.00     0.002 A 
ENDBRANCH   1  19
TORSDOF 7
ENDMDL
