MODEL 1
REMARK VINA RESULT:       6.2      0.000      0.000
REMARK  1 active torsions:
REMARK  status: ('A' for Active; 'I' for Inactive)
REMARK    1  A    between atoms: C_2  and  N_1 
ROOT
ATOM      1  C   UNL d   1     -51.167  25.809  33.357  0.00  0.00     0.130 A 
ATOM      2  C   UNL d   1     -50.588  25.260  33.343  0.00  0.00     0.067 A 
ATOM      3  C   UNL d   1     -50.768  24.449  33.330  0.00  0.00     0.215 A 
ATOM      4  C   UNL d   1     -51.557  24.208  33.331  0.00  0.00     0.120 A 
ATOM      5  C   UNL d   1     -51.968  25.587  33.358  0.00  0.00     0.025 A 
ATOM      6  C   UNL d   1     -52.167  24.786  33.345  0.00  0.00     0.022 A 
ATOM      7  N   UNL d   1     -51.752  23.410  33.318  0.00  0.00    -0.241 NA
ATOM      8  O   UNL d   1     -50.173  23.884  33.315  0.00  0.00    -0.285 OA
ATOM      9  C   UNL d   1     -52.952  24.548  33.347  0.00  0.00     0.003 A 
ATOM     10  C   UNL d   1     -52.553  23.188  33.319  0.00  0.00     0.099 A 
ATOM     11  C   UNL d   1     -53.132  23.737  33.333  0.00  0.00     0.021 A 
ENDROOT
BRANCH   1  12
ATOM     12  N   UNL d   1     -50.938  26.593  33.369  0.00  0.00    -0.114 N 
ATOM     13  O   UNL d   1     -50.137  26.778  33.445  0.00  0.00    -0.532 OA
ATOM     14  O   UNL d   1     -51.505  27.177  33.307  0.00  0.00    -0.532 OA
ENDBRANCH   1  12
TORSDOF 1
ENDMDL
