MODEL 1
REMARK VINA RESULT:      -7.9      0.000      0.000
REMARK  5 active torsions:
REMARK  status: ('A' for Active; 'I' for Inactive)
REMARK    1  A    between atoms: N_2  and  C_1 
REMARK    2  A    between atoms: C_6  and  C_1 
REMARK    3  A    between atoms: O_4  and  N_2 
REMARK    4  A    between atoms: C_3  and  O_4 
REMARK    5  A    between atoms: C_5  and  C_3 
ROOT
ATOM      1  O   UNL d   1      53.114  32.322  53.872  0.00  0.00    -0.168 OA
ENDROOT
BRANCH   1   2
ATOM      2  C   UNL d   1      53.673  31.670  53.570  0.00  0.00     0.319 C 
ATOM      3  O   UNL d   1      54.514  31.866  53.326  0.00  0.00    -0.257 OA
BRANCH   2   4
ATOM      4  C   UNL d   1      53.405  30.887  53.520  0.00  0.00     0.066 A 
ATOM      5  C   UNL d   1      53.529  30.379  54.166  0.00  0.00     0.012 A 
ATOM      6  C   UNL d   1      53.256  29.596  54.106  0.00  0.00     0.035 A 
ATOM      7 BR   UNL d   1      53.379  29.090  54.751  0.00  0.00    -0.049 Br
ATOM      8  C   UNL d   1      52.874  29.326  53.429  0.00  0.00     0.007 A 
ATOM      9  C   UNL d   1      52.768  29.855  52.806  0.00  0.00     0.001 A 
ATOM     10  C   UNL d   1      53.025  30.618  52.846  0.00  0.00     0.005 A 
ENDBRANCH   2   4
ENDBRANCH   1   2
BRANCH   1  11
ATOM     11  N   UNL d   1      53.019  33.018  53.461  0.00  0.00    -0.100 NA
BRANCH  11  12
ATOM     12  C   UNL d   1      52.509  33.604  53.722  0.00  0.00     0.228 C 
ATOM     13  N   UNL d   1      52.658  33.974  54.442  0.00  0.00    -0.123 N 
BRANCH  12  14
ATOM     14  C   UNL d   1      51.856  33.830  53.285  0.00  0.00     0.121 A 
ATOM     15  N   UNL d   1      51.105  33.677  53.560  0.00  0.00    -0.241 NA
ATOM     16  C   UNL d   1      50.443  33.910  53.110  0.00  0.00     0.099 A 
ATOM     17  C   UNL d   1      50.554  34.294  52.387  0.00  0.00     0.021 A 
ATOM     18  C   UNL d   1      51.320  34.448  52.110  0.00  0.00     0.003 A 
ATOM     19  C   UNL d   1      51.967  34.214  52.562  0.00  0.00     0.022 A 
ENDBRANCH  12  14
ENDBRANCH  11  12
ENDBRANCH   1  11
TORSDOF 5
ENDMDL
MODEL 2
REMARK VINA RESULT:      -7.6      2.365      2.897
REMARK  5 active torsions:
REMARK  status: ('A' for Active; 'I' for Inactive)
REMARK    1  A    between atoms: N_2  and  C_1 
REMARK    2  A    between atoms: C_6  and  C_1 
REMARK    3  A    between atoms: O_4  and  N_2 
REMARK    4  A    between atoms: C_3  and  O_4 
REMARK    5  A    between atoms: C_5  and  C_3 
ROOT
ATOM      1  O   UNL d   1      52.005  33.846  53.370  0.00  0.00    -0.168 OA
ENDROOT
BRANCH   1   2
ATOM      2  C   UNL d   1      52.836  34.210  53.445  0.00  0.00     0.319 C 
ATOM      3  O   UNL d   1      52.981  35.067  53.223  0.00  0.00    -0.257 OA
BRANCH   2   4
ATOM      4  C   UNL d   1      53.465  33.747  53.720  0.00  0.00     0.066 A 
ATOM      5  C   UNL d   1      53.756  33.880  54.487  0.00  0.00     0.012 A 
ATOM      6  C   UNL d   1      54.388  33.410  54.754  0.00  0.00     0.035 A 
ATOM      7 BR   UNL d   1      54.677  33.544  55.518  0.00  0.00    -0.049 Br
ATOM      8  C   UNL d   1      54.720  32.828  54.276  0.00  0.00     0.007 A 
ATOM      9  C   UNL d   1      54.409  32.721  53.521  0.00  0.00     0.001 A 
ATOM     10  C   UNL d   1      53.796  33.167  53.244  0.00  0.00     0.005 A 
ENDBRANCH   2   4
ENDBRANCH   1   2
BRANCH   1  11
ATOM     11  N   UNL d   1      51.382  34.276  53.069  0.00  0.00    -0.100 NA
BRANCH  11  12
ATOM     12  C   UNL d   1      50.627  33.961  53.019  0.00  0.00     0.228 C 
ATOM     13  N   UNL d   1      50.492  33.199  53.300  0.00  0.00    -0.123 N 
BRANCH  12  14
ATOM     14  C   UNL d   1      50.006  34.384  52.698  0.00  0.00     0.121 A 
ATOM     15  N   UNL d   1      49.589  34.912  53.155  0.00  0.00    -0.241 NA
ATOM     16  C   UNL d   1      48.956  35.341  52.821  0.00  0.00     0.099 A 
ATOM     17  C   UNL d   1      48.758  35.225  52.028  0.00  0.00     0.021 A 
ATOM     18  C   UNL d   1      49.185  34.687  51.564  0.00  0.00     0.003 A 
ATOM     19  C   UNL d   1      49.808  34.268  51.904  0.00  0.00     0.022 A 
ENDBRANCH  12  14
ENDBRANCH  11  12
ENDBRANCH   1  11
TORSDOF 5
ENDMDL
MODEL 3
REMARK VINA RESULT:      -7.5      2.246      4.434
REMARK  5 active torsions:
REMARK  status: ('A' for Active; 'I' for Inactive)
REMARK    1  A    between atoms: N_2  and  C_1 
REMARK    2  A    between atoms: C_6  and  C_1 
REMARK    3  A    between atoms: O_4  and  N_2 
REMARK    4  A    between atoms: C_3  and  O_4 
REMARK    5  A    between atoms: C_5  and  C_3 
ROOT
ATOM      1  O   UNL d   1      53.475  31.883  53.524  0.00  0.00    -0.168 OA
ENDROOT
BRANCH   1   2
ATOM      2  C   UNL d   1      54.041  32.588  53.625  0.00  0.00     0.319 C 
ATOM      3  O   UNL d   1      54.897  32.528  53.363  0.00  0.00    -0.257 OA
BRANCH   2   4
ATOM      4  C   UNL d   1      53.766  33.293  53.962  0.00  0.00     0.066 A 
ATOM      5  C   UNL d   1      53.248  33.772  53.523  0.00  0.00     0.012 A 
ATOM      6  C   UNL d   1      52.977  34.478  53.871  0.00  0.00     0.035 A 
ATOM      7 BR   UNL d   1      52.460  34.954  53.432  0.00  0.00    -0.049 Br
ATOM      8  C   UNL d   1      53.211  34.700  54.628  0.00  0.00     0.007 A 
ATOM      9  C   UNL d   1      53.726  34.202  55.036  0.00  0.00     0.001 A 
ATOM     10  C   UNL d   1      53.999  33.515  54.717  0.00  0.00     0.005 A 
ENDBRANCH   2   4
ENDBRANCH   1   2
BRANCH   1  11
ATOM     11  N   UNL d   1      53.744  31.116  53.577  0.00  0.00    -0.100 NA
BRANCH  11  12
ATOM     12  C   UNL d   1      53.233  30.478  53.522  0.00  0.00     0.228 C 
ATOM     13  N   UNL d   1      52.649  30.480  52.942  0.00  0.00    -0.123 N 
BRANCH  12  14
ATOM     14  C   UNL d   1      53.288  29.839  54.030  0.00  0.00     0.121 A 
ATOM     15  N   UNL d   1      52.983  29.886  54.783  0.00  0.00    -0.241 NA
ATOM     16  C   UNL d   1      53.043  29.231  55.296  0.00  0.00     0.099 A 
ATOM     17  C   UNL d   1      53.411  28.540  55.035  0.00  0.00     0.021 A 
ATOM     18  C   UNL d   1      53.721  28.495  54.267  0.00  0.00     0.003 A 
ATOM     19  C   UNL d   1      53.657  29.148  53.769  0.00  0.00     0.022 A 
ENDBRANCH  12  14
ENDBRANCH  11  12
ENDBRANCH   1  11
TORSDOF 5
ENDMDL
MODEL 4
REMARK VINA RESULT:      -7.5      1.874      4.311
REMARK  5 active torsions:
REMARK  status: ('A' for Active; 'I' for Inactive)
REMARK    1  A    between atoms: N_2  and  C_1 
REMARK    2  A    between atoms: C_6  and  C_1 
REMARK    3  A    between atoms: O_4  and  N_2 
REMARK    4  A    between atoms: C_3  and  O_4 
REMARK    5  A    between atoms: C_5  and  C_3 
ROOT
ATOM      1  O   UNL d   1      52.415  32.190  52.941  0.00  0.00    -0.168 OA
ENDROOT
BRANCH   1   2
ATOM      2  C   UNL d   1      51.902  32.878  53.246  0.00  0.00     0.319 C 
ATOM      3  O   UNL d   1      51.024  32.765  53.387  0.00  0.00    -0.257 OA
BRANCH   2   4
ATOM      4  C   UNL d   1      52.249  33.615  53.396  0.00  0.00     0.066 A 
ATOM      5  C   UNL d   1      52.682  33.720  54.097  0.00  0.00     0.012 A 
ATOM      6  C   UNL d   1      53.026  34.464  54.238  0.00  0.00     0.035 A 
ATOM      7 BR   UNL d   1      53.458  34.567  54.938  0.00  0.00    -0.049 Br
ATOM      8  C   UNL d   1      52.942  35.083  53.702  0.00  0.00     0.007 A 
ATOM      9  C   UNL d   1      52.506  34.946  53.017  0.00  0.00     0.001 A 
ATOM     10  C   UNL d   1      52.165  34.232  52.862  0.00  0.00     0.005 A 
ENDBRANCH   2   4
ENDBRANCH   1   2
BRANCH   1  11
ATOM     11  N   UNL d   1      52.255  31.420  53.151  0.00  0.00    -0.100 NA
BRANCH  11  12
ATOM     12  C   UNL d   1      52.735  30.801  52.909  0.00  0.00     0.228 C 
ATOM     13  N   UNL d   1      53.049  30.811  52.148  0.00  0.00    -0.123 N 
BRANCH  12  14
ATOM     14  C   UNL d   1      52.908  30.174  53.404  0.00  0.00     0.121 A 
ATOM     15  N   UNL d   1      52.370  29.573  53.510  0.00  0.00    -0.241 NA
ATOM     16  C   UNL d   1      52.553  28.937  54.016  0.00  0.00     0.099 A 
ATOM     17  C   UNL d   1      53.280  28.921  54.407  0.00  0.00     0.021 A 
ATOM     18  C   UNL d   1      53.827  29.535  54.298  0.00  0.00     0.003 A 
ATOM     19  C   UNL d   1      53.636  30.159  53.795  0.00  0.00     0.022 A 
ENDBRANCH  12  14
ENDBRANCH  11  12
ENDBRANCH   1  11
TORSDOF 5
ENDMDL
MODEL 5
REMARK VINA RESULT:      -7.4      2.981      4.682
REMARK  5 active torsions:
REMARK  status: ('A' for Active; 'I' for Inactive)
REMARK    1  A    between atoms: N_2  and  C_1 
REMARK    2  A    between atoms: C_6  and  C_1 
REMARK    3  A    between atoms: O_4  and  N_2 
REMARK    4  A    between atoms: C_3  and  O_4 
REMARK    5  A    between atoms: C_5  and  C_3 
ROOT
ATOM      1  O   UNL d   1      51.497  34.322  53.189  0.00  0.00    -0.168 OA
ENDROOT
BRANCH   1   2
ATOM      2  C   UNL d   1      50.691  33.916  53.067  0.00  0.00     0.319 C 
ATOM      3  O   UNL d   1      50.547  33.085  53.373  0.00  0.00    -0.257 OA
BRANCH   2   4
ATOM      4  C   UNL d   1      50.084  34.316  52.670  0.00  0.00     0.066 A 
ATOM      5  C   UNL d   1      49.588  34.823  53.102  0.00  0.00     0.012 A 
ATOM      6  C   UNL d   1      48.982  35.220  52.694  0.00  0.00     0.035 A 
ATOM      7 BR   UNL d   1      48.488  35.725  53.126  0.00  0.00    -0.049 Br
ATOM      8  C   UNL d   1      48.871  35.116  51.885  0.00  0.00     0.007 A 
ATOM      9  C   UNL d   1      49.380  34.606  51.485  0.00  0.00     0.001 A 
ATOM     10  C   UNL d   1      49.974  34.213  51.864  0.00  0.00     0.005 A 
ENDBRANCH   2   4
ENDBRANCH   1   2
BRANCH   1  11
ATOM     11  N   UNL d   1      52.118  33.928  53.539  0.00  0.00    -0.100 NA
BRANCH  11  12
ATOM     12  C   UNL d   1      52.833  34.300  53.685  0.00  0.00     0.228 C 
ATOM     13  N   UNL d   1      52.921  35.094  53.485  0.00  0.00    -0.123 N 
BRANCH  12  14
ATOM     14  C   UNL d   1      53.461  33.903  54.025  0.00  0.00     0.121 A 
ATOM     15  N   UNL d   1      53.870  33.340  53.601  0.00  0.00    -0.241 NA
ATOM     16  C   UNL d   1      54.509  32.939  53.954  0.00  0.00     0.099 A 
ATOM     17  C   UNL d   1      54.725  33.115  54.732  0.00  0.00     0.021 A 
ATOM     18  C   UNL d   1      54.307  33.688  55.161  0.00  0.00     0.003 A 
ATOM     19  C   UNL d   1      53.677  34.079  54.803  0.00  0.00     0.022 A 
ENDBRANCH  12  14
ENDBRANCH  11  12
ENDBRANCH   1  11
TORSDOF 5
ENDMDL
MODEL 6
REMARK VINA RESULT:      -5.1      9.627     10.904
REMARK  5 active torsions:
REMARK  status: ('A' for Active; 'I' for Inactive)
REMARK    1  A    between atoms: N_2  and  C_1 
REMARK    2  A    between atoms: C_6  and  C_1 
REMARK    3  A    between atoms: O_4  and  N_2 
REMARK    4  A    between atoms: C_3  and  O_4 
REMARK    5  A    between atoms: C_5  and  C_3 
ROOT
ATOM      1  O   UNL d   1      45.011  26.867  56.671  0.00  0.00    -0.168 OA
ENDROOT
BRANCH   1   2
ATOM      2  C   UNL d   1      45.414  27.396  57.293  0.00  0.00     0.319 C 
ATOM      3  O   UNL d   1      46.117  27.094  57.762  0.00  0.00    -0.257 OA
BRANCH   2   4
ATOM      4  C   UNL d   1      45.131  28.162  57.428  0.00  0.00     0.066 A 
ATOM      5  C   UNL d   1      45.018  28.669  56.779  0.00  0.00     0.012 A 
ATOM      6  C   UNL d   1      44.733  29.436  56.926  0.00  0.00     0.035 A 
ATOM      7 BR   UNL d   1      44.621  29.940  56.277  0.00  0.00    -0.049 Br
ATOM      8  C   UNL d   1      44.567  29.693  57.690  0.00  0.00     0.007 A 
ATOM      9  C   UNL d   1      44.690  29.166  58.311  0.00  0.00     0.001 A 
ATOM     10  C   UNL d   1      44.965  28.418  58.190  0.00  0.00     0.005 A 
ENDBRANCH   2   4
ENDBRANCH   1   2
BRANCH   1  11
ATOM     11  N   UNL d   1      45.045  26.055  56.722  0.00  0.00    -0.100 NA
BRANCH  11  12
ATOM     12  C   UNL d   1      44.704  25.574  56.153  0.00  0.00     0.228 C 
ATOM     13  N   UNL d   1      44.314  25.922  55.517  0.00  0.00    -0.123 N 
BRANCH  12  14
ATOM     14  C   UNL d   1      44.742  24.760  56.201  0.00  0.00     0.121 A 
ATOM     15  N   UNL d   1      44.441  24.372  56.851  0.00  0.00    -0.241 NA
ATOM     16  C   UNL d   1      44.483  23.541  56.894  0.00  0.00     0.099 A 
ATOM     17  C   UNL d   1      44.829  23.116  56.276  0.00  0.00     0.021 A 
ATOM     18  C   UNL d   1      45.135  23.513  55.616  0.00  0.00     0.003 A 
ATOM     19  C   UNL d   1      45.089  24.335  55.583  0.00  0.00     0.022 A 
ENDBRANCH  12  14
ENDBRANCH  11  12
ENDBRANCH   1  11
TORSDOF 5
ENDMDL
