MODEL 1
REMARK VINA RESULT:       3.6      0.000      0.000
REMARK  1 active torsions:
REMARK  status: ('A' for Active; 'I' for Inactive)
REMARK    1  A    between atoms: C_4  and  C_1 
ROOT
ATOM      1  C   UNL d   1     -55.221-102.392 -38.117  0.00  0.00     0.164 A 
ATOM      2  O   UNL d   1     -54.991-101.643 -37.856  0.00  0.00    -0.301 OA
ATOM      3  C   UNL d   1     -55.302-102.880 -37.460  0.00  0.00     0.033 A 
ATOM      4  C   UNL d   1     -54.931-101.670 -37.034  0.00  0.00     0.100 A 
ATOM      5  C   UNL d   1     -55.124-102.438 -36.788  0.00  0.00     0.025 A 
ATOM      6  C   UNL d   1     -54.726-101.101 -36.476  0.00  0.00     0.025 A 
ATOM      7  C   UNL d   1     -55.112-102.632 -35.985  0.00  0.00     0.002 A 
ATOM      8  C   UNL d   1     -54.904-102.055 -35.420  0.00  0.00     0.000 A 
ATOM      9  C   UNL d   1     -54.712-101.291 -35.665  0.00  0.00     0.002 A 
ENDROOT
BRANCH   1  10
ATOM     10  C   UNL d   1     -55.344-102.602 -38.901  0.00  0.00     0.235 C 
ATOM     11  O   UNL d   1     -56.095-102.878 -39.135  0.00  0.00    -0.642 OA
ATOM     12  O   UNL d   1     -54.735-102.543 -39.455  0.00  0.00    -0.642 OA
ENDBRANCH   1  10
TORSDOF 1
ENDMDL
