MODEL 1
REMARK VINA RESULT:      -2.9      0.000      0.000
REMARK  3 active torsions:
REMARK  status: ('A' for Active; 'I' for Inactive)
REMARK    1  A    between atoms: S_11  and  C_2 
REMARK    2  A    between atoms: C_7  and  C_12 
REMARK    3  A    between atoms: C_12  and  S_11 
ROOT
ATOM      1  S   UNL d   1      32.806  20.422 -21.338  0.00  0.00    -0.058 SA
ENDROOT
BRANCH   1   2
ATOM      2  C   UNL d   1      32.559  21.148 -21.019  0.00  0.00     0.164 A 
ATOM      3  S   UNL d   1      33.045  21.727 -20.685  0.00  0.00    -0.039 SA
ATOM      4  C   UNL d   1      32.568  22.353 -20.441  0.00  0.00     0.134 A 
ATOM      5  N   UNL d   1      31.780  22.164 -20.622  0.00  0.00    -0.140 NA
ATOM      6  C   UNL d   1      32.822  23.056 -20.074  0.00  0.00     0.030 C 
ATOM      7  N   UNL d   1      31.770  21.413 -20.983  0.00  0.00    -0.134 NA
ENDBRANCH   1   2
BRANCH   1   8
ATOM      8  C   UNL d   1      32.862  20.329 -22.156  0.00  0.00     0.057 C 
BRANCH   8   9
ATOM      9  C   UNL d   1      32.955  19.575 -22.487  0.00  0.00     0.095 A 
ATOM     10  N   UNL d   1      32.783  19.357 -23.247  0.00  0.00    -0.238 NA
ATOM     11  C   UNL d   1      32.958  18.567 -23.334  0.00  0.00     0.111 A 
ATOM     12  C   UNL d   1      32.874  18.105 -24.011  0.00  0.00     0.028 C 
ATOM     13  S   UNL d   1      33.240  18.296 -22.622  0.00  0.00    -0.066 SA
ATOM     14  C   UNL d   1      33.239  18.914 -22.101  0.00  0.00     0.057 A 
ENDBRANCH   8   9
ENDBRANCH   1   8
TORSDOF 3
ENDMDL
MODEL 2
REMARK VINA RESULT:      -2.7      1.026      4.054
REMARK  3 active torsions:
REMARK  status: ('A' for Active; 'I' for Inactive)
REMARK    1  A    between atoms: S_11  and  C_2 
REMARK    2  A    between atoms: C_7  and  C_12 
REMARK    3  A    between atoms: C_12  and  S_11 
ROOT
ATOM      1  S   UNL d   1      33.195  20.919 -21.715  0.00  0.00    -0.058 SA
ENDROOT
BRANCH   1   2
ATOM      2  C   UNL d   1      33.205  20.147 -22.022  0.00  0.00     0.164 A 
ATOM      3  S   UNL d   1      33.180  19.938 -22.822  0.00  0.00    -0.039 SA
ATOM      4  C   UNL d   1      33.200  19.114 -22.872  0.00  0.00     0.134 A 
ATOM      5  N   UNL d   1      33.238  18.809 -22.101  0.00  0.00    -0.140 NA
ATOM      6  C   UNL d   1      33.186  18.660 -23.569  0.00  0.00     0.030 C 
ATOM      7  N   UNL d   1      33.241  19.450 -21.568  0.00  0.00    -0.134 NA
ENDBRANCH   1   2
BRANCH   1   8
ATOM      8  C   UNL d   1      32.568  21.166 -21.241  0.00  0.00     0.057 C 
BRANCH   8   9
ATOM      9  C   UNL d   1      32.541  21.941 -20.951  0.00  0.00     0.095 A 
ATOM     10  N   UNL d   1      32.838  22.203 -20.245  0.00  0.00    -0.238 NA
ATOM     11  C   UNL d   1      32.691  23.001 -20.184  0.00  0.00     0.111 A 
ATOM     12  C   UNL d   1      32.892  23.504 -19.563  0.00  0.00     0.028 C 
ATOM     13  S   UNL d   1      32.302  23.234 -20.858  0.00  0.00    -0.066 SA
ATOM     14  C   UNL d   1      32.209  22.584 -21.330  0.00  0.00     0.057 A 
ENDBRANCH   8   9
ENDBRANCH   1   8
TORSDOF 3
ENDMDL
MODEL 3
REMARK VINA RESULT:      -2.4      1.186      1.704
REMARK  3 active torsions:
REMARK  status: ('A' for Active; 'I' for Inactive)
REMARK    1  A    between atoms: S_11  and  C_2 
REMARK    2  A    between atoms: C_7  and  C_12 
REMARK    3  A    between atoms: C_12  and  S_11 
ROOT
ATOM      1  S   UNL d   1      33.172  19.310 -22.371  0.00  0.00    -0.058 SA
ENDROOT
BRANCH   1   2
ATOM      2  C   UNL d   1      33.162  20.093 -22.092  0.00  0.00     0.164 A 
ATOM      3  S   UNL d   1      33.074  20.331 -21.304  0.00  0.00    -0.039 SA
ATOM      4  C   UNL d   1      33.096  21.155 -21.282  0.00  0.00     0.134 A 
ATOM      5  N   UNL d   1      33.199  21.432 -22.058  0.00  0.00    -0.140 NA
ATOM      6  C   UNL d   1      33.029  21.634 -20.605  0.00  0.00     0.030 C 
ATOM      7  N   UNL d   1      33.241  20.773 -22.566  0.00  0.00    -0.134 NA
ENDBRANCH   1   2
BRANCH   1   8
ATOM      8  C   UNL d   1      32.868  19.135 -23.117  0.00  0.00     0.057 C 
BRANCH   8   9
ATOM      9  C   UNL d   1      32.709  18.351 -23.331  0.00  0.00     0.095 A 
ATOM     10  N   UNL d   1      32.001  18.056 -23.591  0.00  0.00    -0.238 NA
ATOM     11  C   UNL d   1      32.092  17.261 -23.738  0.00  0.00     0.111 A 
ATOM     12  C   UNL d   1      31.522  16.731 -24.011  0.00  0.00     0.028 C 
ATOM     13  S   UNL d   1      32.862  17.064 -23.568  0.00  0.00    -0.066 SA
ATOM     14  C   UNL d   1      33.241  17.732 -23.318  0.00  0.00     0.057 A 
ENDBRANCH   8   9
ENDBRANCH   1   8
TORSDOF 3
ENDMDL
MODEL 4
REMARK VINA RESULT:      -2.4      3.478      5.688
REMARK  3 active torsions:
REMARK  status: ('A' for Active; 'I' for Inactive)
REMARK    1  A    between atoms: S_11  and  C_2 
REMARK    2  A    between atoms: C_7  and  C_12 
REMARK    3  A    between atoms: C_12  and  S_11 
ROOT
ATOM      1  S   UNL d   1      30.872  16.078 -23.597  0.00  0.00    -0.058 SA
ENDROOT
BRANCH   1   2
ATOM      2  C   UNL d   1      30.112  15.855 -23.847  0.00  0.00     0.164 A 
ATOM      3  S   UNL d   1      29.433  15.816 -23.376  0.00  0.00    -0.039 SA
ATOM      4  C   UNL d   1      28.805  15.569 -23.851  0.00  0.00     0.134 A 
ATOM      5  N   UNL d   1      29.093  15.453 -24.620  0.00  0.00    -0.140 NA
ATOM      6  C   UNL d   1      28.017  15.453 -23.609  0.00  0.00     0.030 C 
ATOM      7  N   UNL d   1      29.908  15.630 -24.622  0.00  0.00    -0.134 NA
ENDBRANCH   1   2
BRANCH   1   8
ATOM      8  C   UNL d   1      31.312  16.612 -24.046  0.00  0.00     0.057 C 
BRANCH   8   9
ATOM      9  C   UNL d   1      32.001  16.951 -23.736  0.00  0.00     0.095 A 
ATOM     10  N   UNL d   1      32.095  17.717 -23.490  0.00  0.00    -0.238 NA
ATOM     11  C   UNL d   1      32.859  17.811 -23.227  0.00  0.00     0.111 A 
ATOM     12  C   UNL d   1      33.206  18.495 -22.925  0.00  0.00     0.028 C 
ATOM     13  S   UNL d   1      33.239  17.098 -23.310  0.00  0.00    -0.066 SA
ATOM     14  C   UNL d   1      32.715  16.570 -23.623  0.00  0.00     0.057 A 
ENDBRANCH   8   9
ENDBRANCH   1   8
TORSDOF 3
ENDMDL
MODEL 5
REMARK VINA RESULT:      -2.4      3.308      4.997
REMARK  3 active torsions:
REMARK  status: ('A' for Active; 'I' for Inactive)
REMARK    1  A    between atoms: S_11  and  C_2 
REMARK    2  A    between atoms: C_7  and  C_12 
REMARK    3  A    between atoms: C_12  and  S_11 
ROOT
ATOM      1  S   UNL d   1      31.333  16.933 -23.985  0.00  0.00    -0.058 SA
ENDROOT
BRANCH   1   2
ATOM      2  C   UNL d   1      32.015  17.271 -23.654  0.00  0.00     0.164 A 
ATOM      3  S   UNL d   1      32.134  18.073 -23.490  0.00  0.00    -0.039 SA
ATOM      4  C   UNL d   1      32.887  18.159 -23.165  0.00  0.00     0.134 A 
ATOM      5  N   UNL d   1      33.240  17.409 -23.126  0.00  0.00    -0.140 NA
ATOM      6  C   UNL d   1      33.241  18.871 -22.916  0.00  0.00     0.030 C 
ATOM      7  N   UNL d   1      32.699  16.852 -23.430  0.00  0.00    -0.134 NA
ENDBRANCH   1   2
BRANCH   1   8
ATOM      8  C   UNL d   1      31.057  16.207 -23.709  0.00  0.00     0.057 C 
BRANCH   8   9
ATOM      9  C   UNL d   1      30.302  15.938 -23.917  0.00  0.00     0.095 A 
ATOM     10  N   UNL d   1      29.652  15.900 -23.435  0.00  0.00    -0.238 NA
ATOM     11  C   UNL d   1      29.029  15.603 -23.866  0.00  0.00     0.111 A 
ATOM     12  C   UNL d   1      28.258  15.467 -23.607  0.00  0.00     0.028 C 
ATOM     13  S   UNL d   1      29.296  15.456 -24.619  0.00  0.00    -0.066 SA
ATOM     14  C   UNL d   1      30.077  15.661 -24.652  0.00  0.00     0.057 A 
ENDBRANCH   8   9
ENDBRANCH   1   8
TORSDOF 3
ENDMDL
MODEL 6
REMARK VINA RESULT:      -2.3      2.992      5.239
REMARK  3 active torsions:
REMARK  status: ('A' for Active; 'I' for Inactive)
REMARK    1  A    between atoms: S_11  and  C_2 
REMARK    2  A    between atoms: C_7  and  C_12 
REMARK    3  A    between atoms: C_12  and  S_11 
ROOT
ATOM      1  S   UNL d   1      32.447  23.090 -19.467  0.00  0.00    -0.058 SA
ENDROOT
BRANCH   1   2
ATOM      2  C   UNL d   1      32.649  23.082 -20.272  0.00  0.00     0.164 A 
ATOM      3  S   UNL d   1      32.327  22.589 -20.853  0.00  0.00    -0.039 SA
ATOM      4  C   UNL d   1      32.688  22.769 -21.572  0.00  0.00     0.134 A 
ATOM      5  N   UNL d   1      33.238  23.377 -21.440  0.00  0.00    -0.140 NA
ATOM      6  C   UNL d   1      32.535  22.410 -22.307  0.00  0.00     0.030 C 
ATOM      7  N   UNL d   1      33.217  23.575 -20.631  0.00  0.00    -0.134 NA
ENDBRANCH   1   2
BRANCH   1   8
ATOM      8  C   UNL d   1      32.969  23.412 -18.915  0.00  0.00     0.057 C 
BRANCH   8   9
ATOM      9  C   UNL d   1      32.807  23.359 -18.104  0.00  0.00     0.095 A 
ATOM     10  N   UNL d   1      33.241  22.960 -17.550  0.00  0.00    -0.238 NA
ATOM     11  C   UNL d   1      32.883  23.055 -16.825  0.00  0.00     0.111 A 
ATOM     12  C   UNL d   1      33.126  22.749 -16.099  0.00  0.00     0.028 C 
ATOM     13  S   UNL d   1      32.222  23.515 -16.934  0.00  0.00    -0.066 SA
ATOM     14  C   UNL d   1      32.174  23.702 -17.718  0.00  0.00     0.057 A 
ENDBRANCH   8   9
ENDBRANCH   1   8
TORSDOF 3
ENDMDL
MODEL 7
REMARK VINA RESULT:      -2.2      0.894      4.076
REMARK  3 active torsions:
REMARK  status: ('A' for Active; 'I' for Inactive)
REMARK    1  A    between atoms: S_11  and  C_2 
REMARK    2  A    between atoms: C_7  and  C_12 
REMARK    3  A    between atoms: C_12  and  S_11 
ROOT
ATOM      1  S   UNL d   1      33.006  19.256 -22.473  0.00  0.00    -0.058 SA
ENDROOT
BRANCH   1   2
ATOM      2  C   UNL d   1      33.014  18.779 -23.153  0.00  0.00     0.164 A 
ATOM      3  S   UNL d   1      32.908  17.960 -23.177  0.00  0.00    -0.039 SA
ATOM      4  C   UNL d   1      32.958  17.718 -23.964  0.00  0.00     0.134 A 
ATOM      5  N   UNL d   1      33.097  18.389 -24.432  0.00  0.00    -0.140 NA
ATOM      6  C   UNL d   1      32.885  16.939 -24.248  0.00  0.00     0.030 C 
ATOM      7  N   UNL d   1      33.132  19.053 -23.930  0.00  0.00    -0.134 NA
ENDBRANCH   1   2
BRANCH   1   8
ATOM      8  C   UNL d   1      33.155  20.065 -22.535  0.00  0.00     0.057 C 
BRANCH   8   9
ATOM      9  C   UNL d   1      33.027  20.566 -21.888  0.00  0.00     0.095 A 
ATOM     10  N   UNL d   1      32.670  21.293 -21.903  0.00  0.00    -0.238 NA
ATOM     11  C   UNL d   1      32.661  21.590 -21.146  0.00  0.00     0.111 A 
ATOM     12  C   UNL d   1      32.354  22.313 -20.893  0.00  0.00     0.028 C 
ATOM     13  S   UNL d   1      33.015  21.044 -20.661  0.00  0.00    -0.066 SA
ATOM     14  C   UNL d   1      33.240  20.415 -21.115  0.00  0.00     0.057 A 
ENDBRANCH   8   9
ENDBRANCH   1   8
TORSDOF 3
ENDMDL
MODEL 8
REMARK VINA RESULT:      -2.1      3.162      3.855
REMARK  3 active torsions:
REMARK  status: ('A' for Active; 'I' for Inactive)
REMARK    1  A    between atoms: S_11  and  C_2 
REMARK    2  A    between atoms: C_7  and  C_12 
REMARK    3  A    between atoms: C_12  and  S_11 
ROOT
ATOM      1  S   UNL d   1      32.612  23.553 -19.710  0.00  0.00    -0.058 SA
ENDROOT
BRANCH   1   2
ATOM      2  C   UNL d   1      32.671  23.398 -18.896  0.00  0.00     0.164 A 
ATOM      3  S   UNL d   1      32.180  23.701 -18.303  0.00  0.00    -0.039 SA
ATOM      4  C   UNL d   1      32.439  23.402 -17.579  0.00  0.00     0.134 A 
ATOM      5  N   UNL d   1      33.093  22.911 -17.720  0.00  0.00    -0.140 NA
ATOM      6  C   UNL d   1      32.108  23.560 -16.832  0.00  0.00     0.030 C 
ATOM      7  N   UNL d   1      33.241  22.906 -18.541  0.00  0.00    -0.134 NA
ENDBRANCH   1   2
BRANCH   1   8
ATOM      8  C   UNL d   1      32.524  22.930 -20.242  0.00  0.00     0.057 C 
BRANCH   8   9
ATOM      9  C   UNL d   1      32.573  23.066 -21.058  0.00  0.00     0.095 A 
ATOM     10  N   UNL d   1      33.002  22.636 -21.594  0.00  0.00    -0.238 NA
ATOM     11  C   UNL d   1      32.891  22.961 -22.332  0.00  0.00     0.111 A 
ATOM     12  C   UNL d   1      33.217  22.711 -23.047  0.00  0.00     0.028 C 
ATOM     13  S   UNL d   1      32.390  23.596 -22.250  0.00  0.00    -0.066 SA
ATOM     14  C   UNL d   1      32.194  23.661 -21.469  0.00  0.00     0.057 A 
ENDBRANCH   8   9
ENDBRANCH   1   8
TORSDOF 3
ENDMDL
MODEL 9
REMARK VINA RESULT:      -0.7      3.132      4.410
REMARK  3 active torsions:
REMARK  status: ('A' for Active; 'I' for Inactive)
REMARK    1  A    between atoms: S_11  and  C_2 
REMARK    2  A    between atoms: C_7  and  C_12 
REMARK    3  A    between atoms: C_12  and  S_11 
ROOT
ATOM      1  S   UNL d   1      32.280  22.763 -21.271  0.00  0.00    -0.058 SA
ENDROOT
BRANCH   1   2
ATOM      2  C   UNL d   1      32.353  23.009 -22.061  0.00  0.00     0.164 A 
ATOM      3  S   UNL d   1      32.820  22.653 -22.644  0.00  0.00    -0.039 SA
ATOM      4  C   UNL d   1      32.724  23.079 -23.344  0.00  0.00     0.134 A 
ATOM      5  N   UNL d   1      32.196  23.702 -23.198  0.00  0.00    -0.140 NA
ATOM      6  C   UNL d   1      33.090  22.919 -24.074  0.00  0.00     0.030 C 
ATOM      7  N   UNL d   1      31.962  23.662 -22.399  0.00  0.00    -0.134 NA
ENDBRANCH   1   2
BRANCH   1   8
ATOM      8  C   UNL d   1      32.949  22.710 -20.793  0.00  0.00     0.057 C 
BRANCH   8   9
ATOM      9  C   UNL d   1      32.886  22.802 -19.972  0.00  0.00     0.095 A 
ATOM     10  N   UNL d   1      32.466  23.373 -19.581  0.00  0.00    -0.238 NA
ATOM     11  C   UNL d   1      32.557  23.257 -18.781  0.00  0.00     0.111 A 
ATOM     12  C   UNL d   1      32.232  23.701 -18.168  0.00  0.00     0.028 C 
ATOM     13  S   UNL d   1      33.037  22.609 -18.678  0.00  0.00    -0.066 SA
ATOM     14  C   UNL d   1      33.240  22.330 -19.408  0.00  0.00     0.057 A 
ENDBRANCH   8   9
ENDBRANCH   1   8
TORSDOF 3
ENDMDL
