MODEL 1
REMARK VINA RESULT:      -5.5      0.000      0.000
REMARK  0 active torsions:
REMARK  status: ('A' for Active; 'I' for Inactive)
ROOT
ATOM      1  N   UNL d   1      57.065  -1.160  31.275  0.00  0.00    -0.183 NA
ATOM      2  C   UNL d   1      57.525  -0.665  30.799  0.00  0.00     0.339 A 
ATOM      3  N   UNL d   1      57.110   0.454  31.577  0.00  0.00    -0.201 NA
ATOM      4  C   UNL d   1      57.547   0.135  30.949  0.00  0.00     0.337 A 
ATOM      5  C   UNL d   1      56.629  -0.846  31.901  0.00  0.00     0.184 A 
ATOM      6  C   UNL d   1      56.652  -0.047  32.050  0.00  0.00     0.121 A 
ATOM      7  N   UNL d   1      56.170  -1.341  32.376  0.00  0.00    -0.223 NA
ATOM      8  C   UNL d   1      56.215   0.272  32.678  0.00  0.00     0.031 A 
ATOM      9  O   UNL d   1      57.965  -0.977  30.168  0.00  0.00    -0.260 OA
ATOM     10  O   UNL d   1      58.010   0.636  30.470  0.00  0.00    -0.260 OA
ATOM     11  C   UNL d   1      55.756  -0.228  33.152  0.00  0.00     0.055 A 
ATOM     12  C   UNL d   1      55.733  -1.028  33.003  0.00  0.00     0.107 A 
ATOM     13 BR   UNL d   1      55.317   0.079  33.780  0.00  0.00    -0.048 Br
ENDROOT
TORSDOF 0
ENDMDL
MODEL 2
REMARK VINA RESULT:      -5.0      2.072      2.703
REMARK  0 active torsions:
REMARK  status: ('A' for Active; 'I' for Inactive)
ROOT
ATOM      1  N   UNL d   1      56.403  -1.362  32.192  0.00  0.00    -0.183 NA
ATOM      2  C   UNL d   1      55.953  -1.067  32.819  0.00  0.00     0.339 A 
ATOM      3  N   UNL d   1      56.356   0.255  32.473  0.00  0.00    -0.201 NA
ATOM      4  C   UNL d   1      55.929  -0.265  32.958  0.00  0.00     0.337 A 
ATOM      5  C   UNL d   1      56.828  -0.848  31.708  0.00  0.00     0.184 A 
ATOM      6  C   UNL d   1      56.805  -0.047  31.848  0.00  0.00     0.121 A 
ATOM      7  N   UNL d   1      57.278  -1.143  31.082  0.00  0.00    -0.223 NA
ATOM      8  C   UNL d   1      57.231   0.474  31.364  0.00  0.00     0.031 A 
ATOM      9  O   UNL d   1      55.523  -1.582  33.309  0.00  0.00    -0.260 OA
ATOM     10  O   UNL d   1      55.476   0.035  33.590  0.00  0.00    -0.260 OA
ATOM     11  C   UNL d   1      57.681   0.172  30.737  0.00  0.00     0.055 A 
ATOM     12  C   UNL d   1      57.705  -0.629  30.597  0.00  0.00     0.107 A 
ATOM     13 BR   UNL d   1      58.109   0.681  30.249  0.00  0.00    -0.048 Br
ENDROOT
TORSDOF 0
ENDMDL
MODEL 3
REMARK VINA RESULT:      -4.2      2.795      3.509
REMARK  0 active torsions:
REMARK  status: ('A' for Active; 'I' for Inactive)
ROOT
ATOM      1  N   UNL d   1      56.226   0.676  34.493  0.00  0.00    -0.183 NA
ATOM      2  C   UNL d   1      55.416   0.628  34.646  0.00  0.00     0.339 A 
ATOM      3  N   UNL d   1      55.171   0.474  33.251  0.00  0.00    -0.201 NA
ATOM      4  C   UNL d   1      54.893   0.528  34.030  0.00  0.00     0.337 A 
ATOM      5  C   UNL d   1      56.507   0.622  33.720  0.00  0.00     0.184 A 
ATOM      6  C   UNL d   1      55.984   0.522  33.104  0.00  0.00     0.121 A 
ATOM      7  N   UNL d   1      57.317   0.670  33.567  0.00  0.00    -0.223 NA
ATOM      8  C   UNL d   1      56.262   0.468  32.326  0.00  0.00     0.031 A 
ATOM      9  O   UNL d   1      55.129   0.682  35.424  0.00  0.00    -0.260 OA
ATOM     10  O   UNL d   1      54.074   0.479  34.182  0.00  0.00    -0.260 OA
ATOM     11  C   UNL d   1      57.075   0.516  32.178  0.00  0.00     0.055 A 
ATOM     12  C   UNL d   1      57.598   0.617  32.793  0.00  0.00     0.107 A 
ATOM     13 BR   UNL d   1      57.363   0.463  31.407  0.00  0.00    -0.048 Br
ENDROOT
TORSDOF 0
ENDMDL
MODEL 4
REMARK VINA RESULT:      -4.0      8.712      9.211
REMARK  0 active torsions:
REMARK  status: ('A' for Active; 'I' for Inactive)
ROOT
ATOM      1  N   UNL d   1      59.267  -7.122  35.644  0.00  0.00    -0.183 NA
ATOM      2  C   UNL d   1      59.582  -6.366  35.754  0.00  0.00     0.339 A 
ATOM      3  N   UNL d   1      60.798  -6.951  36.210  0.00  0.00    -0.201 NA
ATOM      4  C   UNL d   1      60.341  -6.281  36.035  0.00  0.00     0.337 A 
ATOM      5  C   UNL d   1      59.718  -7.789  35.816  0.00  0.00     0.184 A 
ATOM      6  C   UNL d   1      60.477  -7.705  36.097  0.00  0.00     0.121 A 
ATOM      7  N   UNL d   1      59.403  -8.544  35.705  0.00  0.00    -0.223 NA
ATOM      8  C   UNL d   1      60.934  -8.373  36.272  0.00  0.00     0.031 A 
ATOM      9  O   UNL d   1      59.130  -5.691  35.581  0.00  0.00    -0.260 OA
ATOM     10  O   UNL d   1      60.662  -5.520  36.148  0.00  0.00    -0.260 OA
ATOM     11  C   UNL d   1      60.613  -9.129  36.159  0.00  0.00     0.055 A 
ATOM     12  C   UNL d   1      59.854  -9.213  35.878  0.00  0.00     0.107 A 
ATOM     13 BR   UNL d   1      61.059  -9.801  36.330  0.00  0.00    -0.048 Br
ENDROOT
TORSDOF 0
ENDMDL
MODEL 5
REMARK VINA RESULT:      -3.7      1.434      1.821
REMARK  0 active torsions:
REMARK  status: ('A' for Active; 'I' for Inactive)
ROOT
ATOM      1  N   UNL d   1      57.549   0.669  33.092  0.00  0.00    -0.183 NA
ATOM      2  C   UNL d   1      57.676   0.656  32.275  0.00  0.00     0.339 A 
ATOM      3  N   UNL d   1      56.267   0.636  32.066  0.00  0.00    -0.201 NA
ATOM      4  C   UNL d   1      57.041   0.639  31.767  0.00  0.00     0.337 A 
ATOM      5  C   UNL d   1      56.782   0.666  33.392  0.00  0.00     0.184 A 
ATOM      6  C   UNL d   1      56.147   0.649  32.884  0.00  0.00     0.121 A 
ATOM      7  N   UNL d   1      56.656   0.679  34.208  0.00  0.00    -0.223 NA
ATOM      8  C   UNL d   1      55.374   0.646  33.183  0.00  0.00     0.031 A 
ATOM      9  O   UNL d   1      58.448   0.659  31.968  0.00  0.00    -0.260 OA
ATOM     10  O   UNL d   1      57.166   0.626  30.943  0.00  0.00    -0.260 OA
ATOM     11  C   UNL d   1      55.252   0.660  34.002  0.00  0.00     0.055 A 
ATOM     12  C   UNL d   1      55.888   0.676  34.511  0.00  0.00     0.107 A 
ATOM     13 BR   UNL d   1      54.487   0.657  34.310  0.00  0.00    -0.048 Br
ENDROOT
TORSDOF 0
ENDMDL
MODEL 6
REMARK VINA RESULT:      -3.4      9.430      9.763
REMARK  0 active torsions:
REMARK  status: ('A' for Active; 'I' for Inactive)
ROOT
ATOM      1  N   UNL d   1      59.293  -8.589  35.116  0.00  0.00    -0.183 NA
ATOM      2  C   UNL d   1      59.642  -8.110  35.692  0.00  0.00     0.339 A 
ATOM      3  N   UNL d   1      60.884  -8.199  34.999  0.00  0.00    -0.201 NA
ATOM      4  C   UNL d   1      60.431  -7.916  35.634  0.00  0.00     0.337 A 
ATOM      5  C   UNL d   1      59.740  -8.872  34.484  0.00  0.00     0.184 A 
ATOM      6  C   UNL d   1      60.529  -8.678  34.426  0.00  0.00     0.121 A 
ATOM      7  N   UNL d   1      59.391  -9.351  33.910  0.00  0.00    -0.223 NA
ATOM      8  C   UNL d   1      60.982  -8.961  33.793  0.00  0.00     0.031 A 
ATOM      9  O   UNL d   1      59.194  -7.823  36.330  0.00  0.00    -0.260 OA
ATOM     10  O   UNL d   1      60.785  -7.433  36.213  0.00  0.00    -0.260 OA
ATOM     11  C   UNL d   1      60.627  -9.441  33.218  0.00  0.00     0.055 A 
ATOM     12  C   UNL d   1      59.839  -9.635  33.276  0.00  0.00     0.107 A 
ATOM     13 BR   UNL d   1      61.069  -9.727  32.584  0.00  0.00    -0.048 Br
ENDROOT
TORSDOF 0
ENDMDL
MODEL 7
REMARK VINA RESULT:      -2.9      2.438      3.059
REMARK  0 active torsions:
REMARK  status: ('A' for Active; 'I' for Inactive)
ROOT
ATOM      1  N   UNL d   1      55.902   0.602  32.401  0.00  0.00    -0.183 NA
ATOM      2  C   UNL d   1      55.853   0.521  33.222  0.00  0.00     0.339 A 
ATOM      3  N   UNL d   1      57.274   0.433  33.288  0.00  0.00    -0.201 NA
ATOM      4  C   UNL d   1      56.533   0.437  33.662  0.00  0.00     0.337 A 
ATOM      5  C   UNL d   1      56.636   0.599  32.027  0.00  0.00     0.184 A 
ATOM      6  C   UNL d   1      57.316   0.516  32.467  0.00  0.00     0.121 A 
ATOM      7  N   UNL d   1      56.685   0.681  31.207  0.00  0.00    -0.223 NA
ATOM      8  C   UNL d   1      58.056   0.512  32.094  0.00  0.00     0.031 A 
ATOM      9  O   UNL d   1      55.115   0.523  33.603  0.00  0.00    -0.260 OA
ATOM     10  O   UNL d   1      56.486   0.354  34.490  0.00  0.00    -0.260 OA
ATOM     11  C   UNL d   1      58.099   0.595  31.271  0.00  0.00     0.055 A 
ATOM     12  C   UNL d   1      57.420   0.678  30.831  0.00  0.00     0.107 A 
ATOM     13 BR   UNL d   1      58.831   0.592  30.890  0.00  0.00    -0.048 Br
ENDROOT
TORSDOF 0
ENDMDL
MODEL 8
REMARK VINA RESULT:      -2.7      2.842      3.858
REMARK  0 active torsions:
REMARK  status: ('A' for Active; 'I' for Inactive)
ROOT
ATOM      1  N   UNL d   1      57.451   0.340  30.104  0.00  0.00    -0.183 NA
ATOM      2  C   UNL d   1      57.432   0.429  30.926  0.00  0.00     0.339 A 
ATOM      3  N   UNL d   1      58.837   0.667  30.923  0.00  0.00    -0.201 NA
ATOM      4  C   UNL d   1      58.119   0.591  31.332  0.00  0.00     0.337 A 
ATOM      5  C   UNL d   1      58.163   0.415  29.696  0.00  0.00     0.184 A 
ATOM      6  C   UNL d   1      58.849   0.577  30.102  0.00  0.00     0.121 A 
ATOM      7  N   UNL d   1      58.182   0.327  28.875  0.00  0.00    -0.223 NA
ATOM      8  C   UNL d   1      59.567   0.653  29.694  0.00  0.00     0.031 A 
ATOM      9  O   UNL d   1      56.717   0.354  31.342  0.00  0.00    -0.260 OA
ATOM     10  O   UNL d   1      58.102   0.680  32.161  0.00  0.00    -0.260 OA
ATOM     11  C   UNL d   1      59.581   0.564  28.870  0.00  0.00     0.055 A 
ATOM     12  C   UNL d   1      58.894   0.402  28.464  0.00  0.00     0.107 A 
ATOM     13 BR   UNL d   1      60.289   0.637  28.455  0.00  0.00    -0.048 Br
ENDROOT
TORSDOF 0
ENDMDL
