MODEL 1
REMARK VINA RESULT:      22.0      0.000      0.000
REMARK  3 active torsions:
REMARK  status: ('A' for Active; 'I' for Inactive)
REMARK    1  A    between atoms: C_11  and  C_3 
REMARK       I    between atoms: C_7  and  N_9 
REMARK    2  A    between atoms: C_8  and  C_7 
REMARK    3  A    between atoms: N_9  and  C_13 
ROOT
ATOM      1  C   UNL d   1      46.210 -18.363  43.480  0.00  0.00     0.021 A 
ATOM      2  C   UNL d   1      46.167 -17.190  44.294  0.00  0.00     0.085 A 
ATOM      3  C   UNL d   1      46.276 -17.545  43.557  0.00  0.00     0.021 A 
ATOM      4  C   UNL d   1      46.034 -18.827  44.140  0.00  0.00     0.002 A 
ATOM      5  C   UNL d   1      45.925 -18.472  44.877  0.00  0.00     0.002 A 
ATOM      6  C   UNL d   1      45.992 -17.653  44.954  0.00  0.00     0.019 A 
ENDROOT
BRANCH   2   7
ATOM      7  N   UNL d   1      46.234 -16.375  44.371  0.00  0.00    -0.207 NA
ATOM      8  C   UNL d   1      45.634 -15.887  44.107  0.00  0.00     0.297 C 
ATOM      9  O   UNL d   1      44.951 -16.213  43.759  0.00  0.00    -0.264 OA
BRANCH   8  10
ATOM     10  C   UNL d   1      45.700 -15.068  44.184  0.00  0.00     0.139 A 
ATOM     11  N   UNL d   1      45.153 -14.574  43.830  0.00  0.00    -0.241 NA
ATOM     12  C   UNL d   1      45.219 -13.755  43.907  0.00  0.00     0.082 A 
ATOM     13  C   UNL d   1      44.665 -13.261  43.548  0.00  0.00     0.019 A 
ATOM     14  C   UNL d   1      45.833 -13.430  44.338  0.00  0.00     0.018 A 
ATOM     15  C   UNL d   1      44.731 -12.442  43.625  0.00  0.00     0.002 A 
ATOM     16  C   UNL d   1      45.353 -12.118  44.061  0.00  0.00     0.000 A 
ATOM     17  C   UNL d   1      45.900 -12.612  44.415  0.00  0.00     0.002 A 
ATOM     18  C   UNL d   1      46.396 -13.926  44.702  0.00  0.00     0.003 A 
ATOM     19  C   UNL d   1      46.329 -14.744  44.625  0.00  0.00     0.024 A 
ENDBRANCH   8  10
ENDBRANCH   2   7
BRANCH   1  20
ATOM     20  C   UNL d   1      46.318 -18.719  42.743  0.00  0.00     0.101 A 
ATOM     21  N   UNL d   1      46.415 -18.357  42.005  0.00  0.00    -0.221 NA
ATOM     22  C   UNL d   1      46.502 -18.948  41.455  0.00  0.00     0.179 A 
ATOM     23  N   UNL d   1      46.461 -19.676  41.837  0.00  0.00    -0.282 N 
ATOM     24  S   UNL d   1      46.615 -19.091  40.656  0.00  0.00    -0.048 SA
ATOM     25  C   UNL d   1      46.347 -19.533  42.641  0.00  0.00     0.101 A 
ATOM     26  C   UNL d   1      46.552 -20.269  41.260  0.00  0.00     0.089 A 
ATOM     27  C   UNL d   1      46.646 -19.904  40.540  0.00  0.00     0.057 A 
ENDBRANCH   1  20
TORSDOF 3
ENDMDL
