MODEL 1
REMARK VINA RESULT:      55.5      0.000      0.000
REMARK  3 active torsions:
REMARK  status: ('A' for Active; 'I' for Inactive)
REMARK    1  A    between atoms: C_8  and  N_1 
REMARK    2  A    between atoms: N_7  and  C_2 
REMARK    3  A    between atoms: C_16  and  C_8 
ROOT
ATOM      1  N   UNL d   1      13.354  12.721  -3.301  0.00  0.00    -0.225 N 
ATOM      2  C   UNL d   1      13.613  13.944  -4.371  0.00  0.00     0.158 A 
ATOM      3  C   UNL d   1      13.521  13.484  -3.028  0.00  0.00     0.358 A 
ATOM      4  N   UNL d   1      13.650  14.090  -3.562  0.00  0.00    -0.174 NA
ATOM      5  C   UNL d   1      13.315  12.566  -4.107  0.00  0.00     0.271 A 
ATOM      6  C   UNL d   1      13.446  13.182  -4.644  0.00  0.00     0.099 A 
ATOM      7  O   UNL d   1      13.558  13.632  -2.213  0.00  0.00    -0.244 OA
ATOM      8  O   UNL d   1      13.148  11.803  -4.380  0.00  0.00    -0.266 OA
ENDROOT
BRANCH   1   9
ATOM      9  C   UNL d   1      13.225  12.109  -2.763  0.00  0.00     0.087 C 
BRANCH   9  10
ATOM     10  C   UNL d   1      13.719  12.026  -2.107  0.00  0.00     0.018 A 
ATOM     11  C   UNL d   1      13.397  12.100  -1.348  0.00  0.00     0.004 A 
ATOM     12  C   UNL d   1      13.891  12.017  -0.693  0.00  0.00     0.030 A 
ATOM     13  C   UNL d   1      14.690  11.862  -0.801  0.00  0.00     0.140 A 
ATOM     14  C   UNL d   1      15.003  11.790  -1.549  0.00  0.00     0.030 A 
ATOM     15  F   UNL d   1      15.181  11.779  -0.137  0.00  0.00    -0.204 F 
ATOM     16  C   UNL d   1      14.518  11.871  -2.207  0.00  0.00     0.004 A 
ENDBRANCH   9  10
ENDBRANCH   1   9
BRANCH   2  17
ATOM     17  N   UNL d   1      13.741  14.552  -4.910  0.00  0.00    -0.285 N 
ATOM     18  C   UNL d   1      13.198  15.157  -4.983  0.00  0.00     0.106 A 
ATOM     19  C   UNL d   1      13.327  15.765  -5.522  0.00  0.00     0.118 A 
ATOM     20  C   UNL d   1      12.778  16.376  -5.596  0.00  0.00     0.028 C 
ATOM     21  O   UNL d   1      13.998  15.772  -5.990  0.00  0.00    -0.304 OA
ATOM     22  C   UNL d   1      14.561  15.151  -5.919  0.00  0.00     0.118 A 
ATOM     23  C   UNL d   1      14.429  14.542  -5.377  0.00  0.00     0.106 A 
ATOM     24  C   UNL d   1      15.237  15.154  -6.388  0.00  0.00     0.028 C 
ENDBRANCH   2  17
TORSDOF 3
ENDMDL
MODEL 2
REMARK VINA RESULT:      56.1      2.287      3.200
REMARK  3 active torsions:
REMARK  status: ('A' for Active; 'I' for Inactive)
REMARK    1  A    between atoms: C_8  and  N_1 
REMARK    2  A    between atoms: N_7  and  C_2 
REMARK    3  A    between atoms: C_16  and  C_8 
ROOT
ATOM      1  N   UNL d   1      14.510  13.824  -1.077  0.00  0.00    -0.225 N 
ATOM      2  C   UNL d   1      13.867  13.572  -2.571  0.00  0.00     0.158 A 
ATOM      3  C   UNL d   1      14.549  13.075  -1.425  0.00  0.00     0.358 A 
ATOM      4  N   UNL d   1      14.228  12.952  -2.168  0.00  0.00    -0.174 NA
ATOM      5  C   UNL d   1      14.150  14.449  -1.472  0.00  0.00     0.271 A 
ATOM      6  C   UNL d   1      13.828  14.321  -2.223  0.00  0.00     0.099 A 
ATOM      7  O   UNL d   1      14.913  12.450  -1.020  0.00  0.00    -0.244 OA
ATOM      8  O   UNL d   1      14.111  15.198  -1.124  0.00  0.00    -0.266 OA
ENDROOT
BRANCH   1   9
ATOM      9  C   UNL d   1      14.832  13.949  -0.328  0.00  0.00     0.087 C 
BRANCH   9  10
ATOM     10  C   UNL d   1      15.561  14.330  -0.251  0.00  0.00     0.018 A 
ATOM     11  C   UNL d   1      15.579  15.154  -0.189  0.00  0.00     0.004 A 
ATOM     12  C   UNL d   1      16.306  15.535  -0.112  0.00  0.00     0.030 A 
ATOM     13  C   UNL d   1      16.999  15.094  -0.098  0.00  0.00     0.140 A 
ATOM     14  C   UNL d   1      16.976  14.282  -0.160  0.00  0.00     0.030 A 
ATOM     15  F   UNL d   1      17.726  15.484  -0.021  0.00  0.00    -0.204 F 
ATOM     16  C   UNL d   1      16.256  13.896  -0.236  0.00  0.00     0.004 A 
ENDBRANCH   9  10
ENDBRANCH   1   9
BRANCH   2  17
ATOM     17  N   UNL d   1      13.544  13.451  -3.318  0.00  0.00    -0.285 N 
ATOM     18  C   UNL d   1      13.444  14.081  -3.827  0.00  0.00     0.106 A 
ATOM     19  C   UNL d   1      13.121  13.960  -4.575  0.00  0.00     0.118 A 
ATOM     20  C   UNL d   1      13.019  14.596  -5.090  0.00  0.00     0.028 C 
ATOM     21  O   UNL d   1      12.898  13.211  -4.816  0.00  0.00    -0.304 OA
ATOM     22  C   UNL d   1      12.999  12.558  -4.294  0.00  0.00     0.118 A 
ATOM     23  C   UNL d   1      13.323  12.683  -3.546  0.00  0.00     0.106 A 
ATOM     24  C   UNL d   1      12.776  11.803  -4.533  0.00  0.00     0.028 C 
ENDBRANCH   2  17
TORSDOF 3
ENDMDL
MODEL 3
REMARK VINA RESULT:      56.2      2.528      3.896
REMARK  3 active torsions:
REMARK  status: ('A' for Active; 'I' for Inactive)
REMARK    1  A    between atoms: C_8  and  N_1 
REMARK    2  A    between atoms: N_7  and  C_2 
REMARK    3  A    between atoms: C_16  and  C_8 
ROOT
ATOM      1  N   UNL d   1      13.209  14.099  -3.609  0.00  0.00    -0.225 N 
ATOM      2  C   UNL d   1      14.086  14.936  -2.496  0.00  0.00     0.158 A 
ATOM      3  C   UNL d   1      13.507  13.714  -2.940  0.00  0.00     0.358 A 
ATOM      4  N   UNL d   1      13.943  14.133  -2.388  0.00  0.00    -0.174 NA
ATOM      5  C   UNL d   1      13.347  14.901  -3.724  0.00  0.00     0.271 A 
ATOM      6  C   UNL d   1      13.788  15.320  -3.164  0.00  0.00     0.099 A 
ATOM      7  O   UNL d   1      13.364  12.905  -2.830  0.00  0.00    -0.244 OA
ATOM      8  O   UNL d   1      13.049  15.286  -4.393  0.00  0.00    -0.266 OA
ENDROOT
BRANCH   1   9
ATOM      9  C   UNL d   1      12.769  13.678  -4.165  0.00  0.00     0.087 C 
BRANCH   9  10
ATOM     10  C   UNL d   1      13.155  13.207  -4.724  0.00  0.00     0.018 A 
ATOM     11  C   UNL d   1      12.943  12.411  -4.794  0.00  0.00     0.004 A 
ATOM     12  C   UNL d   1      13.327  11.940  -5.352  0.00  0.00     0.030 A 
ATOM     13  C   UNL d   1      13.911  12.267  -5.827  0.00  0.00     0.140 A 
ATOM     14  C   UNL d   1      14.117  13.051  -5.755  0.00  0.00     0.030 A 
ATOM     15  F   UNL d   1      14.294  11.788  -6.386  0.00  0.00    -0.204 F 
ATOM     16  C   UNL d   1      13.739  13.526  -5.203  0.00  0.00     0.004 A 
ENDBRANCH   9  10
ENDBRANCH   1   9
BRANCH   2  17
ATOM     17  N   UNL d   1      14.524  15.359  -1.942  0.00  0.00    -0.285 N 
ATOM     18  C   UNL d   1      14.782  14.994  -1.259  0.00  0.00     0.106 A 
ATOM     19  C   UNL d   1      15.220  15.417  -0.706  0.00  0.00     0.118 A 
ATOM     20  C   UNL d   1      15.481  15.049  -0.015  0.00  0.00     0.028 C 
ATOM     21  O   UNL d   1      15.402  16.205  -0.832  0.00  0.00    -0.304 OA
ATOM     22  C   UNL d   1      15.138  16.585  -1.535  0.00  0.00     0.118 A 
ATOM     23  C   UNL d   1      14.699  16.158  -2.088  0.00  0.00     0.106 A 
ATOM     24  C   UNL d   1      15.320  17.377  -1.665  0.00  0.00     0.028 C 
ENDBRANCH   2  17
TORSDOF 3
ENDMDL
