MODEL 1
REMARK VINA RESULT:      58.2      0.000      0.000
REMARK  3 active torsions:
REMARK  status: ('A' for Active; 'I' for Inactive)
REMARK    1  A    between atoms: S_3  and  C_1 
REMARK    2  A    between atoms: C_7  and  N_2 
REMARK    3  A    between atoms: C_11  and  C_7 
ROOT
ATOM      1  C   UNL d   1      59.218  49.579  50.953  0.00  0.00     0.255 A 
ATOM      2  N   UNL d   1      60.023  49.550  51.033  0.00  0.00    -0.278 N 
ATOM      3  N   UNL d   1      58.871  49.641  51.679  0.00  0.00    -0.215 NA
ATOM      4  C   UNL d   1      60.197  49.597  51.849  0.00  0.00     0.084 A 
ATOM      5  C   UNL d   1      59.479  49.653  52.252  0.00  0.00     0.100 A 
ATOM      6  C   UNL d   1      60.907  49.595  52.269  0.00  0.00     0.019 A 
ATOM      7  C   UNL d   1      59.470  49.708  53.075  0.00  0.00     0.021 A 
ATOM      8  C   UNL d   1      60.899  49.649  53.093  0.00  0.00     0.002 A 
ATOM      9  C   UNL d   1      60.181  49.706  53.496  0.00  0.00     0.002 A 
ENDROOT
BRANCH   2  10
ATOM     10  C   UNL d   1      60.591  49.487  50.430  0.00  0.00     0.082 C 
BRANCH  10  11
ATOM     11  C   UNL d   1      60.968  48.775  50.291  0.00  0.00     0.018 A 
ATOM     12  C   UNL d   1      61.523  48.701  49.677  0.00  0.00     0.002 A 
ATOM     13  C   UNL d   1      61.904  47.990  49.534  0.00  0.00     0.000 A 
ATOM     14  C   UNL d   1      61.741  47.341  49.996  0.00  0.00     0.000 A 
ATOM     15  C   UNL d   1      61.185  47.411  50.614  0.00  0.00     0.000 A 
ATOM     16  C   UNL d   1      60.807  48.123  50.753  0.00  0.00     0.002 A 
ENDBRANCH  10  11
ENDBRANCH   2  10
BRANCH   1  17
ATOM     17  S   UNL d   1      58.813  49.548  50.235  0.00  0.00     0.174 S 
ATOM     18  O   UNL d   1      59.517  49.698  49.831  0.00  0.00    -0.589 OA
ATOM     19  O   UNL d   1      58.408  49.518  49.517  0.00  0.00    -0.589 OA
ATOM     20  O   UNL d   1      58.108  49.398  50.638  0.00  0.00    -0.589 OA
ENDBRANCH   1  17
TORSDOF 3
ENDMDL
MODEL 2
REMARK VINA RESULT:      58.2      1.515      2.464
REMARK  3 active torsions:
REMARK  status: ('A' for Active; 'I' for Inactive)
REMARK    1  A    between atoms: S_3  and  C_1 
REMARK    2  A    between atoms: C_7  and  N_2 
REMARK    3  A    between atoms: C_11  and  C_7 
ROOT
ATOM      1  C   UNL d   1      60.139  49.613  49.840  0.00  0.00     0.255 A 
ATOM      2  N   UNL d   1      59.860  49.576  50.599  0.00  0.00    -0.278 N 
ATOM      3  N   UNL d   1      59.522  49.667  49.323  0.00  0.00    -0.215 NA
ATOM      4  C   UNL d   1      59.025  49.609  50.563  0.00  0.00     0.084 A 
ATOM      5  C   UNL d   1      58.814  49.665  49.768  0.00  0.00     0.100 A 
ATOM      6  C   UNL d   1      58.441  49.594  51.145  0.00  0.00     0.019 A 
ATOM      7  C   UNL d   1      58.019  49.707  49.553  0.00  0.00     0.021 A 
ATOM      8  C   UNL d   1      57.645  49.636  50.931  0.00  0.00     0.002 A 
ATOM      9  C   UNL d   1      57.434  49.692  50.136  0.00  0.00     0.002 A 
ENDROOT
BRANCH   2  10
ATOM     10  C   UNL d   1      60.303  49.517  51.300  0.00  0.00     0.082 C 
BRANCH  10  11
ATOM     11  C   UNL d   1      60.618  48.799  51.530  0.00  0.00     0.018 A 
ATOM     12  C   UNL d   1      60.727  48.187  50.979  0.00  0.00     0.002 A 
ATOM     13  C   UNL d   1      61.043  47.466  51.205  0.00  0.00     0.000 A 
ATOM     14  C   UNL d   1      61.254  47.339  51.980  0.00  0.00     0.000 A 
ATOM     15  C   UNL d   1      61.146  47.950  52.536  0.00  0.00     0.000 A 
ATOM     16  C   UNL d   1      60.831  48.669  52.306  0.00  0.00     0.002 A 
ENDBRANCH  10  11
ENDBRANCH   2  10
BRANCH   1  17
ATOM     17  S   UNL d   1      60.936  49.597  49.628  0.00  0.00     0.174 S 
ATOM     18  O   UNL d   1      60.723  49.487  48.838  0.00  0.00    -0.589 OA
ATOM     19  O   UNL d   1      61.733  49.581  49.415  0.00  0.00    -0.589 OA
ATOM     20  O   UNL d   1      61.149  49.707  50.418  0.00  0.00    -0.589 OA
ENDBRANCH   1  17
TORSDOF 3
ENDMDL
MODEL 3
REMARK VINA RESULT:      60.6      1.851      3.299
REMARK  3 active torsions:
REMARK  status: ('A' for Active; 'I' for Inactive)
REMARK    1  A    between atoms: S_3  and  C_1 
REMARK    2  A    between atoms: C_7  and  N_2 
REMARK    3  A    between atoms: C_11  and  C_7 
ROOT
ATOM      1  C   UNL d   1      60.623  49.403  51.875  0.00  0.00     0.255 A 
ATOM      2  N   UNL d   1      59.958  49.229  51.447  0.00  0.00    -0.278 N 
ATOM      3  N   UNL d   1      61.226  49.601  51.376  0.00  0.00    -0.215 NA
ATOM      4  C   UNL d   1      60.147  49.322  50.638  0.00  0.00     0.084 A 
ATOM      5  C   UNL d   1      60.938  49.554  50.594  0.00  0.00     0.100 A 
ATOM      6  C   UNL d   1      59.706  49.226  49.947  0.00  0.00     0.019 A 
ATOM      7  C   UNL d   1      61.288  49.690  49.859  0.00  0.00     0.021 A 
ATOM      8  C   UNL d   1      60.056  49.362  49.212  0.00  0.00     0.002 A 
ATOM      9  C   UNL d   1      60.846  49.594  49.168  0.00  0.00     0.002 A 
ENDROOT
BRANCH   2  10
ATOM     10  C   UNL d   1      59.214  48.999  51.737  0.00  0.00     0.082 C 
BRANCH  10  11
ATOM     11  C   UNL d   1      58.540  49.132  51.294  0.00  0.00     0.018 A 
ATOM     12  C   UNL d   1      58.470  48.827  50.524  0.00  0.00     0.002 A 
ATOM     13  C   UNL d   1      57.797  48.957  50.077  0.00  0.00     0.000 A 
ATOM     14  C   UNL d   1      57.181  49.391  50.385  0.00  0.00     0.000 A 
ATOM     15  C   UNL d   1      57.246  49.698  51.157  0.00  0.00     0.000 A 
ATOM     16  C   UNL d   1      57.922  49.566  51.601  0.00  0.00     0.002 A 
ENDBRANCH  10  11
ENDBRANCH   2  10
BRANCH   1  17
ATOM     17  S   UNL d   1      60.676  49.380  52.698  0.00  0.00     0.174 S 
ATOM     18  O   UNL d   1      61.435  49.700  52.658  0.00  0.00    -0.589 OA
ATOM     19  O   UNL d   1      60.728  49.356  53.521  0.00  0.00    -0.589 OA
ATOM     20  O   UNL d   1      59.916  49.058  52.737  0.00  0.00    -0.589 OA
ENDBRANCH   1  17
TORSDOF 3
ENDMDL
