MODEL 1
REMARK VINA RESULT:      54.5      0.000      0.000
REMARK  7 active torsions:
REMARK  status: ('A' for Active; 'I' for Inactive)
REMARK    1  A    between atoms: C_2  and  S_1 
REMARK    2  A    between atoms: N_5  and  S_1 
REMARK    3  A    between atoms: C_3  and  C_7 
REMARK       I    between atoms: N_8  and  C_3 
REMARK    4  A    between atoms: C_16  and  N_5 
REMARK    5  A    between atoms: C_21  and  N_8 
REMARK    6  A    between atoms: C_15  and  C_16 
REMARK    7  A    between atoms: C_30  and  C_23 
ROOT
ATOM      1  C   UNL d   1      45.405 -18.220  40.835  0.00  0.00     0.133 A 
ATOM      2  C   UNL d   1      45.938 -18.778  41.089  0.00  0.00     0.020 A 
ATOM      3  C   UNL d   1      45.817 -19.163  41.809  0.00  0.00     0.059 A 
ATOM      4  C   UNL d   1      44.744 -18.036  41.293  0.00  0.00     0.152 A 
ATOM      5  C   UNL d   1      45.156 -18.980  42.266  0.00  0.00     0.007 A 
ATOM      6  C   UNL d   1      44.621 -18.412  42.001  0.00  0.00     0.030 A 
ATOM      7  F   UNL d   1      44.193 -17.455  41.023  0.00  0.00    -0.203 F 
ENDROOT
BRANCH   1   8
ATOM      8  S   UNL d   1      45.538 -17.829  40.093  0.00  0.00     0.288 S 
ATOM      9  O   UNL d   1      44.754 -17.575  40.093  0.00  0.00    -0.198 OA
ATOM     10  O   UNL d   1      46.332 -18.098  40.114  0.00  0.00    -0.198 OA
BRANCH   8  11
ATOM     11  N   UNL d   1      45.684 -17.462  39.385  0.00  0.00    -0.155 NA
BRANCH  11  12
ATOM     12  C   UNL d   1      45.101 -17.414  38.801  0.00  0.00     0.139 C 
BRANCH  12  13
ATOM     13  C   UNL d   1      45.147 -16.806  38.232  0.00  0.00     0.145 A 
ATOM     14  O   UNL d   1      45.800 -16.310  38.196  0.00  0.00    -0.301 OA
ATOM     15  C   UNL d   1      45.834 -15.711  37.626  0.00  0.00     0.123 A 
ATOM     16  C   UNL d   1      46.491 -15.211  37.590  0.00  0.00     0.027 A 
ATOM     17  C   UNL d   1      45.210 -15.614  37.094  0.00  0.00     0.123 A 
ATOM     18  C   UNL d   1      46.525 -14.614  37.022  0.00  0.00     0.002 A 
ATOM     19  C   UNL d   1      45.901 -14.515  36.488  0.00  0.00     0.002 A 
ATOM     20  C   UNL d   1      45.244 -15.015  36.525  0.00  0.00     0.027 A 
ATOM     21  O   UNL d   1      44.557 -16.111  37.131  0.00  0.00    -0.301 OA
ATOM     22  C   UNL d   1      44.526 -16.705  37.698  0.00  0.00     0.149 A 
ENDBRANCH  12  13
ENDBRANCH  11  12
ENDBRANCH   8  11
ENDBRANCH   1   8
BRANCH   3  23
ATOM     23  C   UNL d   1      46.357 -19.737  42.079  0.00  0.00     0.279 C 
ATOM     24  N   UNL d   1      46.637 -19.719  42.856  0.00  0.00    -0.208 NA
ATOM     25  O   UNL d   1      46.612 -20.324  41.568  0.00  0.00    -0.265 OA
BRANCH  24  26
ATOM     26  C   UNL d   1      46.380 -19.128  43.371  0.00  0.00     0.085 A 
ATOM     27  C   UNL d   1      46.495 -18.342  43.167  0.00  0.00     0.019 A 
ATOM     28  C   UNL d   1      46.236 -17.746  43.686  0.00  0.00     0.002 A 
ATOM     29  C   UNL d   1      45.867 -17.948  44.398  0.00  0.00     0.000 A 
ATOM     30  C   UNL d   1      45.760 -18.737  44.587  0.00  0.00     0.002 A 
ATOM     31  C   UNL d   1      46.019 -19.333  44.067  0.00  0.00     0.019 A 
BRANCH  29  32
ATOM     32  C   UNL d   1      45.611 -17.365  44.912  0.00  0.00     0.000 C 
ATOM     33  C   UNL d   1      45.638 -16.572  44.684  0.00  0.00     0.000 C 
ENDBRANCH  29  32
ENDBRANCH  24  26
ENDBRANCH   3  23
TORSDOF 7
ENDMDL
