MODEL 1
REMARK VINA RESULT:      -8.0      0.000      0.000
REMARK  3 active torsions:
REMARK  status: ('A' for Active; 'I' for Inactive)
REMARK    1  A    between atoms: S_9  and  C_6 
REMARK    2  A    between atoms: C_13  and  S_9 
REMARK    3  A    between atoms: C_11  and  C_13 
ROOT
ATOM      1  C   UNL d   1     -46.794  13.111  23.127  0.00  0.00     0.114 A 
ATOM      2  C   UNL d   1     -47.574  13.346  23.103  0.00  0.00     0.048 A 
ATOM      3  S   UNL d   1     -46.758  12.320  23.329  0.00  0.00    -0.068 SA
ATOM      4  C   UNL d   1     -48.038  12.687  23.295  0.00  0.00     0.010 A 
ATOM      5  C   UNL d   1     -47.562  12.055  23.436  0.00  0.00     0.031 A 
ATOM      6  C   UNL d   1     -47.763  14.131  22.909  0.00  0.00     0.111 A 
ATOM      7  N   UNL d   1     -46.195  13.655  22.958  0.00  0.00    -0.217 NA
ATOM      8  N   UNL d   1     -47.174  14.677  22.741  0.00  0.00    -0.218 NA
ATOM      9  C   UNL d   1     -46.386  14.437  22.766  0.00  0.00     0.200 A 
ATOM     10  C   UNL d   1     -48.858  12.610  23.353  0.00  0.00     0.001 A 
ATOM     11  C   UNL d   1     -47.872  11.317  23.641  0.00  0.00     0.006 A 
ATOM     12  C   UNL d   1     -49.172  11.876  23.558  0.00  0.00     0.000 A 
ATOM     13  C   UNL d   1     -48.701  11.246  23.698  0.00  0.00     0.001 A 
ENDROOT
BRANCH   6  14
ATOM     14  S   UNL d   1     -48.568  14.383  22.882  0.00  0.00    -0.083 SA
BRANCH  14  15
ATOM     15  C   UNL d   1     -48.733  15.154  22.717  0.00  0.00     0.161 C 
BRANCH  15  16
ATOM     16  C   UNL d   1     -49.508  15.411  22.777  0.00  0.00     0.197 C 
ATOM     17  O   UNL d   1     -49.770  15.714  23.488  0.00  0.00    -0.647 OA
ATOM     18  O   UNL d   1     -50.009  15.370  22.154  0.00  0.00    -0.647 OA
ENDBRANCH  15  16
ENDBRANCH  14  15
ENDBRANCH   6  14
TORSDOF 3
ENDMDL
MODEL 2
REMARK VINA RESULT:      -7.9      1.888      2.760
REMARK  3 active torsions:
REMARK  status: ('A' for Active; 'I' for Inactive)
REMARK    1  A    between atoms: S_9  and  C_6 
REMARK    2  A    between atoms: C_13  and  S_9 
REMARK    3  A    between atoms: C_11  and  C_13 
ROOT
ATOM      1  C   UNL d   1     -49.803  14.255  22.903  0.00  0.00     0.114 A 
ATOM      2  C   UNL d   1     -49.130  13.805  22.989  0.00  0.00     0.048 A 
ATOM      3  S   UNL d   1     -50.457  13.795  23.068  0.00  0.00    -0.068 SA
ATOM      4  C   UNL d   1     -49.367  13.044  23.213  0.00  0.00     0.010 A 
ATOM      5  C   UNL d   1     -50.169  13.017  23.267  0.00  0.00     0.031 A 
ATOM      6  C   UNL d   1     -48.385  14.145  22.852  0.00  0.00     0.111 A 
ATOM      7  N   UNL d   1     -49.741  15.049  22.679  0.00  0.00    -0.217 NA
ATOM      8  N   UNL d   1     -48.315  14.932  22.629  0.00  0.00    -0.218 NA
ATOM      9  C   UNL d   1     -48.997  15.385  22.543  0.00  0.00     0.200 A 
ATOM     10  C   UNL d   1     -48.918  12.370  23.374  0.00  0.00     0.001 A 
ATOM     11  C   UNL d   1     -50.565  12.325  23.481  0.00  0.00     0.006 A 
ATOM     12  C   UNL d   1     -49.310  11.677  23.589  0.00  0.00     0.000 A 
ATOM     13  C   UNL d   1     -50.106  11.648  23.643  0.00  0.00     0.001 A 
ENDROOT
BRANCH   6  14
ATOM     14  S   UNL d   1     -47.682  13.686  22.939  0.00  0.00    -0.083 SA
BRANCH  14  15
ATOM     15  C   UNL d   1     -46.967  14.036  22.821  0.00  0.00     0.161 C 
BRANCH  15  16
ATOM     16  C   UNL d   1     -46.289  13.583  22.906  0.00  0.00     0.197 C 
ATOM     17  O   UNL d   1     -45.949  13.253  22.241  0.00  0.00    -0.647 OA
ATOM     18  O   UNL d   1     -45.957  13.462  23.624  0.00  0.00    -0.647 OA
ENDBRANCH  15  16
ENDBRANCH  14  15
ENDBRANCH   6  14
TORSDOF 3
ENDMDL
MODEL 3
REMARK VINA RESULT:      -7.9      1.357      2.215
REMARK  3 active torsions:
REMARK  status: ('A' for Active; 'I' for Inactive)
REMARK    1  A    between atoms: S_9  and  C_6 
REMARK    2  A    between atoms: C_13  and  S_9 
REMARK    3  A    between atoms: C_11  and  C_13 
ROOT
ATOM      1  C   UNL d   1     -48.463  12.031  23.318  0.00  0.00     0.114 A 
ATOM      2  C   UNL d   1     -48.506  12.836  23.198  0.00  0.00     0.048 A 
ATOM      3  S   UNL d   1     -47.681  11.796  23.287  0.00  0.00    -0.068 SA
ATOM      4  C   UNL d   1     -47.733  13.112  23.089  0.00  0.00     0.010 A 
ATOM      5  C   UNL d   1     -47.218  12.497  23.139  0.00  0.00     0.031 A 
ATOM      6  C   UNL d   1     -49.245  13.215  23.203  0.00  0.00     0.111 A 
ATOM      7  N   UNL d   1     -49.155  11.596  23.445  0.00  0.00    -0.217 NA
ATOM      8  N   UNL d   1     -49.936  12.791  23.327  0.00  0.00    -0.218 NA
ATOM      9  C   UNL d   1     -49.889  11.977  23.449  0.00  0.00     0.200 A 
ATOM     10  C   UNL d   1     -47.454  13.876  22.947  0.00  0.00     0.001 A 
ATOM     11  C   UNL d   1     -46.404  12.607  23.052  0.00  0.00     0.006 A 
ATOM     12  C   UNL d   1     -46.643  13.990  22.860  0.00  0.00     0.000 A 
ATOM     13  C   UNL d   1     -46.128  13.381  22.909  0.00  0.00     0.001 A 
ENDROOT
BRANCH   6  14
ATOM     14  S   UNL d   1     -49.299  14.048  23.079  0.00  0.00    -0.083 SA
BRANCH  14  15
ATOM     15  C   UNL d   1     -50.015  14.410  23.146  0.00  0.00     0.161 C 
BRANCH  15  16
ATOM     16  C   UNL d   1     -50.056  15.221  23.045  0.00  0.00     0.197 C 
ATOM     17  O   UNL d   1     -49.986  15.705  23.698  0.00  0.00    -0.647 OA
ATOM     18  O   UNL d   1     -50.164  15.545  22.320  0.00  0.00    -0.647 OA
ENDBRANCH  15  16
ENDBRANCH  14  15
ENDBRANCH   6  14
TORSDOF 3
ENDMDL
MODEL 4
REMARK VINA RESULT:      -7.7      1.699      2.783
REMARK  3 active torsions:
REMARK  status: ('A' for Active; 'I' for Inactive)
REMARK    1  A    between atoms: S_9  and  C_6 
REMARK    2  A    between atoms: C_13  and  S_9 
REMARK    3  A    between atoms: C_11  and  C_13 
ROOT
ATOM      1  C   UNL d   1     -46.927  12.279  23.385  0.00  0.00     0.114 A 
ATOM      2  C   UNL d   1     -47.674  12.566  23.231  0.00  0.00     0.048 A 
ATOM      3  S   UNL d   1     -46.380  12.874  23.268  0.00  0.00    -0.068 SA
ATOM      4  C   UNL d   1     -47.593  13.361  23.011  0.00  0.00     0.010 A 
ATOM      5  C   UNL d   1     -46.817  13.567  23.028  0.00  0.00     0.031 A 
ATOM      6  C   UNL d   1     -48.333  12.067  23.310  0.00  0.00     0.111 A 
ATOM      7  N   UNL d   1     -46.829  11.492  23.620  0.00  0.00    -0.217 NA
ATOM      8  N   UNL d   1     -48.244  11.285  23.542  0.00  0.00    -0.218 NA
ATOM      9  C   UNL d   1     -47.488  10.997  23.698  0.00  0.00     0.200 A 
ATOM     10  C   UNL d   1     -48.166  13.916  22.797  0.00  0.00     0.001 A 
ATOM     11  C   UNL d   1     -46.569  14.331  22.833  0.00  0.00     0.006 A 
ATOM     12  C   UNL d   1     -47.922  14.679  22.602  0.00  0.00     0.000 A 
ATOM     13  C   UNL d   1     -47.151  14.886  22.618  0.00  0.00     0.001 A 
ENDROOT
BRANCH   6  14
ATOM     14  S   UNL d   1     -49.110  12.356  23.151  0.00  0.00    -0.083 SA
BRANCH  14  15
ATOM     15  C   UNL d   1     -49.732  11.847  23.183  0.00  0.00     0.161 C 
BRANCH  15  16
ATOM     16  C   UNL d   1     -50.488  12.142  23.070  0.00  0.00     0.197 C 
ATOM     17  O   UNL d   1     -50.766  12.236  22.308  0.00  0.00    -0.647 OA
ATOM     18  O   UNL d   1     -50.955  12.339  23.690  0.00  0.00    -0.647 OA
ENDBRANCH  15  16
ENDBRANCH  14  15
ENDBRANCH   6  14
TORSDOF 3
ENDMDL
MODEL 5
REMARK VINA RESULT:      -7.6      2.189      3.193
REMARK  3 active torsions:
REMARK  status: ('A' for Active; 'I' for Inactive)
REMARK    1  A    between atoms: S_9  and  C_6 
REMARK    2  A    between atoms: C_13  and  S_9 
REMARK    3  A    between atoms: C_11  and  C_13 
ROOT
ATOM      1  C   UNL d   1     -49.232  11.834  23.101  0.00  0.00     0.114 A 
ATOM      2  C   UNL d   1     -48.704  12.421  22.901  0.00  0.00     0.048 A 
ATOM      3  S   UNL d   1     -49.979  12.046  22.846  0.00  0.00    -0.068 SA
ATOM      4  C   UNL d   1     -49.128  13.015  22.511  0.00  0.00     0.010 A 
ATOM      5  C   UNL d   1     -49.903  12.807  22.467  0.00  0.00     0.031 A 
ATOM      6  C   UNL d   1     -47.901  12.339  23.100  0.00  0.00     0.111 A 
ATOM      7  N   UNL d   1     -48.967  11.160  23.501  0.00  0.00    -0.217 NA
ATOM      8  N   UNL d   1     -47.631  11.674  23.497  0.00  0.00    -0.218 NA
ATOM      9  C   UNL d   1     -48.168  11.082  23.698  0.00  0.00     0.200 A 
ATOM     10  C   UNL d   1     -48.872  13.732  22.190  0.00  0.00     0.001 A 
ATOM     11  C   UNL d   1     -50.462  13.296  22.105  0.00  0.00     0.006 A 
ATOM     12  C   UNL d   1     -49.427  14.222  21.828  0.00  0.00     0.000 A 
ATOM     13  C   UNL d   1     -50.198  14.018  21.783  0.00  0.00     0.001 A 
ENDROOT
BRANCH   6  14
ATOM     14  S   UNL d   1     -47.347  12.942  22.896  0.00  0.00    -0.083 SA
BRANCH  14  15
ATOM     15  C   UNL d   1     -46.572  12.845  23.091  0.00  0.00     0.161 C 
BRANCH  15  16
ATOM     16  C   UNL d   1     -46.040  13.435  22.893  0.00  0.00     0.197 C 
ATOM     17  O   UNL d   1     -45.586  13.349  22.220  0.00  0.00    -0.647 OA
ATOM     18  O   UNL d   1     -45.958  14.090  23.346  0.00  0.00    -0.647 OA
ENDBRANCH  15  16
ENDBRANCH  14  15
ENDBRANCH   6  14
TORSDOF 3
ENDMDL
MODEL 6
REMARK VINA RESULT:      -7.5      1.412      1.860
REMARK  3 active torsions:
REMARK  status: ('A' for Active; 'I' for Inactive)
REMARK    1  A    between atoms: S_9  and  C_6 
REMARK    2  A    between atoms: C_13  and  S_9 
REMARK    3  A    between atoms: C_11  and  C_13 
ROOT
ATOM      1  C   UNL d   1     -47.276  14.001  22.841  0.00  0.00     0.114 A 
ATOM      2  C   UNL d   1     -47.899  13.497  22.983  0.00  0.00     0.048 A 
ATOM      3  S   UNL d   1     -46.574  13.613  22.997  0.00  0.00    -0.068 SA
ATOM      4  C   UNL d   1     -47.582  12.775  23.234  0.00  0.00     0.010 A 
ATOM      5  C   UNL d   1     -46.780  12.824  23.250  0.00  0.00     0.031 A 
ATOM      6  C   UNL d   1     -48.678  13.760  22.865  0.00  0.00     0.111 A 
ATOM      7  N   UNL d   1     -47.421  14.773  22.580  0.00  0.00    -0.217 NA
ATOM      8  N   UNL d   1     -48.831  14.524  22.607  0.00  0.00    -0.218 NA
ATOM      9  C   UNL d   1     -48.198  15.032  22.464  0.00  0.00     0.200 A 
ATOM     10  C   UNL d   1     -47.959  12.072  23.451  0.00  0.00     0.001 A 
ATOM     11  C   UNL d   1     -46.312  12.183  23.480  0.00  0.00     0.006 A 
ATOM     12  C   UNL d   1     -47.496  11.431  23.682  0.00  0.00     0.000 A 
ATOM     13  C   UNL d   1     -46.698  11.477  23.698  0.00  0.00     0.001 A 
ENDROOT
BRANCH   6  14
ATOM     14  S   UNL d   1     -49.331  13.245  23.010  0.00  0.00    -0.083 SA
BRANCH  14  15
ATOM     15  C   UNL d   1     -50.080  13.519  22.903  0.00  0.00     0.161 C 
BRANCH  15  16
ATOM     16  C   UNL d   1     -50.705  12.997  22.986  0.00  0.00     0.197 C 
ATOM     17  O   UNL d   1     -50.976  12.597  22.327  0.00  0.00    -0.647 OA
ATOM     18  O   UNL d   1     -51.053  12.874  23.696  0.00  0.00    -0.647 OA
ENDBRANCH  15  16
ENDBRANCH  14  15
ENDBRANCH   6  14
TORSDOF 3
ENDMDL
MODEL 7
REMARK VINA RESULT:      -6.9      1.788      3.014
REMARK  3 active torsions:
REMARK  status: ('A' for Active; 'I' for Inactive)
REMARK    1  A    between atoms: S_9  and  C_6 
REMARK    2  A    between atoms: C_13  and  S_9 
REMARK    3  A    between atoms: C_11  and  C_13 
ROOT
ATOM      1  C   UNL d   1     -47.054  14.427  22.686  0.00  0.00     0.114 A 
ATOM      2  C   UNL d   1     -47.643  13.874  22.794  0.00  0.00     0.048 A 
ATOM      3  S   UNL d   1     -47.392  15.158  22.551  0.00  0.00    -0.068 SA
ATOM      4  C   UNL d   1     -48.368  14.268  22.726  0.00  0.00     0.010 A 
ATOM      5  C   UNL d   1     -48.238  15.047  22.579  0.00  0.00     0.031 A 
ATOM      6  C   UNL d   1     -47.443  13.081  22.940  0.00  0.00     0.111 A 
ATOM      7  N   UNL d   1     -46.261  14.195  22.722  0.00  0.00    -0.217 NA
ATOM      8  N   UNL d   1     -46.659  12.844  22.978  0.00  0.00    -0.218 NA
ATOM      9  C   UNL d   1     -46.065  13.405  22.869  0.00  0.00     0.200 A 
ATOM     10  C   UNL d   1     -49.140  13.980  22.786  0.00  0.00     0.001 A 
ATOM     11  C   UNL d   1     -48.863  15.579  22.484  0.00  0.00     0.006 A 
ATOM     12  C   UNL d   1     -49.766  14.507  22.692  0.00  0.00     0.000 A 
ATOM     13  C   UNL d   1     -49.640  15.282  22.546  0.00  0.00     0.001 A 
ENDROOT
BRANCH   6  14
ATOM     14  S   UNL d   1     -48.047  12.502  23.054  0.00  0.00    -0.083 SA
BRANCH  14  15
ATOM     15  C   UNL d   1     -47.836  11.744  23.223  0.00  0.00     0.161 C 
BRANCH  15  16
ATOM     16  C   UNL d   1     -48.391  11.150  23.119  0.00  0.00     0.197 C 
ATOM     17  O   UNL d   1     -48.953  11.027  23.698  0.00  0.00    -0.647 OA
ATOM     18  O   UNL d   1     -48.389  10.691  22.463  0.00  0.00    -0.647 OA
ENDBRANCH  15  16
ENDBRANCH  14  15
ENDBRANCH   6  14
TORSDOF 3
ENDMDL
MODEL 8
REMARK VINA RESULT:      -6.1      2.497      3.800
REMARK  3 active torsions:
REMARK  status: ('A' for Active; 'I' for Inactive)
REMARK    1  A    between atoms: S_9  and  C_6 
REMARK    2  A    between atoms: C_13  and  S_9 
REMARK    3  A    between atoms: C_11  and  C_13 
ROOT
ATOM      1  C   UNL d   1     -48.658  12.958  22.546  0.00  0.00     0.114 A 
ATOM      2  C   UNL d   1     -47.903  12.848  22.832  0.00  0.00     0.048 A 
ATOM      3  S   UNL d   1     -48.747  13.735  22.312  0.00  0.00    -0.068 SA
ATOM      4  C   UNL d   1     -47.509  13.574  22.775  0.00  0.00     0.010 A 
ATOM      5  C   UNL d   1     -48.003  14.125  22.462  0.00  0.00     0.031 A 
ATOM      6  C   UNL d   1     -47.671  12.100  23.107  0.00  0.00     0.111 A 
ATOM      7  N   UNL d   1     -49.190  12.324  22.533  0.00  0.00    -0.217 NA
ATOM      8  N   UNL d   1     -48.192  11.466  23.097  0.00  0.00    -0.218 NA
ATOM      9  C   UNL d   1     -48.955  11.580  22.808  0.00  0.00     0.200 A 
ATOM     10  C   UNL d   1     -46.736  13.780  22.983  0.00  0.00     0.001 A 
ATOM     11  C   UNL d   1     -47.759  14.905  22.340  0.00  0.00     0.006 A 
ATOM     12  C   UNL d   1     -46.489  14.557  22.863  0.00  0.00     0.000 A 
ATOM     13  C   UNL d   1     -46.979  15.106  22.552  0.00  0.00     0.001 A 
ENDROOT
BRANCH   6  14
ATOM     14  S   UNL d   1     -46.890  11.977  23.405  0.00  0.00    -0.083 SA
BRANCH  14  15
ATOM     15  C   UNL d   1     -46.691  11.255  23.698  0.00  0.00     0.161 C 
BRANCH  15  16
ATOM     16  C   UNL d   1     -45.903  11.032  23.692  0.00  0.00     0.197 C 
ATOM     17  O   UNL d   1     -45.328  11.612  23.696  0.00  0.00    -0.647 OA
ATOM     18  O   UNL d   1     -45.688  10.261  23.684  0.00  0.00    -0.647 OA
ENDBRANCH  15  16
ENDBRANCH  14  15
ENDBRANCH   6  14
TORSDOF 3
ENDMDL
MODEL 9
REMARK VINA RESULT:      -5.5      8.592      9.865
REMARK  3 active torsions:
REMARK  status: ('A' for Active; 'I' for Inactive)
REMARK    1  A    between atoms: S_9  and  C_6 
REMARK    2  A    between atoms: C_13  and  S_9 
REMARK    3  A    between atoms: C_11  and  C_13 
ROOT
ATOM      1  C   UNL d   1     -39.947  14.991  17.081  0.00  0.00     0.114 A 
ATOM      2  C   UNL d   1     -39.882  14.669  17.826  0.00  0.00     0.048 A 
ATOM      3  S   UNL d   1     -39.444  14.596  16.573  0.00  0.00    -0.068 SA
ATOM      4  C   UNL d   1     -39.325  14.058  17.785  0.00  0.00     0.010 A 
ATOM      5  C   UNL d   1     -39.048  13.997  17.034  0.00  0.00     0.031 A 
ATOM      6  C   UNL d   1     -40.339  14.975  18.449  0.00  0.00     0.111 A 
ATOM      7  N   UNL d   1     -40.467  15.620  16.948  0.00  0.00    -0.217 NA
ATOM      8  N   UNL d   1     -40.858  15.599  18.325  0.00  0.00    -0.218 NA
ATOM      9  C   UNL d   1     -40.921  15.922  17.570  0.00  0.00     0.200 A 
ATOM     10  C   UNL d   1     -39.047  13.549  18.373  0.00  0.00     0.001 A 
ATOM     11  C   UNL d   1     -38.483  13.431  16.826  0.00  0.00     0.006 A 
ATOM     12  C   UNL d   1     -38.483  12.983  18.170  0.00  0.00     0.000 A 
ATOM     13  C   UNL d   1     -38.205  12.920  17.424  0.00  0.00     0.001 A 
ENDROOT
BRANCH   6  14
ATOM     14  S   UNL d   1     -40.279  14.648  19.225  0.00  0.00    -0.083 SA
BRANCH  14  15
ATOM     15  C   UNL d   1     -40.695  14.983  19.826  0.00  0.00     0.161 C 
BRANCH  15  16
ATOM     16  C   UNL d   1     -40.660  14.639  20.569  0.00  0.00     0.197 C 
ATOM     17  O   UNL d   1     -40.098  14.902  21.100  0.00  0.00    -0.647 OA
ATOM     18  O   UNL d   1     -41.163  14.054  20.780  0.00  0.00    -0.647 OA
ENDBRANCH  15  16
ENDBRANCH  14  15
ENDBRANCH   6  14
TORSDOF 3
ENDMDL
