MODEL 1
REMARK VINA RESULT:      -5.5      0.000      0.000
REMARK  7 active torsions:
REMARK  status: ('A' for Active; 'I' for Inactive)
REMARK    1  A    between atoms: N_7  and  S_1 
REMARK    2  A    between atoms: C_19  and  S_1 
REMARK    3  A    between atoms: N_2  and  C_3 
REMARK    4  A    between atoms: C_3  and  C_6 
REMARK    5  A    between atoms: C_5  and  C_3 
REMARK    6  A    between atoms: C_16  and  N_4 
REMARK    7  A    between atoms: C_6  and  N_7 
ROOT
ATOM      1  C   UNL d   1     -39.097  14.461  18.138  0.00  0.00     0.107 C 
ENDROOT
BRANCH   1   2
ATOM      2  N   UNL d   1     -39.068  14.613  18.948  0.00  0.00    -0.298 N 
ATOM      3  C   UNL d   1     -38.503  15.134  19.249  0.00  0.00     0.100 A 
ATOM      4  C   UNL d   1     -38.476  15.284  20.058  0.00  0.00     0.100 A 
ATOM      5  N   UNL d   1     -39.009  14.919  20.569  0.00  0.00    -0.301 N 
ATOM      6  C   UNL d   1     -39.574  14.399  20.268  0.00  0.00     0.100 A 
ATOM      7  C   UNL d   1     -39.603  14.246  19.458  0.00  0.00     0.100 A 
BRANCH   5   8
ATOM      8  C   UNL d   1     -38.981  15.070  21.374  0.00  0.00     0.064 A 
ATOM      9  C   UNL d   1     -38.630  14.532  21.883  0.00  0.00     0.018 A 
ATOM     10  C   UNL d   1     -38.601  14.682  22.692  0.00  0.00     0.002 A 
ATOM     11  C   UNL d   1     -38.926  15.378  22.991  0.00  0.00     0.000 A 
ATOM     12  C   UNL d   1     -39.280  15.922  22.480  0.00  0.00     0.002 A 
ATOM     13  C   UNL d   1     -39.306  15.767  21.673  0.00  0.00     0.018 A 
ENDBRANCH   5   8
ENDBRANCH   1   2
BRANCH   1  14
ATOM     14  C   UNL d   1     -39.466  14.984  17.616  0.00  0.00     0.132 C 
BRANCH  14  15
ATOM     15  N   UNL d   1     -40.227  14.794  17.317  0.00  0.00    -0.155 NA
BRANCH  15  16
ATOM     16  S   UNL d   1     -40.653  15.358  16.898  0.00  0.00     0.286 S 
ATOM     17  O   UNL d   1     -39.950  15.652  16.571  0.00  0.00    -0.198 OA
ATOM     18  O   UNL d   1     -41.355  15.059  17.229  0.00  0.00    -0.198 OA
BRANCH  16  19
ATOM     19  C   UNL d   1     -41.092  15.921  16.480  0.00  0.00     0.117 C 
ATOM     20  C   UNL d   1     -41.896  15.795  16.343  0.00  0.00     0.014 C 
ENDBRANCH  16  19
ENDBRANCH  15  16
ENDBRANCH  14  15
ENDBRANCH   1  14
BRANCH   1  21
ATOM     21  C   UNL d   1     -38.746  13.762  17.834  0.00  0.00     0.118 A 
ATOM     22  O   UNL d   1     -39.152  13.047  17.859  0.00  0.00    -0.304 OA
ATOM     23  C   UNL d   1     -38.668  12.464  17.521  0.00  0.00     0.123 A 
ATOM     24  C   UNL d   1     -37.971  12.820  17.292  0.00  0.00     0.029 A 
ATOM     25  C   UNL d   1     -38.017  13.623  17.484  0.00  0.00     0.028 A 
ENDBRANCH   1  21
TORSDOF 7
ENDMDL
MODEL 2
REMARK VINA RESULT:      -5.2      8.721      9.730
REMARK  7 active torsions:
REMARK  status: ('A' for Active; 'I' for Inactive)
REMARK    1  A    between atoms: N_7  and  S_1 
REMARK    2  A    between atoms: C_19  and  S_1 
REMARK    3  A    between atoms: N_2  and  C_3 
REMARK    4  A    between atoms: C_3  and  C_6 
REMARK    5  A    between atoms: C_5  and  C_3 
REMARK    6  A    between atoms: C_16  and  N_4 
REMARK    7  A    between atoms: C_6  and  N_7 
ROOT
ATOM      1  C   UNL d   1     -48.196  13.615  22.955  0.00  0.00     0.107 C 
ENDROOT
BRANCH   1   2
ATOM      2  N   UNL d   1     -47.413  13.445  22.757  0.00  0.00    -0.298 N 
ATOM      3  C   UNL d   1     -47.231  13.162  22.004  0.00  0.00     0.100 A 
ATOM      4  C   UNL d   1     -46.449  12.994  21.809  0.00  0.00     0.100 A 
ATOM      5  N   UNL d   1     -45.847  13.105  22.360  0.00  0.00    -0.301 N 
ATOM      6  C   UNL d   1     -46.029  13.388  23.113  0.00  0.00     0.100 A 
ATOM      7  C   UNL d   1     -46.812  13.558  23.311  0.00  0.00     0.100 A 
BRANCH   5   8
ATOM      8  C   UNL d   1     -45.070  12.937  22.164  0.00  0.00     0.064 A 
ATOM      9  C   UNL d   1     -44.665  13.413  21.633  0.00  0.00     0.018 A 
ATOM     10  C   UNL d   1     -43.884  13.245  21.435  0.00  0.00     0.002 A 
ATOM     11  C   UNL d   1     -43.507  12.595  21.773  0.00  0.00     0.000 A 
ATOM     12  C   UNL d   1     -43.912  12.114  22.309  0.00  0.00     0.002 A 
ATOM     13  C   UNL d   1     -44.693  12.286  22.503  0.00  0.00     0.018 A 
ENDBRANCH   5   8
ENDBRANCH   1   2
BRANCH   1  14
ATOM     14  C   UNL d   1     -48.675  13.055  23.328  0.00  0.00     0.132 C 
BRANCH  14  15
ATOM     15  N   UNL d   1     -49.138  12.536  22.858  0.00  0.00    -0.155 NA
BRANCH  15  16
ATOM     16  S   UNL d   1     -49.661  12.016  23.220  0.00  0.00     0.286 S 
ATOM     17  O   UNL d   1     -50.279  12.301  22.745  0.00  0.00    -0.198 OA
ATOM     18  O   UNL d   1     -49.039  11.733  23.693  0.00  0.00    -0.198 OA
BRANCH  16  19
ATOM     19  C   UNL d   1     -50.180  11.488  23.590  0.00  0.00     0.117 C 
ATOM     20  C   UNL d   1     -50.985  11.669  23.636  0.00  0.00     0.014 C 
ENDBRANCH  16  19
ENDBRANCH  15  16
ENDBRANCH  14  15
ENDBRANCH   1  14
BRANCH   1  21
ATOM     21  C   UNL d   1     -48.516  14.370  22.776  0.00  0.00     0.118 A 
ATOM     22  O   UNL d   1     -48.772  14.867  23.379  0.00  0.00    -0.304 OA
ATOM     23  C   UNL d   1     -49.056  15.565  23.032  0.00  0.00     0.123 A 
ATOM     24  C   UNL d   1     -48.973  15.496  22.224  0.00  0.00     0.029 A 
ATOM     25  C   UNL d   1     -48.639  14.757  22.063  0.00  0.00     0.028 A 
ENDBRANCH   1  21
TORSDOF 7
ENDMDL
MODEL 3
REMARK VINA RESULT:      -5.1      2.221      4.924
REMARK  7 active torsions:
REMARK  status: ('A' for Active; 'I' for Inactive)
REMARK    1  A    between atoms: N_7  and  S_1 
REMARK    2  A    between atoms: C_19  and  S_1 
REMARK    3  A    between atoms: N_2  and  C_3 
REMARK    4  A    between atoms: C_3  and  C_6 
REMARK    5  A    between atoms: C_5  and  C_3 
REMARK    6  A    between atoms: C_16  and  N_4 
REMARK    7  A    between atoms: C_6  and  N_7 
ROOT
ATOM      1  C   UNL d   1     -39.553  14.755  20.478  0.00  0.00     0.107 C 
ENDROOT
BRANCH   1   2
ATOM      2  N   UNL d   1     -39.313  14.624  19.699  0.00  0.00    -0.298 N 
ATOM      3  C   UNL d   1     -39.612  13.980  19.279  0.00  0.00     0.100 A 
ATOM      4  C   UNL d   1     -39.371  13.853  18.502  0.00  0.00     0.100 A 
ATOM      5  N   UNL d   1     -38.834  14.362  18.141  0.00  0.00    -0.301 N 
ATOM      6  C   UNL d   1     -38.535  15.006  18.562  0.00  0.00     0.100 A 
ATOM      7  C   UNL d   1     -38.775  15.137  19.340  0.00  0.00     0.100 A 
BRANCH   5   8
ATOM      8  C   UNL d   1     -38.596  14.233  17.369  0.00  0.00     0.064 A 
ATOM      9  C   UNL d   1     -38.302  13.502  17.143  0.00  0.00     0.018 A 
ATOM     10  C   UNL d   1     -38.062  13.370  16.367  0.00  0.00     0.002 A 
ATOM     11  C   UNL d   1     -38.118  13.978  15.813  0.00  0.00     0.000 A 
ATOM     12  C   UNL d   1     -38.414  14.715  16.037  0.00  0.00     0.002 A 
ATOM     13  C   UNL d   1     -38.652  14.841  16.814  0.00  0.00     0.018 A 
ENDBRANCH   5   8
ENDBRANCH   1   2
BRANCH   1  14
ATOM     14  C   UNL d   1     -39.040  14.622  21.112  0.00  0.00     0.132 C 
BRANCH  14  15
ATOM     15  N   UNL d   1     -39.111  13.911  21.553  0.00  0.00    -0.155 NA
BRANCH  15  16
ATOM     16  S   UNL d   1     -38.547  13.724  22.119  0.00  0.00     0.286 S 
ATOM     17  O   UNL d   1     -38.639  14.472  22.465  0.00  0.00    -0.198 OA
ATOM     18  O   UNL d   1     -38.457  12.975  21.769  0.00  0.00    -0.198 OA
BRANCH  16  19
ATOM     19  C   UNL d   1     -37.976  13.524  22.685  0.00  0.00     0.117 C 
ATOM     20  C   UNL d   1     -38.213  13.220  23.415  0.00  0.00     0.014 C 
ENDBRANCH  16  19
ENDBRANCH  15  16
ENDBRANCH  14  15
ENDBRANCH   1  14
BRANCH   1  21
ATOM     21  C   UNL d   1     -40.331  15.028  20.633  0.00  0.00     0.118 A 
ATOM     22  O   UNL d   1     -40.468  15.822  20.797  0.00  0.00    -0.304 OA
ATOM     23  C   UNL d   1     -41.282  15.921  20.925  0.00  0.00     0.123 A 
ATOM     24  C   UNL d   1     -41.639  15.193  20.840  0.00  0.00     0.029 A 
ATOM     25  C   UNL d   1     -41.052  14.639  20.660  0.00  0.00     0.028 A 
ENDBRANCH   1  21
TORSDOF 7
ENDMDL
MODEL 4
REMARK VINA RESULT:      -4.3      0.961      2.401
REMARK  7 active torsions:
REMARK  status: ('A' for Active; 'I' for Inactive)
REMARK    1  A    between atoms: N_7  and  S_1 
REMARK    2  A    between atoms: C_19  and  S_1 
REMARK    3  A    between atoms: N_2  and  C_3 
REMARK    4  A    between atoms: C_3  and  C_6 
REMARK    5  A    between atoms: C_5  and  C_3 
REMARK    6  A    between atoms: C_16  and  N_4 
REMARK    7  A    between atoms: C_6  and  N_7 
ROOT
ATOM      1  C   UNL d   1     -39.595  14.922  18.033  0.00  0.00     0.107 C 
ENDROOT
BRANCH   1   2
ATOM      2  N   UNL d   1     -39.505  15.013  18.848  0.00  0.00    -0.298 N 
ATOM      3  C   UNL d   1     -38.978  15.573  19.145  0.00  0.00     0.100 A 
ATOM      4  C   UNL d   1     -38.891  15.661  19.958  0.00  0.00     0.100 A 
ATOM      5  N   UNL d   1     -39.326  15.195  20.479  0.00  0.00    -0.301 N 
ATOM      6  C   UNL d   1     -39.853  14.634  20.182  0.00  0.00     0.100 A 
ATOM      7  C   UNL d   1     -39.943  14.544  19.367  0.00  0.00     0.100 A 
BRANCH   5   8
ATOM      8  C   UNL d   1     -39.238  15.284  21.288  0.00  0.00     0.064 A 
ATOM      9  C   UNL d   1     -39.693  15.830  21.696  0.00  0.00     0.018 A 
ATOM     10  C   UNL d   1     -39.606  15.922  22.509  0.00  0.00     0.002 A 
ATOM     11  C   UNL d   1     -39.057  15.460  22.916  0.00  0.00     0.000 A 
ATOM     12  C   UNL d   1     -38.597  14.909  22.508  0.00  0.00     0.002 A 
ATOM     13  C   UNL d   1     -38.688  14.822  21.695  0.00  0.00     0.018 A 
ENDBRANCH   5   8
ENDBRANCH   1   2
BRANCH   1  14
ATOM     14  C   UNL d   1     -39.027  14.529  17.580  0.00  0.00     0.132 C 
BRANCH  14  15
ATOM     15  N   UNL d   1     -39.181  13.746  17.321  0.00  0.00    -0.155 NA
BRANCH  15  16
ATOM     16  S   UNL d   1     -38.571  13.288  17.018  0.00  0.00     0.286 S 
ATOM     17  O   UNL d   1     -38.522  13.785  16.355  0.00  0.00    -0.198 OA
ATOM     18  O   UNL d   1     -38.623  12.793  17.683  0.00  0.00    -0.198 OA
BRANCH  16  19
ATOM     19  C   UNL d   1     -37.956  12.820  16.721  0.00  0.00     0.117 C 
ATOM     20  C   UNL d   1     -37.944  12.619  15.920  0.00  0.00     0.014 C 
ENDBRANCH  16  19
ENDBRANCH  15  16
ENDBRANCH  14  15
ENDBRANCH   1  14
BRANCH   1  21
ATOM     21  C   UNL d   1     -40.274  15.235  17.652  0.00  0.00     0.118 A 
ATOM     22  O   UNL d   1     -41.011  14.886  17.763  0.00  0.00    -0.304 OA
ATOM     23  C   UNL d   1     -41.567  15.314  17.321  0.00  0.00     0.123 A 
ATOM     24  C   UNL d   1     -41.173  15.919  16.942  0.00  0.00     0.029 A 
ATOM     25  C   UNL d   1     -40.373  15.872  17.145  0.00  0.00     0.028 A 
ENDBRANCH   1  21
TORSDOF 7
ENDMDL
MODEL 5
REMARK VINA RESULT:      -3.7      8.398      9.384
REMARK  7 active torsions:
REMARK  status: ('A' for Active; 'I' for Inactive)
REMARK    1  A    between atoms: N_7  and  S_1 
REMARK    2  A    between atoms: C_19  and  S_1 
REMARK    3  A    between atoms: N_2  and  C_3 
REMARK    4  A    between atoms: C_3  and  C_6 
REMARK    5  A    between atoms: C_5  and  C_3 
REMARK    6  A    between atoms: C_16  and  N_4 
REMARK    7  A    between atoms: C_6  and  N_7 
ROOT
ATOM      1  C   UNL d   1     -46.475  12.702  22.843  0.00  0.00     0.107 C 
ENDROOT
BRANCH   1   2
ATOM      2  N   UNL d   1     -47.193  13.101  22.764  0.00  0.00    -0.298 N 
ATOM      3  C   UNL d   1     -47.631  13.028  22.069  0.00  0.00     0.100 A 
ATOM      4  C   UNL d   1     -48.347  13.427  21.994  0.00  0.00     0.100 A 
ATOM      5  N   UNL d   1     -48.630  13.899  22.606  0.00  0.00    -0.301 N 
ATOM      6  C   UNL d   1     -48.192  13.972  23.302  0.00  0.00     0.100 A 
ATOM      7  C   UNL d   1     -47.474  13.573  23.381  0.00  0.00     0.100 A 
BRANCH   5   8
ATOM      8  C   UNL d   1     -49.343  14.295  22.529  0.00  0.00     0.064 A 
ATOM      9  C   UNL d   1     -50.030  13.880  22.362  0.00  0.00     0.018 A 
ATOM     10  C   UNL d   1     -50.747  14.276  22.284  0.00  0.00     0.002 A 
ATOM     11  C   UNL d   1     -50.774  15.096  22.375  0.00  0.00     0.000 A 
ATOM     12  C   UNL d   1     -50.083  15.515  22.544  0.00  0.00     0.002 A 
ATOM     13  C   UNL d   1     -49.369  15.114  22.620  0.00  0.00     0.018 A 
ENDBRANCH   5   8
ENDBRANCH   1   2
BRANCH   1  14
ATOM     14  C   UNL d   1     -45.761  13.061  22.634  0.00  0.00     0.132 C 
BRANCH  14  15
ATOM     15  N   UNL d   1     -45.355  12.795  21.950  0.00  0.00    -0.155 NA
BRANCH  15  16
ATOM     16  S   UNL d   1     -44.623  13.114  21.759  0.00  0.00     0.286 S 
ATOM     17  O   UNL d   1     -44.423  12.423  21.347  0.00  0.00    -0.198 OA
ATOM     18  O   UNL d   1     -44.827  13.806  22.173  0.00  0.00    -0.198 OA
BRANCH  16  19
ATOM     19  C   UNL d   1     -43.888  13.446  21.572  0.00  0.00     0.117 C 
ATOM     20  C   UNL d   1     -43.309  12.982  21.210  0.00  0.00     0.014 C 
ENDBRANCH  16  19
ENDBRANCH  15  16
ENDBRANCH  14  15
ENDBRANCH   1  14
BRANCH   1  21
ATOM     21  C   UNL d   1     -46.466  11.918  23.140  0.00  0.00     0.118 A 
ATOM     22  O   UNL d   1     -45.772  11.595  23.442  0.00  0.00    -0.304 OA
ATOM     23  C   UNL d   1     -45.936  10.821  23.690  0.00  0.00     0.123 A 
ATOM     24  C   UNL d   1     -46.724  10.672  23.542  0.00  0.00     0.029 A 
ATOM     25  C   UNL d   1     -47.054  11.349  23.202  0.00  0.00     0.028 A 
ENDBRANCH   1  21
TORSDOF 7
ENDMDL
MODEL 6
REMARK VINA RESULT:      -3.7      2.354      4.498
REMARK  7 active torsions:
REMARK  status: ('A' for Active; 'I' for Inactive)
REMARK    1  A    between atoms: N_7  and  S_1 
REMARK    2  A    between atoms: C_19  and  S_1 
REMARK    3  A    between atoms: N_2  and  C_3 
REMARK    4  A    between atoms: C_3  and  C_6 
REMARK    5  A    between atoms: C_5  and  C_3 
REMARK    6  A    between atoms: C_16  and  N_4 
REMARK    7  A    between atoms: C_6  and  N_7 
ROOT
ATOM      1  C   UNL d   1     -40.485  14.761  20.580  0.00  0.00     0.107 C 
ENDROOT
BRANCH   1   2
ATOM      2  N   UNL d   1     -40.154  14.699  19.827  0.00  0.00    -0.298 N 
ATOM      3  C   UNL d   1     -39.579  14.127  19.676  0.00  0.00     0.100 A 
ATOM      4  C   UNL d   1     -39.250  14.067  18.924  0.00  0.00     0.100 A 
ATOM      5  N   UNL d   1     -39.490  14.574  18.320  0.00  0.00    -0.301 N 
ATOM      6  C   UNL d   1     -40.065  15.146  18.471  0.00  0.00     0.100 A 
ATOM      7  C   UNL d   1     -40.396  15.208  19.225  0.00  0.00     0.100 A 
BRANCH   5   8
ATOM      8  C   UNL d   1     -39.162  14.513  17.573  0.00  0.00     0.064 A 
ATOM      9  C   UNL d   1     -39.055  13.777  17.227  0.00  0.00     0.018 A 
ATOM     10  C   UNL d   1     -38.725  13.713  16.476  0.00  0.00     0.002 A 
ATOM     11  C   UNL d   1     -38.500  14.395  16.069  0.00  0.00     0.000 A 
ATOM     12  C   UNL d   1     -38.606  15.137  16.415  0.00  0.00     0.002 A 
ATOM     13  C   UNL d   1     -38.937  15.194  17.166  0.00  0.00     0.018 A 
ENDBRANCH   5   8
ENDBRANCH   1   2
BRANCH   1  14
ATOM     14  C   UNL d   1     -41.273  14.556  20.720  0.00  0.00     0.132 C 
BRANCH  14  15
ATOM     15  N   UNL d   1     -41.452  13.783  20.990  0.00  0.00    -0.155 NA
BRANCH  15  16
ATOM     16  S   UNL d   1     -42.236  13.546  21.062  0.00  0.00     0.286 S 
ATOM     17  O   UNL d   1     -42.422  14.262  21.438  0.00  0.00    -0.198 OA
ATOM     18  O   UNL d   1     -42.044  12.830  20.685  0.00  0.00    -0.198 OA
BRANCH  16  19
ATOM     19  C   UNL d   1     -43.022  13.298  21.129  0.00  0.00     0.117 C 
ATOM     20  C   UNL d   1     -43.193  12.566  21.472  0.00  0.00     0.014 C 
ENDBRANCH  16  19
ENDBRANCH  15  16
ENDBRANCH  14  15
ENDBRANCH   1  14
BRANCH   1  21
ATOM     21  C   UNL d   1     -40.017  15.038  21.219  0.00  0.00     0.118 A 
ATOM     22  O   UNL d   1     -40.082  15.816  21.477  0.00  0.00    -0.304 OA
ATOM     23  C   UNL d   1     -39.555  15.922  22.108  0.00  0.00     0.123 A 
ATOM     24  C   UNL d   1     -39.170  15.214  22.235  0.00  0.00     0.029 A 
ATOM     25  C   UNL d   1     -39.454  14.665  21.686  0.00  0.00     0.028 A 
ENDBRANCH   1  21
TORSDOF 7
ENDMDL
