MODEL 1
REMARK VINA RESULT:      -2.9      0.000      0.000
REMARK  5 active torsions:
REMARK  status: ('A' for Active; 'I' for Inactive)
REMARK    1  A    between atoms: C_5  and  N_1 
REMARK    2  A    between atoms: C_7  and  C_5 
REMARK    3  A    between atoms: O_14  and  C_10 
REMARK    4  A    between atoms: C_18  and  O_14 
REMARK    5  A    between atoms: C_19  and  C_18 
ROOT
ATOM      1  N   UNL d   1      59.786  -1.812  29.588  0.00  0.00    -0.251 N 
ATOM      2  C   UNL d   1      60.580  -1.577  29.626  0.00  0.00     0.378 A 
ATOM      3  C   UNL d   1      59.753  -2.550  29.215  0.00  0.00     0.092 A 
ATOM      4  O   UNL d   1      61.037  -2.172  29.274  0.00  0.00    -0.258 OA
ATOM      5  C   UNL d   1      60.525  -2.772  29.021  0.00  0.00     0.121 A 
ATOM      6  O   UNL d   1      60.867  -0.878  29.953  0.00  0.00    -0.237 OA
ATOM      7  C   UNL d   1      59.118  -3.038  29.032  0.00  0.00     0.020 A 
ATOM      8  C   UNL d   1      60.655  -3.496  28.639  0.00  0.00     0.026 A 
ATOM      9  C   UNL d   1      59.250  -3.755  28.652  0.00  0.00     0.002 A 
ATOM     10  C   UNL d   1      60.020  -3.984  28.455  0.00  0.00     0.002 A 
ATOM     11  C   UNL d   1      58.614  -4.247  28.468  0.00  0.00     0.000 C 
ENDROOT
BRANCH   1  12
ATOM     12  C   UNL d   1      59.118  -1.411  29.863  0.00  0.00     0.087 C 
BRANCH  12  13
ATOM     13  C   UNL d   1      58.874  -0.708  29.498  0.00  0.00     0.041 A 
ATOM     14  C   UNL d   1      58.258  -0.279  29.810  0.00  0.00     0.102 A 
ATOM     15  C   UNL d   1      58.018   0.416  29.449  0.00  0.00     0.025 A 
ATOM     16  C   UNL d   1      58.400   0.682  28.770  0.00  0.00     0.002 A 
ATOM     17  C   UNL d   1      59.026   0.245  28.455  0.00  0.00     0.000 A 
ATOM     18  C   UNL d   1      59.264  -0.455  28.823  0.00  0.00     0.004 A 
BRANCH  14  19
ATOM     19  O   UNL d   1      57.870  -0.543  30.493  0.00  0.00    -0.305 OA
BRANCH  19  20
ATOM     20  C   UNL d   1      57.471  -0.005  30.976  0.00  0.00     0.123 C 
BRANCH  20  21
ATOM     21  C   UNL d   1      57.170  -0.245  31.699  0.00  0.00     0.027 C 
ATOM     22  C   UNL d   1      56.645   0.241  32.113  0.00  0.00     0.002 C 
ENDBRANCH  20  21
ENDBRANCH  19  20
ENDBRANCH  14  19
ENDBRANCH  12  13
ENDBRANCH   1  12
TORSDOF 5
ENDMDL
MODEL 2
REMARK VINA RESULT:      -1.5      1.662      4.171
REMARK  5 active torsions:
REMARK  status: ('A' for Active; 'I' for Inactive)
REMARK    1  A    between atoms: C_5  and  N_1 
REMARK    2  A    between atoms: C_7  and  C_5 
REMARK    3  A    between atoms: O_14  and  C_10 
REMARK    4  A    between atoms: C_18  and  O_14 
REMARK    5  A    between atoms: C_19  and  C_18 
ROOT
ATOM      1  N   UNL d   1      57.702  -0.832  31.141  0.00  0.00    -0.251 N 
ATOM      2  C   UNL d   1      57.313  -1.493  30.827  0.00  0.00     0.378 A 
ATOM      3  C   UNL d   1      57.320  -0.617  31.843  0.00  0.00     0.092 A 
ATOM      4  O   UNL d   1      56.689  -1.686  31.338  0.00  0.00    -0.258 OA
ATOM      5  C   UNL d   1      56.695  -1.144  31.965  0.00  0.00     0.121 A 
ATOM      6  O   UNL d   1      57.507  -1.890  30.133  0.00  0.00    -0.237 OA
ATOM      7  C   UNL d   1      57.467  -0.011  32.378  0.00  0.00     0.020 A 
ATOM      8  C   UNL d   1      56.215  -1.056  32.634  0.00  0.00     0.026 A 
ATOM      9  C   UNL d   1      56.989   0.074  33.041  0.00  0.00     0.002 A 
ATOM     10  C   UNL d   1      56.362  -0.450  33.170  0.00  0.00     0.002 A 
ATOM     11  C   UNL d   1      57.135   0.682  33.580  0.00  0.00     0.000 C 
ENDROOT
BRANCH   1  12
ATOM     12  C   UNL d   1      58.357  -0.430  30.839  0.00  0.00     0.087 C 
BRANCH  12  13
ATOM     13  C   UNL d   1      58.318  -0.070  30.093  0.00  0.00     0.041 A 
ATOM     14  C   UNL d   1      58.955  -0.106  29.590  0.00  0.00     0.102 A 
ATOM     15  C   UNL d   1      58.916   0.250  28.853  0.00  0.00     0.025 A 
ATOM     16  C   UNL d   1      58.232   0.645  28.621  0.00  0.00     0.002 A 
ATOM     17  C   UNL d   1      57.586   0.680  29.134  0.00  0.00     0.000 A 
ATOM     18  C   UNL d   1      57.631   0.319  29.875  0.00  0.00     0.004 A 
BRANCH  14  19
ATOM     19  O   UNL d   1      59.646  -0.502  29.818  0.00  0.00    -0.305 OA
BRANCH  19  20
ATOM     20  C   UNL d   1      60.156  -0.810  29.246  0.00  0.00     0.123 C 
BRANCH  20  21
ATOM     21  C   UNL d   1      60.859  -1.164  29.469  0.00  0.00     0.027 C 
ATOM     22  C   UNL d   1      61.133  -1.833  29.068  0.00  0.00     0.002 C 
ENDBRANCH  20  21
ENDBRANCH  19  20
ENDBRANCH  14  19
ENDBRANCH  12  13
ENDBRANCH   1  12
TORSDOF 5
ENDMDL
MODEL 3
REMARK VINA RESULT:      -1.1      3.168      4.475
REMARK  5 active torsions:
REMARK  status: ('A' for Active; 'I' for Inactive)
REMARK    1  A    between atoms: C_5  and  N_1 
REMARK    2  A    between atoms: C_7  and  C_5 
REMARK    3  A    between atoms: O_14  and  C_10 
REMARK    4  A    between atoms: C_18  and  O_14 
REMARK    5  A    between atoms: C_19  and  C_18 
ROOT
ATOM      1  N   UNL d   1      57.522   0.622  31.481  0.00  0.00    -0.251 N 
ATOM      2  C   UNL d   1      57.267   0.619  30.692  0.00  0.00     0.378 A 
ATOM      3  C   UNL d   1      58.349   0.642  31.485  0.00  0.00     0.092 A 
ATOM      4  O   UNL d   1      57.940   0.637  30.209  0.00  0.00    -0.258 OA
ATOM      5  C   UNL d   1      58.608   0.651  30.700  0.00  0.00     0.121 A 
ATOM      6  O   UNL d   1      56.487   0.602  30.431  0.00  0.00    -0.237 OA
ATOM      7  C   UNL d   1      58.890   0.652  32.104  0.00  0.00     0.020 A 
ATOM      8  C   UNL d   1      59.421   0.671  30.541  0.00  0.00     0.026 A 
ATOM      9  C   UNL d   1      59.695   0.671  31.943  0.00  0.00     0.002 A 
ATOM     10  C   UNL d   1      59.961   0.681  31.160  0.00  0.00     0.002 A 
ATOM     11  C   UNL d   1      60.240   0.681  32.563  0.00  0.00     0.000 C 
ENDROOT
BRANCH   1  12
ATOM     12  C   UNL d   1      57.065   0.608  32.168  0.00  0.00     0.087 C 
BRANCH  12  13
ATOM     13  C   UNL d   1      56.684  -0.089  32.403  0.00  0.00     0.041 A 
ATOM     14  C   UNL d   1      56.266  -0.112  33.099  0.00  0.00     0.102 A 
ATOM     15  C   UNL d   1      55.889  -0.802  33.330  0.00  0.00     0.025 A 
ATOM     16  C   UNL d   1      55.933  -1.474  32.856  0.00  0.00     0.002 A 
ATOM     17  C   UNL d   1      56.358  -1.449  32.149  0.00  0.00     0.000 A 
ATOM     18  C   UNL d   1      56.736  -0.751  31.922  0.00  0.00     0.004 A 
BRANCH  14  19
ATOM     19  O   UNL d   1      56.218   0.562  33.580  0.00  0.00    -0.305 OA
BRANCH  19  20
ATOM     20  C   UNL d   1      56.042   0.487  34.383  0.00  0.00     0.123 C 
BRANCH  20  21
ATOM     21  C   UNL d   1      55.296   0.680  34.660  0.00  0.00     0.027 C 
ATOM     22  C   UNL d   1      55.119   0.600  35.464  0.00  0.00     0.002 C 
ENDBRANCH  20  21
ENDBRANCH  19  20
ENDBRANCH  14  19
ENDBRANCH  12  13
ENDBRANCH   1  12
TORSDOF 5
ENDMDL
MODEL 4
REMARK VINA RESULT:      -1.0      1.479      2.598
REMARK  5 active torsions:
REMARK  status: ('A' for Active; 'I' for Inactive)
REMARK    1  A    between atoms: C_5  and  N_1 
REMARK    2  A    between atoms: C_7  and  C_5 
REMARK    3  A    between atoms: O_14  and  C_10 
REMARK    4  A    between atoms: C_18  and  O_14 
REMARK    5  A    between atoms: C_19  and  C_18 
ROOT
ATOM      1  N   UNL d   1      58.052  -0.709  30.000  0.00  0.00    -0.251 N 
ATOM      2  C   UNL d   1      57.888  -0.102  29.460  0.00  0.00     0.378 A 
ATOM      3  C   UNL d   1      58.625  -1.204  29.666  0.00  0.00     0.092 A 
ATOM      4  O   UNL d   1      58.362  -0.224  28.791  0.00  0.00    -0.258 OA
ATOM      5  C   UNL d   1      58.817  -0.905  28.920  0.00  0.00     0.121 A 
ATOM      6  O   UNL d   1      57.351   0.513  29.564  0.00  0.00    -0.237 OA
ATOM      7  C   UNL d   1      58.990  -1.883  29.951  0.00  0.00     0.020 A 
ATOM      8  C   UNL d   1      59.383  -1.297  28.459  0.00  0.00     0.026 A 
ATOM      9  C   UNL d   1      59.551  -2.269  29.492  0.00  0.00     0.002 A 
ATOM     10  C   UNL d   1      59.748  -1.976  28.744  0.00  0.00     0.002 A 
ATOM     11  C   UNL d   1      59.918  -2.951  29.776  0.00  0.00     0.000 C 
ENDROOT
BRANCH   1  12
ATOM     12  C   UNL d   1      57.724  -0.834  30.747  0.00  0.00     0.087 C 
BRANCH  12  13
ATOM     13  C   UNL d   1      57.911  -0.327  31.375  0.00  0.00     0.041 A 
ATOM     14  C   UNL d   1      57.456  -0.327  32.049  0.00  0.00     0.102 A 
ATOM     15  C   UNL d   1      57.642   0.175  32.669  0.00  0.00     0.025 A 
ATOM     16  C   UNL d   1      58.289   0.680  32.612  0.00  0.00     0.002 A 
ATOM     17  C   UNL d   1      58.750   0.679  31.926  0.00  0.00     0.000 A 
ATOM     18  C   UNL d   1      58.558   0.171  31.305  0.00  0.00     0.004 A 
BRANCH  14  19
ATOM     19  O   UNL d   1      56.803  -0.833  32.112  0.00  0.00    -0.305 OA
BRANCH  19  20
ATOM     20  C   UNL d   1      56.306  -0.789  32.770  0.00  0.00     0.123 C 
BRANCH  20  21
ATOM     21  C   UNL d   1      55.551  -1.102  32.737  0.00  0.00     0.027 C 
ATOM     22  C   UNL d   1      55.325  -1.698  33.264  0.00  0.00     0.002 C 
ENDBRANCH  20  21
ENDBRANCH  19  20
ENDBRANCH  14  19
ENDBRANCH  12  13
ENDBRANCH   1  12
TORSDOF 5
ENDMDL
MODEL 5
REMARK VINA RESULT:      -1.0      3.477      6.436
REMARK  5 active torsions:
REMARK  status: ('A' for Active; 'I' for Inactive)
REMARK    1  A    between atoms: C_5  and  N_1 
REMARK    2  A    between atoms: C_7  and  C_5 
REMARK    3  A    between atoms: O_14  and  C_10 
REMARK    4  A    between atoms: C_18  and  O_14 
REMARK    5  A    between atoms: C_19  and  C_18 
ROOT
ATOM      1  N   UNL d   1      55.457   0.515  33.708  0.00  0.00    -0.251 N 
ATOM      2  C   UNL d   1      54.632   0.509  33.793  0.00  0.00     0.378 A 
ATOM      3  C   UNL d   1      55.795   0.569  34.461  0.00  0.00     0.092 A 
ATOM      4  O   UNL d   1      54.462   0.559  34.603  0.00  0.00    -0.258 OA
ATOM      5  C   UNL d   1      55.180   0.596  35.014  0.00  0.00     0.121 A 
ATOM      6  O   UNL d   1      54.078   0.461  33.186  0.00  0.00    -0.237 OA
ATOM      7  C   UNL d   1      56.579   0.597  34.705  0.00  0.00     0.020 A 
ATOM      8  C   UNL d   1      55.363   0.651  35.820  0.00  0.00     0.026 A 
ATOM      9  C   UNL d   1      56.757   0.652  35.505  0.00  0.00     0.002 A 
ATOM     10  C   UNL d   1      56.148   0.679  36.064  0.00  0.00     0.002 A 
ATOM     11  C   UNL d   1      57.544   0.679  35.752  0.00  0.00     0.000 C 
ENDROOT
BRANCH   1  12
ATOM     12  C   UNL d   1      55.901   0.477  33.013  0.00  0.00     0.087 C 
BRANCH  12  13
ATOM     13  C   UNL d   1      56.076  -0.257  32.669  0.00  0.00     0.041 A 
ATOM     14  C   UNL d   1      56.614  -0.305  32.062  0.00  0.00     0.102 A 
ATOM     15  C   UNL d   1      56.787  -1.031  31.723  0.00  0.00     0.025 A 
ATOM     16  C   UNL d   1      56.416  -1.713  31.997  0.00  0.00     0.002 A 
ATOM     17  C   UNL d   1      55.870  -1.662  32.615  0.00  0.00     0.000 A 
ATOM     18  C   UNL d   1      55.700  -0.928  32.952  0.00  0.00     0.004 A 
BRANCH  14  19
ATOM     19  O   UNL d   1      56.991   0.378  31.782  0.00  0.00    -0.305 OA
BRANCH  19  20
ATOM     20  C   UNL d   1      57.699   0.319  31.362  0.00  0.00     0.123 C 
BRANCH  20  21
ATOM     21  C   UNL d   1      57.775   0.680  30.631  0.00  0.00     0.027 C 
ATOM     22  C   UNL d   1      58.494   0.649  30.225  0.00  0.00     0.002 C 
ENDBRANCH  20  21
ENDBRANCH  19  20
ENDBRANCH  14  19
ENDBRANCH  12  13
ENDBRANCH   1  12
TORSDOF 5
ENDMDL
MODEL 6
REMARK VINA RESULT:      -0.4      3.264      6.264
REMARK  5 active torsions:
REMARK  status: ('A' for Active; 'I' for Inactive)
REMARK    1  A    between atoms: C_5  and  N_1 
REMARK    2  A    between atoms: C_7  and  C_5 
REMARK    3  A    between atoms: O_14  and  C_10 
REMARK    4  A    between atoms: C_18  and  O_14 
REMARK    5  A    between atoms: C_19  and  C_18 
ROOT
ATOM      1  N   UNL d   1      55.985   0.397  33.694  0.00  0.00    -0.251 N 
ATOM      2  C   UNL d   1      56.604   0.387  34.246  0.00  0.00     0.378 A 
ATOM      3  C   UNL d   1      55.274   0.491  34.105  0.00  0.00     0.092 A 
ATOM      4  O   UNL d   1      56.272   0.475  35.000  0.00  0.00    -0.258 OA
ATOM      5  C   UNL d   1      55.451   0.539  34.912  0.00  0.00     0.121 A 
ATOM      6  O   UNL d   1      57.406   0.304  34.079  0.00  0.00    -0.237 OA
ATOM      7  C   UNL d   1      54.496   0.537  33.844  0.00  0.00     0.020 A 
ATOM      8  C   UNL d   1      54.834   0.635  35.457  0.00  0.00     0.026 A 
ATOM      9  C   UNL d   1      53.887   0.633  34.387  0.00  0.00     0.002 A 
ATOM     10  C   UNL d   1      54.056   0.682  35.195  0.00  0.00     0.002 A 
ATOM     11  C   UNL d   1      53.106   0.680  34.126  0.00  0.00     0.000 C 
ENDROOT
BRANCH   1  12
ATOM     12  C   UNL d   1      56.029   0.328  32.872  0.00  0.00     0.087 C 
BRANCH  12  13
ATOM     13  C   UNL d   1      56.186  -0.406  32.522  0.00  0.00     0.041 A 
ATOM     14  C   UNL d   1      56.695  -0.457  31.890  0.00  0.00     0.102 A 
ATOM     15  C   UNL d   1      56.850  -1.183  31.545  0.00  0.00     0.025 A 
ATOM     16  C   UNL d   1      56.490  -1.864  31.837  0.00  0.00     0.002 A 
ATOM     17  C   UNL d   1      55.973  -1.811  32.479  0.00  0.00     0.000 A 
ATOM     18  C   UNL d   1      55.821  -1.076  32.823  0.00  0.00     0.004 A 
BRANCH  14  19
ATOM     19  O   UNL d   1      57.060   0.225  31.593  0.00  0.00    -0.305 OA
BRANCH  19  20
ATOM     20  C   UNL d   1      57.481   0.194  30.883  0.00  0.00     0.123 C 
BRANCH  20  21
ATOM     21  C   UNL d   1      58.160   0.642  30.787  0.00  0.00     0.027 C 
ATOM     22  C   UNL d   1      58.772   0.370  30.302  0.00  0.00     0.002 C 
ENDBRANCH  20  21
ENDBRANCH  19  20
ENDBRANCH  14  19
ENDBRANCH  12  13
ENDBRANCH   1  12
TORSDOF 5
ENDMDL
