MODEL 1
REMARK VINA RESULT:      14.9      0.000      0.000
REMARK  4 active torsions:
REMARK  status: ('A' for Active; 'I' for Inactive)
REMARK    1  A    between atoms: N_2  and  S_1 
REMARK    2  A    between atoms: C_6  and  S_1 
REMARK    3  A    between atoms: O_17  and  C_12 
REMARK    4  A    between atoms: C_19  and  O_17 
ROOT
ATOM      1  S   UNL d   1      46.091 -18.043  43.910  0.00  0.00     0.271 S 
ATOM      2  O   UNL d   1      46.438 -18.217  44.645  0.00  0.00    -0.200 OA
ATOM      3  O   UNL d   1      45.745 -17.870  43.180  0.00  0.00    -0.200 OA
ENDROOT
BRANCH   1   4
ATOM      4  N   UNL d   1      46.257 -18.814  43.649  0.00  0.00    -0.232 N 
ATOM      5  C   UNL d   1      46.351 -19.481  44.129  0.00  0.00     0.075 A 
ATOM      6  C   UNL d   1      46.509 -20.129  43.647  0.00  0.00     0.020 A 
ATOM      7  C   UNL d   1      46.296 -19.490  44.955  0.00  0.00     0.020 C 
ATOM      8  C   UNL d   1      46.512 -19.862  42.860  0.00  0.00     0.018 A 
ATOM      9  C   UNL d   1      46.356 -19.052  42.867  0.00  0.00     0.075 A 
ATOM     10  C   UNL d   1      46.636 -20.251  42.145  0.00  0.00     0.002 A 
ATOM     11  C   UNL d   1      46.325 -18.630  42.155  0.00  0.00     0.018 A 
ATOM     12  C   UNL d   1      46.449 -19.019  41.443  0.00  0.00     0.002 A 
ATOM     13  C   UNL d   1      46.605 -19.828  41.433  0.00  0.00     0.000 A 
ENDBRANCH   1   4
BRANCH   1  14
ATOM     14  C   UNL d   1      45.926 -17.277  44.170  0.00  0.00     0.104 A 
ATOM     15  C   UNL d   1      45.298 -17.146  44.695  0.00  0.00     0.015 A 
ATOM     16  C   UNL d   1      45.134 -16.383  44.954  0.00  0.00     0.025 A 
ATOM     17  C   UNL d   1      45.595 -15.742  44.690  0.00  0.00     0.100 A 
ATOM     18  C   UNL d   1      46.221 -15.882  44.165  0.00  0.00     0.025 A 
ATOM     19  C   UNL d   1      46.385 -16.645  43.907  0.00  0.00     0.015 A 
BRANCH  17  20
ATOM     20  O   UNL d   1      45.431 -14.979  44.949  0.00  0.00    -0.305 OA
BRANCH  20  21
ATOM     21  C   UNL d   1      45.755 -14.334  44.558  0.00  0.00     0.123 C 
ATOM     22  C   UNL d   1      45.423 -13.587  44.651  0.00  0.00     0.029 C 
ENDBRANCH  20  21
ENDBRANCH  17  20
ENDBRANCH   1  14
TORSDOF 4
ENDMDL
