MODEL 1
REMARK VINA RESULT:      -8.1      0.000      0.000
REMARK  2 active torsions:
REMARK  status: ('A' for Active; 'I' for Inactive)
REMARK       I    between atoms: N_2  and  C_1 
REMARK    1  A    between atoms: C_4  and  C_1 
REMARK    2  A    between atoms: C_7  and  N_3 
ROOT
ATOM      1  C   UNL d   1     -47.786  14.620  22.642  0.00  0.00     0.265 C 
ATOM      2  N   UNL d   1     -47.304  13.965  22.770  0.00  0.00    -0.269 N 
ATOM      3  N   UNL d   1     -46.334  12.652  23.027  0.00  0.00    -0.301 N 
ATOM      4  C   UNL d   1     -46.482  14.062  22.806  0.00  0.00     0.102 A 
ATOM      5  C   UNL d   1     -47.644  13.217  22.863  0.00  0.00     0.102 A 
ATOM      6  C   UNL d   1     -47.161  12.566  22.990  0.00  0.00     0.100 A 
ATOM      7  C   UNL d   1     -46.002  13.403  22.934  0.00  0.00     0.100 A 
ATOM      8  O   UNL d   1     -47.451  15.370  22.549  0.00  0.00    -0.267 OA
ENDROOT
BRANCH   1   9
ATOM      9  C   UNL d   1     -48.609  14.523  22.607  0.00  0.00     0.059 A 
ATOM     10  C   UNL d   1     -48.952  14.225  21.919  0.00  0.00     0.031 A 
ATOM     11  C   UNL d   1     -49.781  14.123  21.871  0.00  0.00     0.119 A 
ATOM     12  O   UNL d   1     -50.279  13.843  21.272  0.00  0.00    -0.300 OA
ATOM     13  C   UNL d   1     -50.263  14.327  22.528  0.00  0.00     0.119 A 
ATOM     14  C   UNL d   1     -51.064  13.872  21.552  0.00  0.00     0.304 A 
ATOM     15  O   UNL d   1     -51.056  14.171  22.331  0.00  0.00    -0.300 OA
ATOM     16  C   UNL d   1     -49.909  14.629  23.222  0.00  0.00     0.026 A 
ATOM     17  C   UNL d   1     -49.091  14.727  23.264  0.00  0.00     0.007 A 
ENDBRANCH   1   9
BRANCH   3  18
ATOM     18  C   UNL d   1     -45.854  11.994  23.156  0.00  0.00     0.064 A 
ATOM     19  C   UNL d   1     -46.155  11.347  23.567  0.00  0.00     0.018 A 
ATOM     20  C   UNL d   1     -45.673  10.696  23.692  0.00  0.00     0.013 A 
ATOM     21  C   UNL d   1     -44.898  10.690  23.408  0.00  0.00     0.058 A 
ATOM     22  C   UNL d   1     -44.607  11.345  22.996  0.00  0.00     0.013 A 
ATOM     23 CL   UNL d   1     -44.418  10.031  23.537  0.00  0.00    -0.082 Cl
ATOM     24  C   UNL d   1     -45.087  11.992  22.873  0.00  0.00     0.018 A 
ENDBRANCH   3  18
TORSDOF 2
ENDMDL
MODEL 2
REMARK VINA RESULT:      -7.7      8.237      9.867
REMARK  2 active torsions:
REMARK  status: ('A' for Active; 'I' for Inactive)
REMARK       I    between atoms: N_2  and  C_1 
REMARK    1  A    between atoms: C_4  and  C_1 
REMARK    2  A    between atoms: C_7  and  N_3 
ROOT
ATOM      1  C   UNL d   1     -40.215  14.111  18.225  0.00  0.00     0.265 C 
ATOM      2  N   UNL d   1     -40.007  14.314  18.995  0.00  0.00    -0.269 N 
ATOM      3  N   UNL d   1     -39.595  14.723  20.542  0.00  0.00    -0.301 N 
ATOM      4  C   UNL d   1     -40.589  14.325  19.586  0.00  0.00     0.102 A 
ATOM      5  C   UNL d   1     -39.224  14.506  19.172  0.00  0.00     0.102 A 
ATOM      6  C   UNL d   1     -39.020  14.709  19.941  0.00  0.00     0.100 A 
ATOM      7  C   UNL d   1     -40.377  14.530  20.357  0.00  0.00     0.100 A 
ATOM      8  O   UNL d   1     -40.998  13.918  18.043  0.00  0.00    -0.267 OA
ENDROOT
BRANCH   1   9
ATOM      9  C   UNL d   1     -39.634  14.099  17.633  0.00  0.00     0.059 A 
ATOM     10  C   UNL d   1     -39.517  14.770  17.168  0.00  0.00     0.031 A 
ATOM     11  C   UNL d   1     -38.935  14.771  16.567  0.00  0.00     0.119 A 
ATOM     12  O   UNL d   1     -38.691  15.344  16.022  0.00  0.00    -0.300 OA
ATOM     13  C   UNL d   1     -38.468  14.085  16.440  0.00  0.00     0.119 A 
ATOM     14  C   UNL d   1     -38.079  15.019  15.559  0.00  0.00     0.304 A 
ATOM     15  O   UNL d   1     -37.940  14.237  15.817  0.00  0.00    -0.300 OA
ATOM     16  C   UNL d   1     -38.592  13.408  16.916  0.00  0.00     0.026 A 
ATOM     17  C   UNL d   1     -39.168  13.413  17.506  0.00  0.00     0.007 A 
ENDBRANCH   1   9
BRANCH   3  18
ATOM     18  C   UNL d   1     -39.384  14.927  21.313  0.00  0.00     0.064 A 
ATOM     19  C   UNL d   1     -39.153  14.339  21.840  0.00  0.00     0.018 A 
ATOM     20  C   UNL d   1     -38.944  14.548  22.604  0.00  0.00     0.013 A 
ATOM     21  C   UNL d   1     -38.966  15.338  22.841  0.00  0.00     0.058 A 
ATOM     22  C   UNL d   1     -39.200  15.921  22.303  0.00  0.00     0.013 A 
ATOM     23 CL   UNL d   1     -38.755  15.543  23.612  0.00  0.00    -0.082 Cl
ATOM     24  C   UNL d   1     -39.407  15.711  21.543  0.00  0.00     0.018 A 
ENDBRANCH   3  18
TORSDOF 2
ENDMDL
MODEL 3
REMARK VINA RESULT:      -7.6      1.407      2.151
REMARK  2 active torsions:
REMARK  status: ('A' for Active; 'I' for Inactive)
REMARK       I    between atoms: N_2  and  C_1 
REMARK    1  A    between atoms: C_4  and  C_1 
REMARK    2  A    between atoms: C_7  and  N_3 
ROOT
ATOM      1  C   UNL d   1     -49.855  12.245  23.364  0.00  0.00     0.265 C 
ATOM      2  N   UNL d   1     -49.051  12.067  23.357  0.00  0.00    -0.269 N 
ATOM      3  N   UNL d   1     -47.439  11.706  23.345  0.00  0.00    -0.301 N 
ATOM      4  C   UNL d   1     -48.787  11.353  23.686  0.00  0.00     0.102 A 
ATOM      5  C   UNL d   1     -48.516  12.600  23.023  0.00  0.00     0.102 A 
ATOM      6  C   UNL d   1     -47.715  12.419  23.018  0.00  0.00     0.100 A 
ATOM      7  C   UNL d   1     -47.981  11.178  23.677  0.00  0.00     0.100 A 
ATOM      8  O   UNL d   1     -50.395  11.715  23.697  0.00  0.00    -0.267 OA
ENDROOT
BRANCH   1   9
ATOM      9  C   UNL d   1     -50.120  12.958  23.036  0.00  0.00     0.059 A 
ATOM     10  C   UNL d   1     -50.222  13.616  23.523  0.00  0.00     0.031 A 
ATOM     11  C   UNL d   1     -50.488  14.341  23.204  0.00  0.00     0.119 A 
ATOM     12  O   UNL d   1     -50.641  15.082  23.541  0.00  0.00    -0.300 OA
ATOM     13  C   UNL d   1     -50.653  14.398  22.382  0.00  0.00     0.119 A 
ATOM     14  C   UNL d   1     -50.898  15.595  22.937  0.00  0.00     0.304 A 
ATOM     15  O   UNL d   1     -50.906  15.172  22.217  0.00  0.00    -0.300 OA
ATOM     16  C   UNL d   1     -50.547  13.728  21.893  0.00  0.00     0.026 A 
ATOM     17  C   UNL d   1     -50.284  13.015  22.214  0.00  0.00     0.007 A 
ENDBRANCH   1   9
BRANCH   3  18
ATOM     18  C   UNL d   1     -46.633  11.530  23.336  0.00  0.00     0.064 A 
ATOM     19  C   UNL d   1     -46.110  12.046  22.964  0.00  0.00     0.018 A 
ATOM     20  C   UNL d   1     -45.310  11.866  22.959  0.00  0.00     0.013 A 
ATOM     21  C   UNL d   1     -45.035  11.177  23.321  0.00  0.00     0.058 A 
ATOM     22  C   UNL d   1     -45.570  10.667  23.691  0.00  0.00     0.013 A 
ATOM     23 CL   UNL d   1     -44.229  11.002  23.312  0.00  0.00    -0.082 Cl
ATOM     24  C   UNL d   1     -46.365  10.847  23.695  0.00  0.00     0.018 A 
ENDBRANCH   3  18
TORSDOF 2
ENDMDL
MODEL 4
REMARK VINA RESULT:      -7.2      8.202      9.728
REMARK  2 active torsions:
REMARK  status: ('A' for Active; 'I' for Inactive)
REMARK       I    between atoms: N_2  and  C_1 
REMARK    1  A    between atoms: C_4  and  C_1 
REMARK    2  A    between atoms: C_7  and  N_3 
ROOT
ATOM      1  C   UNL d   1     -40.472  14.753  20.378  0.00  0.00     0.265 C 
ATOM      2  N   UNL d   1     -40.114  14.608  19.652  0.00  0.00    -0.269 N 
ATOM      3  N   UNL d   1     -39.398  14.316  18.191  0.00  0.00    -0.301 N 
ATOM      4  C   UNL d   1     -40.582  14.420  18.994  0.00  0.00     0.102 A 
ATOM      5  C   UNL d   1     -39.292  14.651  19.584  0.00  0.00     0.102 A 
ATOM      6  C   UNL d   1     -38.937  14.506  18.858  0.00  0.00     0.100 A 
ATOM      7  C   UNL d   1     -40.219  14.275  18.267  0.00  0.00     0.100 A 
ATOM      8  O   UNL d   1     -41.295  14.711  20.451  0.00  0.00    -0.267 OA
ENDROOT
BRANCH   1   9
ATOM      9  C   UNL d   1     -40.004  14.942  21.036  0.00  0.00     0.059 A 
ATOM     10  C   UNL d   1     -39.728  14.336  21.524  0.00  0.00     0.031 A 
ATOM     11  C   UNL d   1     -39.255  14.513  22.190  0.00  0.00     0.119 A 
ATOM     12  O   UNL d   1     -38.902  14.041  22.771  0.00  0.00    -0.300 OA
ATOM     13  C   UNL d   1     -39.063  15.313  22.362  0.00  0.00     0.119 A 
ATOM     14  C   UNL d   1     -38.494  14.539  23.300  0.00  0.00     0.304 A 
ATOM     15  O   UNL d   1     -38.592  15.329  23.048  0.00  0.00    -0.300 OA
ATOM     16  C   UNL d   1     -39.346  15.922  21.864  0.00  0.00     0.026 A 
ATOM     17  C   UNL d   1     -39.812  15.741  21.208  0.00  0.00     0.007 A 
ENDBRANCH   1   9
BRANCH   3  18
ATOM     18  C   UNL d   1     -39.035  14.171  17.465  0.00  0.00     0.064 A 
ATOM     19  C   UNL d   1     -39.040  14.757  16.886  0.00  0.00     0.018 A 
ATOM     20  C   UNL d   1     -38.678  14.607  16.166  0.00  0.00     0.013 A 
ATOM     21  C   UNL d   1     -38.315  13.879  16.025  0.00  0.00     0.058 A 
ATOM     22  C   UNL d   1     -38.317  13.299  16.613  0.00  0.00     0.013 A 
ATOM     23 CL   UNL d   1     -37.953  13.735  15.298  0.00  0.00    -0.082 Cl
ATOM     24  C   UNL d   1     -38.677  13.450  17.329  0.00  0.00     0.018 A 
ENDBRANCH   3  18
TORSDOF 2
ENDMDL
MODEL 5
REMARK VINA RESULT:      -7.1      1.355      1.684
REMARK  2 active torsions:
REMARK  status: ('A' for Active; 'I' for Inactive)
REMARK       I    between atoms: N_2  and  C_1 
REMARK    1  A    between atoms: C_4  and  C_1 
REMARK    2  A    between atoms: C_7  and  N_3 
ROOT
ATOM      1  C   UNL d   1     -48.346  14.377  22.803  0.00  0.00     0.265 C 
ATOM      2  N   UNL d   1     -47.604  14.048  22.669  0.00  0.00    -0.269 N 
ATOM      3  N   UNL d   1     -46.113  13.388  22.402  0.00  0.00    -0.301 N 
ATOM      4  C   UNL d   1     -46.924  14.507  22.789  0.00  0.00     0.102 A 
ATOM      5  C   UNL d   1     -47.543  13.263  22.417  0.00  0.00     0.102 A 
ATOM      6  C   UNL d   1     -46.802  12.937  22.285  0.00  0.00     0.100 A 
ATOM      7  C   UNL d   1     -46.182  14.172  22.654  0.00  0.00     0.100 A 
ATOM      8  O   UNL d   1     -48.413  15.162  23.055  0.00  0.00    -0.267 OA
ENDROOT
BRANCH   1   9
ATOM      9  C   UNL d   1     -49.027  13.919  22.683  0.00  0.00     0.059 A 
ATOM     10  C   UNL d   1     -49.316  13.454  23.300  0.00  0.00     0.031 A 
ATOM     11  C   UNL d   1     -50.001  12.988  23.192  0.00  0.00     0.119 A 
ATOM     12  O   UNL d   1     -50.417  12.475  23.691  0.00  0.00    -0.300 OA
ATOM     13  C   UNL d   1     -50.395  12.994  22.450  0.00  0.00     0.119 A 
ATOM     14  C   UNL d   1     -51.064  12.165  23.267  0.00  0.00     0.304 A 
ATOM     15  O   UNL d   1     -51.052  12.487  22.497  0.00  0.00    -0.300 OA
ATOM     16  C   UNL d   1     -50.097  13.468  21.829  0.00  0.00     0.026 A 
ATOM     17  C   UNL d   1     -49.421  13.926  21.941  0.00  0.00     0.007 A 
ENDBRANCH   1   9
BRANCH   3  18
ATOM     18  C   UNL d   1     -45.370  13.055  22.267  0.00  0.00     0.064 A 
ATOM     19  C   UNL d   1     -45.106  12.445  22.753  0.00  0.00     0.018 A 
ATOM     20  C   UNL d   1     -44.367  12.118  22.614  0.00  0.00     0.013 A 
ATOM     21  C   UNL d   1     -43.897  12.396  21.995  0.00  0.00     0.058 A 
ATOM     22  C   UNL d   1     -44.173  13.009  21.514  0.00  0.00     0.013 A 
ATOM     23 CL   UNL d   1     -43.155  12.062  21.860  0.00  0.00    -0.082 Cl
ATOM     24  C   UNL d   1     -44.908  13.333  21.653  0.00  0.00     0.018 A 
ENDBRANCH   3  18
TORSDOF 2
ENDMDL
MODEL 6
REMARK VINA RESULT:      -5.7      8.226      9.731
REMARK  2 active torsions:
REMARK  status: ('A' for Active; 'I' for Inactive)
REMARK       I    between atoms: N_2  and  C_1 
REMARK    1  A    between atoms: C_4  and  C_1 
REMARK    2  A    between atoms: C_7  and  N_3 
ROOT
ATOM      1  C   UNL d   1     -39.029  15.212  19.900  0.00  0.00     0.265 C 
ATOM      2  N   UNL d   1     -38.872  15.003  19.119  0.00  0.00    -0.269 N 
ATOM      3  N   UNL d   1     -38.553  14.585  17.553  0.00  0.00    -0.301 N 
ATOM      4  C   UNL d   1     -38.093  15.033  18.836  0.00  0.00     0.102 A 
ATOM      5  C   UNL d   1     -39.490  14.766  18.626  0.00  0.00     0.102 A 
ATOM      6  C   UNL d   1     -39.330  14.559  17.848  0.00  0.00     0.100 A 
ATOM      7  C   UNL d   1     -37.940  14.822  18.053  0.00  0.00     0.100 A 
ATOM      8  O   UNL d   1     -38.413  15.450  20.398  0.00  0.00    -0.267 OA
ENDROOT
BRANCH   1   9
ATOM      9  C   UNL d   1     -39.807  15.183  20.184  0.00  0.00     0.059 A 
ATOM     10  C   UNL d   1     -40.104  14.473  20.480  0.00  0.00     0.031 A 
ATOM     11  C   UNL d   1     -40.887  14.430  20.769  0.00  0.00     0.119 A 
ATOM     12  O   UNL d   1     -41.335  13.814  21.093  0.00  0.00    -0.300 OA
ATOM     13  C   UNL d   1     -41.372  15.116  20.757  0.00  0.00     0.119 A 
ATOM     14  C   UNL d   1     -42.090  14.111  21.282  0.00  0.00     0.304 A 
ATOM     15  O   UNL d   1     -42.115  14.919  21.074  0.00  0.00    -0.300 OA
ATOM     16  C   UNL d   1     -41.065  15.834  20.456  0.00  0.00     0.026 A 
ATOM     17  C   UNL d   1     -40.291  15.869  20.172  0.00  0.00     0.007 A 
ENDBRANCH   1   9
BRANCH   3  18
ATOM     18  C   UNL d   1     -38.399  14.375  16.770  0.00  0.00     0.064 A 
ATOM     19  C   UNL d   1     -38.302  14.964  16.204  0.00  0.00     0.018 A 
ATOM     20  C   UNL d   1     -38.149  14.749  15.428  0.00  0.00     0.013 A 
ATOM     21  C   UNL d   1     -38.093  13.953  15.219  0.00  0.00     0.058 A 
ATOM     22  C   UNL d   1     -38.192  13.369  15.796  0.00  0.00     0.013 A 
ATOM     23 CL   UNL d   1     -37.940  13.743  14.436  0.00  0.00    -0.082 Cl
ATOM     24  C   UNL d   1     -38.344  13.585  16.568  0.00  0.00     0.018 A 
ENDBRANCH   3  18
TORSDOF 2
ENDMDL
MODEL 7
REMARK VINA RESULT:      -5.3      8.899     10.025
REMARK  2 active torsions:
REMARK  status: ('A' for Active; 'I' for Inactive)
REMARK       I    between atoms: N_2  and  C_1 
REMARK    1  A    between atoms: C_4  and  C_1 
REMARK    2  A    between atoms: C_7  and  N_3 
ROOT
ATOM      1  C   UNL d   1     -38.369  13.475  20.133  0.00  0.00     0.265 C 
ATOM      2  N   UNL d   1     -38.844  13.824  19.559  0.00  0.00    -0.269 N 
ATOM      3  N   UNL d   1     -39.796  14.521  18.402  0.00  0.00    -0.301 N 
ATOM      4  C   UNL d   1     -38.889  13.484  18.803  0.00  0.00     0.102 A 
ATOM      5  C   UNL d   1     -39.271  14.507  19.738  0.00  0.00     0.102 A 
ATOM      6  C   UNL d   1     -39.744  14.853  19.163  0.00  0.00     0.100 A 
ATOM      7  C   UNL d   1     -39.366  13.837  18.230  0.00  0.00     0.100 A 
ATOM      8  O   UNL d   1     -37.940  12.791  19.958  0.00  0.00    -0.267 OA
ENDROOT
BRANCH   1   9
ATOM      9  C   UNL d   1     -38.324  13.814  20.889  0.00  0.00     0.059 A 
ATOM     10  C   UNL d   1     -38.568  13.377  21.544  0.00  0.00     0.031 A 
ATOM     11  C   UNL d   1     -38.527  13.707  22.311  0.00  0.00     0.119 A 
ATOM     12  O   UNL d   1     -38.726  13.416  23.060  0.00  0.00    -0.300 OA
ATOM     13  C   UNL d   1     -38.235  14.488  22.412  0.00  0.00     0.119 A 
ATOM     14  C   UNL d   1     -38.560  14.008  23.623  0.00  0.00     0.304 A 
ATOM     15  O   UNL d   1     -38.255  14.674  23.222  0.00  0.00    -0.300 OA
ATOM     16  C   UNL d   1     -37.989  14.926  21.743  0.00  0.00     0.026 A 
ATOM     17  C   UNL d   1     -38.031  14.595  20.989  0.00  0.00     0.007 A 
ENDBRANCH   1   9
BRANCH   3  18
ATOM     18  C   UNL d   1     -40.273  14.873  17.828  0.00  0.00     0.064 A 
ATOM     19  C   UNL d   1     -41.041  15.097  18.022  0.00  0.00     0.018 A 
ATOM     20  C   UNL d   1     -41.510  15.446  17.447  0.00  0.00     0.013 A 
ATOM     21  C   UNL d   1     -41.216  15.570  16.687  0.00  0.00     0.058 A 
ATOM     22  C   UNL d   1     -40.442  15.341  16.504  0.00  0.00     0.013 A 
ATOM     23 CL   UNL d   1     -41.692  15.922  16.113  0.00  0.00    -0.082 Cl
ATOM     24  C   UNL d   1     -39.977  14.993  17.076  0.00  0.00     0.018 A 
ENDBRANCH   3  18
TORSDOF 2
ENDMDL
MODEL 8
REMARK VINA RESULT:      -5.3      2.725      5.247
REMARK  2 active torsions:
REMARK  status: ('A' for Active; 'I' for Inactive)
REMARK       I    between atoms: N_2  and  C_1 
REMARK    1  A    between atoms: C_4  and  C_1 
REMARK    2  A    between atoms: C_7  and  N_3 
ROOT
ATOM      1  C   UNL d   1     -47.483  11.408  23.383  0.00  0.00     0.265 C 
ATOM      2  N   UNL d   1     -47.995  12.052  23.384  0.00  0.00    -0.269 N 
ATOM      3  N   UNL d   1     -49.026  13.343  23.385  0.00  0.00    -0.301 N 
ATOM      4  C   UNL d   1     -48.801  11.934  23.537  0.00  0.00     0.102 A 
ATOM      5  C   UNL d   1     -47.702  12.809  23.231  0.00  0.00     0.102 A 
ATOM      6  C   UNL d   1     -48.215  13.450  23.232  0.00  0.00     0.100 A 
ATOM      7  C   UNL d   1     -49.311  12.583  23.537  0.00  0.00     0.100 A 
ATOM      8  O   UNL d   1     -47.771  10.648  23.535  0.00  0.00    -0.267 OA
ENDROOT
BRANCH   1   9
ATOM      9  C   UNL d   1     -46.677  11.524  23.229  0.00  0.00     0.059 A 
ATOM     10  C   UNL d   1     -46.126  10.988  23.527  0.00  0.00     0.031 A 
ATOM     11  C   UNL d   1     -45.310  11.094  23.379  0.00  0.00     0.119 A 
ATOM     12  O   UNL d   1     -44.637  10.663  23.597  0.00  0.00    -0.300 OA
ATOM     13  C   UNL d   1     -45.053  11.752  22.925  0.00  0.00     0.119 A 
ATOM     14  C   UNL d   1     -43.968  11.047  23.282  0.00  0.00     0.304 A 
ATOM     15  O   UNL d   1     -44.224  11.723  22.864  0.00  0.00    -0.300 OA
ATOM     16  C   UNL d   1     -45.616  12.293  22.625  0.00  0.00     0.026 A 
ATOM     17  C   UNL d   1     -46.420  12.182  22.775  0.00  0.00     0.007 A 
ENDBRANCH   1   9
BRANCH   3  18
ATOM     18  C   UNL d   1     -49.536  13.991  23.385  0.00  0.00     0.064 A 
ATOM     19  C   UNL d   1     -49.230  14.748  23.283  0.00  0.00     0.018 A 
ATOM     20  C   UNL d   1     -49.743  15.389  23.284  0.00  0.00     0.013 A 
ATOM     21  C   UNL d   1     -50.553  15.274  23.385  0.00  0.00     0.058 A 
ATOM     22  C   UNL d   1     -50.850  14.508  23.487  0.00  0.00     0.013 A 
ATOM     23 CL   UNL d   1     -51.064  15.921  23.385  0.00  0.00    -0.082 Cl
ATOM     24  C   UNL d   1     -50.339  13.873  23.486  0.00  0.00     0.018 A 
ENDBRANCH   3  18
TORSDOF 2
ENDMDL
MODEL 9
REMARK VINA RESULT:      -5.2      2.617      5.144
REMARK  2 active torsions:
REMARK  status: ('A' for Active; 'I' for Inactive)
REMARK       I    between atoms: N_2  and  C_1 
REMARK    1  A    between atoms: C_4  and  C_1 
REMARK    2  A    between atoms: C_7  and  N_3 
ROOT
ATOM      1  C   UNL d   1     -46.332  12.267  23.156  0.00  0.00     0.265 C 
ATOM      2  N   UNL d   1     -47.008  12.731  23.095  0.00  0.00    -0.269 N 
ATOM      3  N   UNL d   1     -48.368  13.662  22.975  0.00  0.00    -0.301 N 
ATOM      4  C   UNL d   1     -47.685  12.529  23.530  0.00  0.00     0.102 A 
ATOM      5  C   UNL d   1     -47.007  13.394  22.602  0.00  0.00     0.102 A 
ATOM      6  C   UNL d   1     -47.684  13.856  22.544  0.00  0.00     0.100 A 
ATOM      7  C   UNL d   1     -48.361  12.998  23.466  0.00  0.00     0.100 A 
ATOM      8  O   UNL d   1     -46.327  11.602  23.648  0.00  0.00    -0.267 OA
ENDROOT
BRANCH   1   9
ATOM      9  C   UNL d   1     -45.655  12.468  22.722  0.00  0.00     0.059 A 
ATOM     10  C   UNL d   1     -44.990  11.982  22.759  0.00  0.00     0.031 A 
ATOM     11  C   UNL d   1     -44.301  12.174  22.326  0.00  0.00     0.119 A 
ATOM     12  O   UNL d   1     -43.563  11.807  22.251  0.00  0.00    -0.300 OA
ATOM     13  C   UNL d   1     -44.289  12.867  21.851  0.00  0.00     0.119 A 
ATOM     14  C   UNL d   1     -43.095  12.265  21.735  0.00  0.00     0.304 A 
ATOM     15  O   UNL d   1     -43.544  12.923  21.486  0.00  0.00    -0.300 OA
ATOM     16  C   UNL d   1     -44.966  13.356  21.818  0.00  0.00     0.026 A 
ATOM     17  C   UNL d   1     -45.643  13.161  22.247  0.00  0.00     0.007 A 
ENDBRANCH   1   9
BRANCH   3  18
ATOM     18  C   UNL d   1     -49.044  14.130  22.912  0.00  0.00     0.064 A 
ATOM     19  C   UNL d   1     -49.068  14.861  23.290  0.00  0.00     0.018 A 
ATOM     20  C   UNL d   1     -49.743  15.322  23.223  0.00  0.00     0.013 A 
ATOM     21  C   UNL d   1     -50.388  15.055  22.783  0.00  0.00     0.058 A 
ATOM     22  C   UNL d   1     -50.353  14.319  22.408  0.00  0.00     0.013 A 
ATOM     23 CL   UNL d   1     -51.064  15.523  22.720  0.00  0.00    -0.082 Cl
ATOM     24  C   UNL d   1     -49.681  13.862  22.475  0.00  0.00     0.018 A 
ENDBRANCH   3  18
TORSDOF 2
ENDMDL
