MODEL 1
REMARK VINA RESULT:      -5.3      0.000      0.000
REMARK  3 active torsions:
REMARK  status: ('A' for Active; 'I' for Inactive)
REMARK    1  A    between atoms: N_2  and  C_1 
REMARK    2  A    between atoms: N_4  and  C_1 
REMARK       I    between atoms: C_3  and  N_2 
REMARK    3  A    between atoms: C_5  and  C_3 
ROOT
ATOM      1  C   UNL d   1     -41.518-122.289 -51.242  0.00  0.00     0.209 C 
ATOM      2  S   UNL d   1     -41.142-121.546 -51.202  0.00  0.00    -0.038 SA
ENDROOT
BRANCH   1   3
ATOM      3  N   UNL d   1     -41.595-122.676 -51.955  0.00  0.00    -0.179 NA
ATOM      4  C   UNL d   1     -41.399-122.295 -52.657  0.00  0.00     0.287 C 
ATOM      5  O   UNL d   1     -41.123-121.515 -52.636  0.00  0.00    -0.265 OA
BRANCH   4   6
ATOM      6  C   UNL d   1     -41.476-122.684 -53.379  0.00  0.00     0.087 A 
ATOM      7  S   UNL d   1     -41.223-123.433 -53.639  0.00  0.00    -0.082 SA
ATOM      8  C   UNL d   1     -41.460-123.526 -54.425  0.00  0.00     0.036 A 
ATOM      9  C   UNL d   1     -41.856-122.842 -54.650  0.00  0.00     0.008 A 
ATOM     10  C   UNL d   1     -41.868-122.318 -54.006  0.00  0.00     0.012 A 
ENDBRANCH   4   6
ENDBRANCH   1   3
BRANCH   1  11
ATOM     11  N   UNL d   1     -41.817-122.638 -50.548  0.00  0.00    -0.281 N 
ATOM     12  C   UNL d   1     -41.329-123.110 -50.073  0.00  0.00     0.082 A 
ATOM     13  C   UNL d   1     -41.623-123.453 -49.391  0.00  0.00     0.019 A 
ATOM     14  C   UNL d   1     -42.413-123.329 -49.169  0.00  0.00     0.003 A 
ATOM     15  C   UNL d   1     -42.894-122.858 -49.646  0.00  0.00     0.019 A 
ATOM     16  C   UNL d   1     -42.720-123.675 -48.475  0.00  0.00     0.000 C 
ATOM     17  C   UNL d   1     -42.599-122.514 -50.331  0.00  0.00     0.082 A 
ENDBRANCH   1  11
TORSDOF 3
ENDMDL
MODEL 2
REMARK VINA RESULT:      -4.0      1.192      4.305
REMARK  3 active torsions:
REMARK  status: ('A' for Active; 'I' for Inactive)
REMARK    1  A    between atoms: N_2  and  C_1 
REMARK    2  A    between atoms: N_4  and  C_1 
REMARK       I    between atoms: C_3  and  N_2 
REMARK    3  A    between atoms: C_5  and  C_3 
ROOT
ATOM      1  C   UNL d   1     -41.477-123.061 -53.291  0.00  0.00     0.209 C 
ATOM      2  S   UNL d   1     -41.125-123.816 -53.302  0.00  0.00    -0.038 SA
ENDROOT
BRANCH   1   3
ATOM      3  N   UNL d   1     -41.631-122.686 -52.583  0.00  0.00    -0.179 NA
ATOM      4  C   UNL d   1     -41.457-123.059 -51.871  0.00  0.00     0.287 C 
ATOM      5  O   UNL d   1     -41.126-123.817 -51.875  0.00  0.00    -0.265 OA
BRANCH   4   6
ATOM      6  C   UNL d   1     -41.611-122.681 -51.154  0.00  0.00     0.087 A 
ATOM      7  S   UNL d   1     -41.215-122.073 -50.748  0.00  0.00    -0.082 SA
ATOM      8  C   UNL d   1     -41.628-121.920 -50.049  0.00  0.00     0.036 A 
ATOM      9  C   UNL d   1     -42.273-122.428 -50.022  0.00  0.00     0.008 A 
ATOM     10  C   UNL d   1     -42.267-122.901 -50.704  0.00  0.00     0.012 A 
ENDBRANCH   4   6
ENDBRANCH   1   3
BRANCH   1  11
ATOM     11  N   UNL d   1     -41.674-122.687 -54.007  0.00  0.00    -0.281 N 
ATOM     12  C   UNL d   1     -42.425-122.353 -54.114  0.00  0.00     0.082 A 
ATOM     13  C   UNL d   1     -42.619-121.986 -54.818  0.00  0.00     0.019 A 
ATOM     14  C   UNL d   1     -42.063-121.944 -55.434  0.00  0.00     0.003 A 
ATOM     15  C   UNL d   1     -41.317-122.278 -55.322  0.00  0.00     0.019 A 
ATOM     16  C   UNL d   1     -42.252-121.571 -56.155  0.00  0.00     0.000 C 
ATOM     17  C   UNL d   1     -41.123-122.647 -54.614  0.00  0.00     0.082 A 
ENDBRANCH   1  11
TORSDOF 3
ENDMDL
MODEL 3
REMARK VINA RESULT:      -3.3      1.044      3.968
REMARK  3 active torsions:
REMARK  status: ('A' for Active; 'I' for Inactive)
REMARK    1  A    between atoms: N_2  and  C_1 
REMARK    2  A    between atoms: N_4  and  C_1 
REMARK       I    between atoms: C_3  and  N_2 
REMARK    3  A    between atoms: C_5  and  C_3 
ROOT
ATOM      1  C   UNL d   1     -41.511-122.031 -52.133  0.00  0.00     0.209 C 
ATOM      2  S   UNL d   1     -41.123-121.332 -51.899  0.00  0.00    -0.038 SA
ENDROOT
BRANCH   1   3
ATOM      3  N   UNL d   1     -41.823-122.538 -51.575  0.00  0.00    -0.179 NA
ATOM      4  C   UNL d   1     -41.833-122.324 -50.781  0.00  0.00     0.287 C 
ATOM      5  O   UNL d   1     -41.525-121.591 -50.550  0.00  0.00    -0.265 OA
BRANCH   4   6
ATOM      6  C   UNL d   1     -42.148-122.834 -50.215  0.00  0.00     0.087 A 
ATOM      7  S   UNL d   1     -41.874-123.553 -49.900  0.00  0.00    -0.082 SA
ATOM      8  C   UNL d   1     -42.426-123.818 -49.345  0.00  0.00     0.036 A 
ATOM      9  C   UNL d   1     -43.036-123.268 -49.317  0.00  0.00     0.008 A 
ATOM     10  C   UNL d   1     -42.868-122.658 -49.854  0.00  0.00     0.012 A 
ENDBRANCH   4   6
ENDBRANCH   1   3
BRANCH   1  11
ATOM     11  N   UNL d   1     -41.581-122.214 -52.941  0.00  0.00    -0.281 N 
ATOM     12  C   UNL d   1     -42.110-121.793 -53.422  0.00  0.00     0.082 A 
ATOM     13  C   UNL d   1     -42.178-121.973 -54.217  0.00  0.00     0.019 A 
ATOM     14  C   UNL d   1     -41.718-122.579 -54.549  0.00  0.00     0.003 A 
ATOM     15  C   UNL d   1     -41.194-122.994 -54.066  0.00  0.00     0.019 A 
ATOM     16  C   UNL d   1     -41.783-122.768 -55.359  0.00  0.00     0.000 C 
ATOM     17  C   UNL d   1     -41.125-122.813 -53.267  0.00  0.00     0.082 A 
ENDBRANCH   1  11
TORSDOF 3
ENDMDL
MODEL 4
REMARK VINA RESULT:      -2.4      1.923      4.446
REMARK  3 active torsions:
REMARK  status: ('A' for Active; 'I' for Inactive)
REMARK    1  A    between atoms: N_2  and  C_1 
REMARK    2  A    between atoms: N_4  and  C_1 
REMARK       I    between atoms: C_3  and  N_2 
REMARK    3  A    between atoms: C_5  and  C_3 
ROOT
ATOM      1  C   UNL d   1     -42.502-122.657 -50.045  0.00  0.00     0.209 C 
ATOM      2  S   UNL d   1     -43.281-122.370 -49.965  0.00  0.00    -0.038 SA
ENDROOT
BRANCH   1   3
ATOM      3  N   UNL d   1     -42.077-122.885 -49.388  0.00  0.00    -0.179 NA
ATOM      4  C   UNL d   1     -42.447-122.953 -48.657  0.00  0.00     0.287 C 
ATOM      5  O   UNL d   1     -43.256-122.788 -48.590  0.00  0.00    -0.265 OA
BRANCH   4   6
ATOM      6  C   UNL d   1     -42.019-123.184 -47.991  0.00  0.00     0.087 A 
ATOM      7  S   UNL d   1     -41.266-123.526 -47.905  0.00  0.00    -0.082 SA
ATOM      8  C   UNL d   1     -41.126-123.637 -47.098  0.00  0.00     0.036 A 
ATOM      9  C   UNL d   1     -41.785-123.366 -46.690  0.00  0.00     0.008 A 
ATOM     10  C   UNL d   1     -42.341-123.086 -47.239  0.00  0.00     0.012 A 
ENDBRANCH   4   6
ENDBRANCH   1   3
BRANCH   1  11
ATOM     11  N   UNL d   1     -42.157-122.710 -50.800  0.00  0.00    -0.281 N 
ATOM     12  C   UNL d   1     -42.165-123.427 -51.215  0.00  0.00     0.082 A 
ATOM     13  C   UNL d   1     -41.825-123.479 -51.957  0.00  0.00     0.019 A 
ATOM     14  C   UNL d   1     -41.470-122.812 -52.301  0.00  0.00     0.003 A 
ATOM     15  C   UNL d   1     -41.466-122.101 -51.884  0.00  0.00     0.019 A 
ATOM     16  C   UNL d   1     -41.123-122.858 -53.057  0.00  0.00     0.000 C 
ATOM     17  C   UNL d   1     -41.807-122.049 -51.138  0.00  0.00     0.082 A 
ENDBRANCH   1  11
TORSDOF 3
ENDMDL
