MODEL 1
REMARK VINA RESULT:      56.2      0.000      0.000
REMARK  4 active torsions:
REMARK  status: ('A' for Active; 'I' for Inactive)
REMARK    1  A    between atoms: N_7  and  C_1 
REMARK    2  A    between atoms: C_12  and  N_4 
REMARK    3  A    between atoms: S_6  and  N_7 
REMARK    4  A    between atoms: C_11  and  S_6 
ROOT
ATOM      1  C   UNL d   1     -58.409 -98.967 -44.680  0.00  0.00     0.169 A 
ATOM      2  C   UNL d   1     -57.634 -99.063 -44.965  0.00  0.00     0.299 A 
ATOM      3  N   UNL d   1     -57.621 -99.289 -43.649  0.00  0.00    -0.238 N 
ATOM      4  N   UNL d   1     -57.153 -99.258 -44.340  0.00  0.00    -0.209 N 
ATOM      5  C   UNL d   1     -58.415 -99.098 -43.903  0.00  0.00     0.105 A 
ATOM      6  O   UNL d   1     -57.396 -98.970 -45.771  0.00  0.00    -0.263 OA
ATOM      7  C   UNL d   1     -57.365 -99.465 -42.891  0.00  0.00     0.120 C 
ATOM      8  C   UNL d   1     -59.105 -99.054 -43.405  0.00  0.00     0.022 C 
ENDROOT
BRANCH   1   9
ATOM      9  N   UNL d   1     -59.104 -98.759 -45.143  0.00  0.00    -0.152 NA
BRANCH   9  10
ATOM     10  S   UNL d   1     -59.101 -98.819 -45.964  0.00  0.00     0.285 S 
ATOM     11  O   UNL d   1     -58.280 -98.872 -45.958  0.00  0.00    -0.198 OA
ATOM     12  O   UNL d   1     -59.955 -98.765 -45.968  0.00  0.00    -0.198 OA
BRANCH  10  13
ATOM     13  C   UNL d   1     -59.109 -98.879 -46.785  0.00  0.00     0.105 A 
ATOM     14  C   UNL d   1     -58.404 -98.808 -47.219  0.00  0.00     0.013 A 
ATOM     15  C   UNL d   1     -58.402 -98.867 -48.051  0.00  0.00     0.001 A 
ATOM     16  C   UNL d   1     -59.110 -98.997 -48.433  0.00  0.00     0.000 A 
ATOM     17  C   UNL d   1     -59.836 -99.072 -47.996  0.00  0.00     0.001 A 
ATOM     18  C   UNL d   1     -59.835 -99.014 -47.196  0.00  0.00     0.013 A 
ENDBRANCH  10  13
ENDBRANCH   9  10
ENDBRANCH   1   9
BRANCH   4  19
ATOM     19  C   UNL d   1     -56.341 -99.400 -44.398  0.00  0.00     0.085 A 
ATOM     20  C   UNL d   1     -55.800 -98.777 -44.383  0.00  0.00     0.019 A 
ATOM     21  C   UNL d   1     -54.985 -98.921 -44.441  0.00  0.00     0.002 A 
ATOM     22  C   UNL d   1     -54.712 -99.680 -44.514  0.00  0.00     0.000 A 
ATOM     23  C   UNL d   1     -55.250-100.299 -44.528  0.00  0.00     0.002 A 
ATOM     24  C   UNL d   1     -56.059-100.164 -44.471  0.00  0.00     0.019 A 
ENDBRANCH   4  19
TORSDOF 4
ENDMDL
MODEL 2
REMARK VINA RESULT:      58.1      2.657      5.168
REMARK  4 active torsions:
REMARK  status: ('A' for Active; 'I' for Inactive)
REMARK    1  A    between atoms: N_7  and  C_1 
REMARK    2  A    between atoms: C_12  and  N_4 
REMARK    3  A    between atoms: S_6  and  N_7 
REMARK    4  A    between atoms: C_11  and  S_6 
ROOT
ATOM      1  C   UNL d   1     -55.752-100.578 -44.042  0.00  0.00     0.169 A 
ATOM      2  C   UNL d   1     -56.537-100.436 -43.808  0.00  0.00     0.299 A 
ATOM      3  N   UNL d   1     -56.165 -99.449 -44.628  0.00  0.00    -0.238 N 
ATOM      4  N   UNL d   1     -56.790 -99.750 -44.163  0.00  0.00    -0.209 N 
ATOM      5  C   UNL d   1     -55.520-100.002 -44.527  0.00  0.00     0.105 A 
ATOM      6  O   UNL d   1     -56.987-100.927 -43.288  0.00  0.00    -0.263 OA
ATOM      7  C   UNL d   1     -56.176 -98.767 -45.081  0.00  0.00     0.120 C 
ATOM      8  C   UNL d   1     -54.750 -99.947 -44.888  0.00  0.00     0.022 C 
ENDROOT
BRANCH   1   9
ATOM      9  N   UNL d   1     -55.257-101.242 -43.804  0.00  0.00    -0.152 NA
BRANCH   9  10
ATOM     10  S   UNL d   1     -55.172-101.444 -43.011  0.00  0.00     0.285 S 
ATOM     11  O   UNL d   1     -55.503-102.182 -43.163  0.00  0.00    -0.198 OA
ATOM     12  O   UNL d   1     -54.829-100.676 -42.855  0.00  0.00    -0.198 OA
BRANCH  10  13
ATOM     13  C   UNL d   1     -55.082-101.636 -42.216  0.00  0.00     0.105 A 
ATOM     14  C   UNL d   1     -54.813-101.066 -41.674  0.00  0.00     0.013 A 
ATOM     15  C   UNL d   1     -54.719-101.251 -40.866  0.00  0.00     0.001 A 
ATOM     16  C   UNL d   1     -54.897-102.005 -40.616  0.00  0.00     0.000 A 
ATOM     17  C   UNL d   1     -55.173-102.594 -41.164  0.00  0.00     0.001 A 
ATOM     18  C   UNL d   1     -55.263-102.414 -41.941  0.00  0.00     0.013 A 
ENDBRANCH  10  13
ENDBRANCH   9  10
ENDBRANCH   1   9
BRANCH   4  19
ATOM     19  C   UNL d   1     -57.542 -99.421 -44.067  0.00  0.00     0.085 A 
ATOM     20  C   UNL d   1     -57.916 -99.425 -43.332  0.00  0.00     0.019 A 
ATOM     21  C   UNL d   1     -58.672 -99.094 -43.238  0.00  0.00     0.002 A 
ATOM     22  C   UNL d   1     -59.050 -98.763 -43.873  0.00  0.00     0.000 A 
ATOM     23  C   UNL d   1     -58.678 -98.760 -44.603  0.00  0.00     0.002 A 
ATOM     24  C   UNL d   1     -57.930 -99.086 -44.705  0.00  0.00     0.019 A 
ENDBRANCH   4  19
TORSDOF 4
ENDMDL
