MODEL 1
REMARK VINA RESULT:      -7.8      0.000      0.000
REMARK  3 active torsions:
REMARK  status: ('A' for Active; 'I' for Inactive)
REMARK    1  A    between atoms: C_6  and  C_2 
REMARK       I    between atoms: N_8  and  C_6 
REMARK    2  A    between atoms: C_14  and  N_8 
REMARK    3  A    between atoms: C_15  and  C_14 
ROOT
ATOM      1  N   UNL d   1      53.623  33.277  54.409  0.00  0.00    -0.252 N 
ATOM      2  C   UNL d   1      53.329  32.419  53.310  0.00  0.00     0.133 A 
ATOM      3  C   UNL d   1      53.075  32.927  53.906  0.00  0.00     0.272 A 
ATOM      4  C   UNL d   1      54.428  33.120  54.316  0.00  0.00     0.182 A 
ATOM      5  N   UNL d   1      54.684  32.612  53.721  0.00  0.00    -0.220 NA
ATOM      6  C   UNL d   1      54.134  32.262  53.217  0.00  0.00     0.111 A 
ATOM      7  S   UNL d   1      54.843  33.545  54.895  0.00  0.00    -0.048 SA
ATOM      8  O   UNL d   1      52.270  33.085  53.998  0.00  0.00    -0.266 OA
ATOM      9  C   UNL d   1      53.542  33.799  55.045  0.00  0.00     0.092 A 
ATOM     10  C   UNL d   1      54.296  33.960  55.339  0.00  0.00     0.057 A 
ENDROOT
BRANCH   2  11
ATOM     11  C   UNL d   1      52.778  32.061  52.797  0.00  0.00     0.285 C 
ATOM     12  N   UNL d   1      52.739  31.237  52.744  0.00  0.00    -0.208 NA
ATOM     13  O   UNL d   1      52.274  32.534  52.345  0.00  0.00    -0.265 OA
BRANCH  12  14
ATOM     14  C   UNL d   1      53.245  30.767  53.198  0.00  0.00     0.085 C 
ATOM     15  C   UNL d   1      54.041  30.681  52.978  0.00  0.00     0.021 C 
BRANCH  14  16
ATOM     16  C   UNL d   1      52.957  30.385  53.867  0.00  0.00     0.019 C 
ATOM     17  C   UNL d   1      53.005  29.560  53.927  0.00  0.00     0.002 C 
ENDBRANCH  14  16
ENDBRANCH  12  14
ENDBRANCH   2  11
TORSDOF 3
ENDMDL
MODEL 2
REMARK VINA RESULT:      -7.5      1.356      2.120
REMARK  3 active torsions:
REMARK  status: ('A' for Active; 'I' for Inactive)
REMARK    1  A    between atoms: C_6  and  C_2 
REMARK       I    between atoms: N_8  and  C_6 
REMARK    2  A    between atoms: C_14  and  N_8 
REMARK    3  A    between atoms: C_15  and  C_14 
ROOT
ATOM      1  N   UNL d   1      53.872  32.763  54.548  0.00  0.00    -0.252 N 
ATOM      2  C   UNL d   1      53.209  32.678  53.290  0.00  0.00     0.133 A 
ATOM      3  C   UNL d   1      53.386  32.353  54.025  0.00  0.00     0.272 A 
ATOM      4  C   UNL d   1      54.182  33.497  54.335  0.00  0.00     0.182 A 
ATOM      5  N   UNL d   1      54.005  33.823  53.600  0.00  0.00    -0.220 NA
ATOM      6  C   UNL d   1      53.518  33.412  53.077  0.00  0.00     0.111 A 
ATOM      7  S   UNL d   1      54.646  33.775  54.964  0.00  0.00    -0.048 SA
ATOM      8  O   UNL d   1      53.077  31.619  54.238  0.00  0.00    -0.266 OA
ATOM      9  C   UNL d   1      54.145  32.587  55.308  0.00  0.00     0.092 A 
ATOM     10  C   UNL d   1      54.620  33.213  55.558  0.00  0.00     0.057 A 
ENDROOT
BRANCH   2  11
ATOM     11  C   UNL d   1      52.717  32.268  52.756  0.00  0.00     0.285 C 
ATOM     12  N   UNL d   1      52.014  32.615  52.494  0.00  0.00    -0.208 NA
ATOM     13  O   UNL d   1      52.937  31.517  52.492  0.00  0.00    -0.265 OA
BRANCH  12  14
ATOM     14  C   UNL d   1      51.797  33.366  52.760  0.00  0.00     0.085 C 
ATOM     15  C   UNL d   1      52.156  34.041  52.436  0.00  0.00     0.021 C 
BRANCH  14  16
ATOM     16  C   UNL d   1      51.224  33.443  53.345  0.00  0.00     0.019 C 
ATOM     17  C   UNL d   1      50.529  33.869  53.193  0.00  0.00     0.002 C 
ENDBRANCH  14  16
ENDBRANCH  12  14
ENDBRANCH   2  11
TORSDOF 3
ENDMDL
MODEL 3
REMARK VINA RESULT:      -7.5      1.846      2.623
REMARK  3 active torsions:
REMARK  status: ('A' for Active; 'I' for Inactive)
REMARK    1  A    between atoms: C_6  and  C_2 
REMARK       I    between atoms: N_8  and  C_6 
REMARK    2  A    between atoms: C_14  and  N_8 
REMARK    3  A    between atoms: C_15  and  C_14 
ROOT
ATOM      1  N   UNL d   1      51.506  33.221  53.079  0.00  0.00    -0.252 N 
ATOM      2  C   UNL d   1      52.763  32.553  53.015  0.00  0.00     0.133 A 
ATOM      3  C   UNL d   1      51.955  32.538  53.172  0.00  0.00     0.272 A 
ATOM      4  C   UNL d   1      51.865  33.921  52.830  0.00  0.00     0.182 A 
ATOM      5  N   UNL d   1      52.673  33.937  52.674  0.00  0.00    -0.220 NA
ATOM      6  C   UNL d   1      53.122  33.252  52.767  0.00  0.00     0.111 A 
ATOM      7  S   UNL d   1      51.283  34.510  52.787  0.00  0.00    -0.048 SA
ATOM      8  O   UNL d   1      51.595  31.838  53.420  0.00  0.00    -0.266 OA
ATOM      9  C   UNL d   1      50.702  33.378  53.190  0.00  0.00     0.092 A 
ATOM     10  C   UNL d   1      50.572  34.172  53.009  0.00  0.00     0.057 A 
ENDROOT
BRANCH   2  11
ATOM     11  C   UNL d   1      53.223  31.863  53.107  0.00  0.00     0.285 C 
ATOM     12  N   UNL d   1      53.871  31.866  53.620  0.00  0.00    -0.208 NA
ATOM     13  O   UNL d   1      53.027  31.183  52.684  0.00  0.00    -0.265 OA
BRANCH  12  14
ATOM     14  C   UNL d   1      54.065  32.549  54.043  0.00  0.00     0.085 C 
ATOM     15  C   UNL d   1      54.497  33.156  53.676  0.00  0.00     0.021 C 
BRANCH  14  16
ATOM     16  C   UNL d   1      53.827  32.626  54.826  0.00  0.00     0.019 C 
ATOM     17  C   UNL d   1      54.371  32.870  55.403  0.00  0.00     0.002 C 
ENDBRANCH  14  16
ENDBRANCH  12  14
ENDBRANCH   2  11
TORSDOF 3
ENDMDL
MODEL 4
REMARK VINA RESULT:      -7.1      1.277      2.969
REMARK  3 active torsions:
REMARK  status: ('A' for Active; 'I' for Inactive)
REMARK    1  A    between atoms: C_6  and  C_2 
REMARK       I    between atoms: N_8  and  C_6 
REMARK    2  A    between atoms: C_14  and  N_8 
REMARK    3  A    between atoms: C_15  and  C_14 
ROOT
ATOM      1  N   UNL d   1      53.005  31.097  53.176  0.00  0.00    -0.252 N 
ATOM      2  C   UNL d   1      53.127  32.380  53.783  0.00  0.00     0.133 A 
ATOM      3  C   UNL d   1      52.922  31.914  53.135  0.00  0.00     0.272 A 
ATOM      4  C   UNL d   1      53.292  30.744  53.864  0.00  0.00     0.182 A 
ATOM      5  N   UNL d   1      53.497  31.209  54.512  0.00  0.00    -0.220 NA
ATOM      6  C   UNL d   1      53.414  32.028  54.471  0.00  0.00     0.111 A 
ATOM      7  S   UNL d   1      53.314  29.924  53.745  0.00  0.00    -0.048 SA
ATOM      8  O   UNL d   1      52.635  32.267  52.447  0.00  0.00    -0.266 OA
ATOM      9  C   UNL d   1      52.850  30.494  52.632  0.00  0.00     0.092 A 
ATOM     10  C   UNL d   1      53.043  29.776  52.988  0.00  0.00     0.057 A 
ENDROOT
BRANCH   2  11
ATOM     11  C   UNL d   1      53.046  33.210  53.748  0.00  0.00     0.285 C 
ATOM     12  N   UNL d   1      53.694  33.694  53.917  0.00  0.00    -0.208 NA
ATOM     13  O   UNL d   1      52.318  33.540  53.544  0.00  0.00    -0.265 OA
BRANCH  12  14
ATOM     14  C   UNL d   1      54.421  33.360  54.121  0.00  0.00     0.085 C 
ATOM     15  C   UNL d   1      54.916  33.050  53.530  0.00  0.00     0.021 C 
BRANCH  14  16
ATOM     16  C   UNL d   1      54.653  33.336  54.910  0.00  0.00     0.019 C 
ATOM     17  C   UNL d   1      55.277  33.815  55.174  0.00  0.00     0.002 C 
ENDBRANCH  14  16
ENDBRANCH  12  14
ENDBRANCH   2  11
TORSDOF 3
ENDMDL
MODEL 5
REMARK VINA RESULT:      -7.0      1.933      2.956
REMARK  3 active torsions:
REMARK  status: ('A' for Active; 'I' for Inactive)
REMARK    1  A    between atoms: C_6  and  C_2 
REMARK       I    between atoms: N_8  and  C_6 
REMARK    2  A    between atoms: C_14  and  N_8 
REMARK    3  A    between atoms: C_15  and  C_14 
ROOT
ATOM      1  N   UNL d   1      53.536  33.026  54.401  0.00  0.00    -0.252 N 
ATOM      2  C   UNL d   1      53.066  34.191  53.727  0.00  0.00     0.133 A 
ATOM      3  C   UNL d   1      53.229  33.789  54.427  0.00  0.00     0.272 A 
ATOM      4  C   UNL d   1      53.681  32.664  53.674  0.00  0.00     0.182 A 
ATOM      5  N   UNL d   1      53.518  33.064  52.973  0.00  0.00    -0.220 NA
ATOM      6  C   UNL d   1      53.211  33.828  53.000  0.00  0.00     0.111 A 
ATOM      7  S   UNL d   1      53.986  31.906  53.818  0.00  0.00    -0.048 SA
ATOM      8  O   UNL d   1      53.084  34.151  55.154  0.00  0.00    -0.266 OA
ATOM      9  C   UNL d   1      53.751  32.492  54.994  0.00  0.00     0.092 A 
ATOM     10  C   UNL d   1      54.027  31.806  54.629  0.00  0.00     0.057 A 
ENDROOT
BRANCH   2  11
ATOM     11  C   UNL d   1      52.755  34.964  53.747  0.00  0.00     0.285 C 
ATOM     12  N   UNL d   1      52.042  35.131  53.363  0.00  0.00    -0.208 NA
ATOM     13  O   UNL d   1      53.163  35.557  54.150  0.00  0.00    -0.265 OA
BRANCH  12  14
ATOM     14  C   UNL d   1      51.637  34.534  52.961  0.00  0.00     0.085 C 
ATOM     15  C   UNL d   1      51.891  34.295  52.207  0.00  0.00     0.021 C 
BRANCH  14  16
ATOM     16  C   UNL d   1      50.981  34.179  53.308  0.00  0.00     0.019 C 
ATOM     17  C   UNL d   1      50.239  34.230  52.942  0.00  0.00     0.002 C 
ENDBRANCH  14  16
ENDBRANCH  12  14
ENDBRANCH   2  11
TORSDOF 3
ENDMDL
MODEL 6
REMARK VINA RESULT:      -6.9      1.664      3.009
REMARK  3 active torsions:
REMARK  status: ('A' for Active; 'I' for Inactive)
REMARK    1  A    between atoms: C_6  and  C_2 
REMARK       I    between atoms: N_8  and  C_6 
REMARK    2  A    between atoms: C_14  and  N_8 
REMARK    3  A    between atoms: C_15  and  C_14 
ROOT
ATOM      1  N   UNL d   1      53.299  31.279  53.767  0.00  0.00    -0.252 N 
ATOM      2  C   UNL d   1      53.244  32.661  53.422  0.00  0.00     0.133 A 
ATOM      3  C   UNL d   1      53.413  32.068  53.969  0.00  0.00     0.272 A 
ATOM      4  C   UNL d   1      53.016  31.081  53.018  0.00  0.00     0.182 A 
ATOM      5  N   UNL d   1      52.847  31.672  52.471  0.00  0.00    -0.220 NA
ATOM      6  C   UNL d   1      52.961  32.462  52.673  0.00  0.00     0.111 A 
ATOM      7  S   UNL d   1      52.958  30.254  52.973  0.00  0.00    -0.048 SA
ATOM      8  O   UNL d   1      53.695  32.267  54.718  0.00  0.00    -0.266 OA
ATOM      9  C   UNL d   1      53.415  30.575  54.185  0.00  0.00     0.092 A 
ATOM     10  C   UNL d   1      53.204  29.949  53.691  0.00  0.00     0.057 A 
ENDROOT
BRANCH   2  11
ATOM     11  C   UNL d   1      53.357  33.462  53.621  0.00  0.00     0.285 C 
ATOM     12  N   UNL d   1      52.751  34.009  53.489  0.00  0.00    -0.208 NA
ATOM     13  O   UNL d   1      54.075  33.704  53.948  0.00  0.00    -0.265 OA
BRANCH  12  14
ATOM     14  C   UNL d   1      52.033  33.763  53.161  0.00  0.00     0.085 C 
ATOM     15  C   UNL d   1      51.964  33.664  52.340  0.00  0.00     0.021 C 
BRANCH  14  16
ATOM     16  C   UNL d   1      51.389  33.617  53.651  0.00  0.00     0.019 C 
ATOM     17  C   UNL d   1      50.664  33.993  53.507  0.00  0.00     0.002 C 
ENDBRANCH  14  16
ENDBRANCH  12  14
ENDBRANCH   2  11
TORSDOF 3
ENDMDL
MODEL 7
REMARK VINA RESULT:      -6.8      1.633      3.282
REMARK  3 active torsions:
REMARK  status: ('A' for Active; 'I' for Inactive)
REMARK    1  A    between atoms: C_6  and  C_2 
REMARK       I    between atoms: N_8  and  C_6 
REMARK    2  A    between atoms: C_14  and  N_8 
REMARK    3  A    between atoms: C_15  and  C_14 
ROOT
ATOM      1  N   UNL d   1      53.676  31.826  54.237  0.00  0.00    -0.252 N 
ATOM      2  C   UNL d   1      54.275  33.112  54.375  0.00  0.00     0.133 A 
ATOM      3  C   UNL d   1      53.980  32.422  54.715  0.00  0.00     0.272 A 
ATOM      4  C   UNL d   1      53.665  31.918  53.418  0.00  0.00     0.182 A 
ATOM      5  N   UNL d   1      53.959  32.607  53.076  0.00  0.00    -0.220 NA
ATOM      6  C   UNL d   1      54.264  33.204  53.555  0.00  0.00     0.111 A 
ATOM      7  S   UNL d   1      53.330  31.237  53.084  0.00  0.00    -0.048 SA
ATOM      8  O   UNL d   1      53.991  32.329  55.535  0.00  0.00    -0.266 OA
ATOM      9  C   UNL d   1      53.348  31.087  54.410  0.00  0.00     0.092 A 
ATOM     10  C   UNL d   1      53.138  30.730  53.697  0.00  0.00     0.057 A 
ENDROOT
BRANCH   2  11
ATOM     11  C   UNL d   1      54.585  33.719  54.854  0.00  0.00     0.285 C 
ATOM     12  N   UNL d   1      54.236  34.469  54.845  0.00  0.00    -0.208 NA
ATOM     13  O   UNL d   1      55.238  33.567  55.334  0.00  0.00    -0.265 OA
BRANCH  12  14
ATOM     14  C   UNL d   1      53.582  34.618  54.363  0.00  0.00     0.085 C 
ATOM     15  C   UNL d   1      53.683  34.722  53.546  0.00  0.00     0.021 C 
BRANCH  14  16
ATOM     16  C   UNL d   1      52.831  34.662  54.697  0.00  0.00     0.019 C 
ATOM     17  C   UNL d   1      52.402  35.370  54.661  0.00  0.00     0.002 C 
ENDBRANCH  14  16
ENDBRANCH  12  14
ENDBRANCH   2  11
TORSDOF 3
ENDMDL
MODEL 8
REMARK VINA RESULT:      -6.7      2.275      3.221
REMARK  3 active torsions:
REMARK  status: ('A' for Active; 'I' for Inactive)
REMARK    1  A    between atoms: C_6  and  C_2 
REMARK       I    between atoms: N_8  and  C_6 
REMARK    2  A    between atoms: C_14  and  N_8 
REMARK    3  A    between atoms: C_15  and  C_14 
ROOT
ATOM      1  N   UNL d   1      52.071  34.383  53.196  0.00  0.00    -0.252 N 
ATOM      2  C   UNL d   1      52.904  34.185  54.335  0.00  0.00     0.133 A 
ATOM      3  C   UNL d   1      52.649  34.659  53.712  0.00  0.00     0.272 A 
ATOM      4  C   UNL d   1      51.748  33.631  53.301  0.00  0.00     0.182 A 
ATOM      5  N   UNL d   1      52.003  33.156  53.923  0.00  0.00    -0.220 NA
ATOM      6  C   UNL d   1      52.581  33.433  54.440  0.00  0.00     0.111 A 
ATOM      7  S   UNL d   1      51.186  33.504  52.705  0.00  0.00    -0.048 SA
ATOM      8  O   UNL d   1      52.971  35.411  53.607  0.00  0.00    -0.266 OA
ATOM      9  C   UNL d   1      51.708  34.720  52.534  0.00  0.00     0.092 A 
ATOM     10  C   UNL d   1      51.166  34.175  52.237  0.00  0.00     0.057 A 
ENDROOT
BRANCH   2  11
ATOM     11  C   UNL d   1      53.489  34.460  54.862  0.00  0.00     0.285 C 
ATOM     12  N   UNL d   1      54.199  34.044  54.941  0.00  0.00    -0.208 NA
ATOM     13  O   UNL d   1      53.354  35.146  55.299  0.00  0.00    -0.265 OA
BRANCH  12  14
ATOM     14  C   UNL d   1      54.331  33.357  54.501  0.00  0.00     0.085 C 
ATOM     15  C   UNL d   1      54.048  32.627  54.776  0.00  0.00     0.021 C 
BRANCH  14  16
ATOM     16  C   UNL d   1      54.744  33.401  53.791  0.00  0.00     0.019 C 
ATOM     17  C   UNL d   1      55.418  32.932  53.673  0.00  0.00     0.002 C 
ENDBRANCH  14  16
ENDBRANCH  12  14
ENDBRANCH   2  11
TORSDOF 3
ENDMDL
