MODEL 1
REMARK VINA RESULT:      43.4      0.000      0.000
REMARK  1 active torsions:
REMARK  status: ('A' for Active; 'I' for Inactive)
REMARK    1  A    between atoms: C_10  and  N_2 
ROOT
ATOM      1  C   UNL d   1      58.516  49.544  50.878  0.00  0.00     0.174 A 
ATOM      2  N   UNL d   1      59.939  49.600  50.948  0.00  0.00    -0.224 N 
ATOM      3  C   UNL d   1      59.207  49.558  51.321  0.00  0.00     0.292 A 
ATOM      4  C   UNL d   1      58.551  49.573  50.063  0.00  0.00     0.115 A 
ATOM      5  C   UNL d   1      59.980  49.629  50.133  0.00  0.00     0.356 A 
ATOM      6  N   UNL d   1      59.282  49.615  49.690  0.00  0.00    -0.190 NA
ATOM      7  O   UNL d   1      57.717  49.504  51.101  0.00  0.00    -0.301 OA
ATOM      8  C   UNL d   1      57.775  49.550  49.770  0.00  0.00     0.043 A 
ATOM      9  C   UNL d   1      57.259  49.508  50.412  0.00  0.00     0.102 A 
ATOM     10  O   UNL d   1      59.175  49.529  52.160  0.00  0.00    -0.264 OA
ATOM     11  O   UNL d   1      60.719  49.672  49.750  0.00  0.00    -0.244 OA
ATOM     12  C   UNL d   1      57.485  49.564  49.007  0.00  0.00     0.004 A 
ATOM     13  C   UNL d   1      56.453  49.479  50.292  0.00  0.00     0.025 A 
ATOM     14  C   UNL d   1      56.665  49.534  48.877  0.00  0.00     0.000 A 
ATOM     15  C   UNL d   1      56.149  49.492  49.520  0.00  0.00     0.002 A 
ENDROOT
BRANCH   2  16
ATOM     16  C   UNL d   1      60.636  49.614  51.397  0.00  0.00     0.071 A 
ATOM     17  C   UNL d   1      61.369  49.559  51.028  0.00  0.00     0.018 A 
ATOM     18  C   UNL d   1      62.060  49.573  51.477  0.00  0.00     0.002 A 
ATOM     19  C   UNL d   1      62.015  49.642  52.297  0.00  0.00     0.000 A 
ATOM     20  C   UNL d   1      61.288  49.698  52.672  0.00  0.00     0.002 A 
ATOM     21  C   UNL d   1      62.709  49.657  52.749  0.00  0.00     0.000 C 
ATOM     22  C   UNL d   1      60.595  49.683  52.217  0.00  0.00     0.018 A 
ENDBRANCH   2  16
TORSDOF 1
ENDMDL
