MODEL 1
REMARK VINA RESULT:      -3.7      0.000      0.000
REMARK  3 active torsions:
REMARK  status: ('A' for Active; 'I' for Inactive)
REMARK    1  A    between atoms: C_6  and  C_1 
REMARK    2  A    between atoms: N_7  and  C_2 
REMARK       I    between atoms: C_8  and  N_9 
REMARK    3  A    between atoms: C_11  and  C_8 
ROOT
ATOM      1  C   UNL d   1      56.240   0.359  33.260  0.00  0.00     0.186 A 
ATOM      2  C   UNL d   1      56.878   0.191  32.110  0.00  0.00     0.197 A 
ATOM      3  C   UNL d   1      57.421   0.433  32.673  0.00  0.00     0.191 A 
ATOM      4  O   UNL d   1      56.131   0.147  32.490  0.00  0.00    -0.270 OA
ATOM      5  N   UNL d   1      57.014   0.541  33.408  0.00  0.00    -0.208 NA
ATOM      6  C   UNL d   1      58.257   0.556  32.542  0.00  0.00     0.124 C 
ATOM      7  N   UNL d   1      59.085   0.681  32.425  0.00  0.00    -0.190 NA
ENDROOT
BRANCH   2   8
ATOM      8  N   UNL d   1      57.288   0.085  31.379  0.00  0.00    -0.280 N 
ATOM      9  C   UNL d   1      57.275   0.681  30.798  0.00  0.00     0.101 A 
ATOM     10  C   UNL d   1      57.664   0.590  30.094  0.00  0.00     0.102 A 
ATOM     11  N   UNL d   1      58.101  -0.123  29.925  0.00  0.00    -0.267 N 
ATOM     12  C   UNL d   1      58.501  -0.185  29.167  0.00  0.00     0.288 C 
ATOM     13  C   UNL d   1      58.116  -0.750  30.531  0.00  0.00     0.102 A 
ATOM     14  O   UNL d   1      58.468   0.437  28.603  0.00  0.00    -0.264 OA
ATOM     15  C   UNL d   1      57.697  -0.615  31.251  0.00  0.00     0.101 A 
BRANCH  12  16
ATOM     16  C   UNL d   1      58.938  -0.899  28.999  0.00  0.00     0.156 A 
ATOM     17  O   UNL d   1      58.726  -1.670  28.835  0.00  0.00    -0.300 OA
ATOM     18  C   UNL d   1      59.423  -2.118  28.718  0.00  0.00     0.123 A 
ATOM     19  C   UNL d   1      60.058  -1.613  28.810  0.00  0.00     0.029 A 
ATOM     20  C   UNL d   1      59.772  -0.862  28.983  0.00  0.00     0.032 A 
ENDBRANCH  12  16
ENDBRANCH   2   8
BRANCH   1  21
ATOM     21  C   UNL d   1      55.837   0.468  33.998  0.00  0.00     0.052 A 
ATOM     22  C   UNL d   1      55.004   0.539  33.999  0.00  0.00     0.061 A 
ATOM     23 CL   UNL d   1      54.640   0.494  33.261  0.00  0.00    -0.082 Cl
ATOM     24  C   UNL d   1      54.598   0.645  34.704  0.00  0.00     0.011 A 
ATOM     25  C   UNL d   1      55.009   0.682  35.409  0.00  0.00     0.001 A 
ATOM     26  C   UNL d   1      55.831   0.614  35.419  0.00  0.00     0.000 A 
ATOM     27  C   UNL d   1      56.231   0.509  34.721  0.00  0.00     0.004 A 
ENDBRANCH   1  21
TORSDOF 3
ENDMDL
MODEL 2
REMARK VINA RESULT:      -2.4      1.666      5.538
REMARK  3 active torsions:
REMARK  status: ('A' for Active; 'I' for Inactive)
REMARK    1  A    between atoms: C_6  and  C_1 
REMARK    2  A    between atoms: N_7  and  C_2 
REMARK       I    between atoms: C_8  and  N_9 
REMARK    3  A    between atoms: C_11  and  C_8 
ROOT
ATOM      1  C   UNL d   1      58.448   0.063  30.466  0.00  0.00     0.186 A 
ATOM      2  C   UNL d   1      57.623   0.216  31.492  0.00  0.00     0.197 A 
ATOM      3  C   UNL d   1      57.495  -0.524  31.167  0.00  0.00     0.191 A 
ATOM      4  O   UNL d   1      58.230   0.583  31.042  0.00  0.00    -0.270 OA
ATOM      5  N   UNL d   1      58.021  -0.623  30.511  0.00  0.00    -0.208 NA
ATOM      6  C   UNL d   1      56.926  -1.100  31.441  0.00  0.00     0.124 C 
ATOM      7  N   UNL d   1      56.366  -1.678  31.704  0.00  0.00    -0.190 NA
ENDROOT
BRANCH   2   8
ATOM      8  N   UNL d   1      57.096   0.311  32.146  0.00  0.00    -0.280 N 
ATOM      9  C   UNL d   1      56.278   0.393  32.019  0.00  0.00     0.101 A 
ATOM     10  C   UNL d   1      55.763   0.484  32.637  0.00  0.00     0.102 A 
ATOM     11  N   UNL d   1      56.046   0.498  33.442  0.00  0.00    -0.267 N 
ATOM     12  C   UNL d   1      55.472   0.597  34.074  0.00  0.00     0.288 C 
ATOM     13  C   UNL d   1      56.904   0.412  33.579  0.00  0.00     0.102 A 
ATOM     14  O   UNL d   1      54.651   0.678  33.910  0.00  0.00    -0.264 OA
ATOM     15  C   UNL d   1      57.404   0.319  32.906  0.00  0.00     0.101 A 
BRANCH  12  16
ATOM     16  C   UNL d   1      55.755   0.611  34.879  0.00  0.00     0.156 A 
ATOM     17  O   UNL d   1      56.494   0.569  35.222  0.00  0.00    -0.300 OA
ATOM     18  C   UNL d   1      56.404   0.613  36.053  0.00  0.00     0.123 A 
ATOM     19  C   UNL d   1      55.606   0.682  36.210  0.00  0.00     0.029 A 
ATOM     20  C   UNL d   1      55.198   0.682  35.496  0.00  0.00     0.032 A 
ENDBRANCH  12  16
ENDBRANCH   2   8
BRANCH   1  21
ATOM     21  C   UNL d   1      58.973  -0.040  29.809  0.00  0.00     0.052 A 
ATOM     22  C   UNL d   1      59.761   0.231  29.872  0.00  0.00     0.061 A 
ATOM     23 CL   UNL d   1      59.962   0.585  30.589  0.00  0.00    -0.082 Cl
ATOM     24  C   UNL d   1      60.284   0.139  29.246  0.00  0.00     0.011 A 
ATOM     25  C   UNL d   1      60.032  -0.220  28.556  0.00  0.00     0.001 A 
ATOM     26  C   UNL d   1      59.257  -0.491  28.483  0.00  0.00     0.000 A 
ATOM     27  C   UNL d   1      58.742  -0.399  29.103  0.00  0.00     0.004 A 
ENDBRANCH   1  21
TORSDOF 3
ENDMDL
