MODEL 1
REMARK VINA RESULT:      31.5      0.000      0.000
REMARK  5 active torsions:
REMARK  status: ('A' for Active; 'I' for Inactive)
REMARK    1  A    between atoms: C_4  and  C_1 
REMARK    2  A    between atoms: C_8  and  C_4 
REMARK    3  A    between atoms: C_9  and  C_4 
REMARK    4  A    between atoms: N_5  and  C_9 
REMARK    5  A    between atoms: O_18  and  C_11 
ROOT
ATOM      1  C   UNL d   1      45.028 -14.616  44.486  0.00  0.00     0.025 C 
ENDROOT
BRANCH   1   2
ATOM      2  C   UNL d   1      45.381 -13.941  44.159  0.00  0.00     0.021 A 
ATOM      3  C   UNL d   1      46.133 -13.609  44.372  0.00  0.00     0.082 A 
ATOM      4  N   UNL d   1      46.258 -12.951  43.913  0.00  0.00    -0.246 NA
ATOM      5  C   UNL d   1      46.638 -13.914  44.948  0.00  0.00     0.021 C 
ATOM      6  C   UNL d   1      45.613 -12.844  43.410  0.00  0.00     0.081 A 
ATOM      7  C   UNL d   1      45.070 -13.456  43.561  0.00  0.00     0.019 A 
ATOM      8  C   UNL d   1      45.441 -12.283  42.839  0.00  0.00     0.019 A 
ATOM      9  C   UNL d   1      44.363 -13.499  43.141  0.00  0.00     0.002 A 
ATOM     10  C   UNL d   1      44.187 -12.937  42.567  0.00  0.00     0.000 A 
ATOM     11  C   UNL d   1      44.738 -12.315  42.412  0.00  0.00     0.002 A 
ENDBRANCH   1   2
BRANCH   1  12
ATOM     12  C   UNL d   1      45.352 -15.354  44.351  0.00  0.00     0.004 A 
ATOM     13  C   UNL d   1      45.257 -15.748  43.630  0.00  0.00     0.028 A 
ATOM     14  C   UNL d   1      45.582 -16.485  43.499  0.00  0.00     0.133 A 
ATOM     15  C   UNL d   1      46.015 -16.853  44.088  0.00  0.00     0.218 A 
ATOM     16  C   UNL d   1      46.125 -16.478  44.822  0.00  0.00     0.044 A 
ATOM     17  O   UNL d   1      46.347 -17.593  43.969  0.00  0.00    -0.284 OA
ATOM     18  C   UNL d   1      45.799 -15.740  44.952  0.00  0.00     0.004 A 
BRANCH  14  19
ATOM     19  O   UNL d   1      45.471 -16.857  42.766  0.00  0.00    -0.325 OA
ATOM     20  C   UNL d   1      45.788 -17.604  42.652  0.00  0.00     0.181 C 
ENDBRANCH  14  19
ENDBRANCH   1  12
BRANCH   1  21
ATOM     21  C   UNL d   1      44.341 -14.532  44.951  0.00  0.00     0.148 C 
BRANCH  21  22
ATOM     22  N   UNL d   1      43.602 -14.615  44.594  0.00  0.00    -0.112 N 
ATOM     23  O   UNL d   1      43.292 -15.357  44.453  0.00  0.00    -0.532 OA
ATOM     24  O   UNL d   1      43.178 -13.930  44.378  0.00  0.00    -0.532 OA
ENDBRANCH  21  22
ENDBRANCH   1  21
TORSDOF 5
ENDMDL
