MODEL 1
REMARK VINA RESULT:      78.8      0.000      0.000
REMARK  6 active torsions:
REMARK  status: ('A' for Active; 'I' for Inactive)
REMARK    1  A    between atoms: C_9  and  S_1 
REMARK    2  A    between atoms: N_10  and  S_1 
REMARK    3  A    between atoms: C_2  and  N_6 
REMARK       I    between atoms: N_6  and  C_8 
REMARK    4  A    between atoms: C_8  and  C_15 
REMARK    5  A    between atoms: O_24  and  C_13 
REMARK    6  A    between atoms: O_23  and  C_14 
ROOT
ATOM      1  N   UNL d   1      45.227 -14.824  36.363  0.00  0.00    -0.183 NA
ATOM      2  C   UNL d   1      45.870 -15.239  36.684  0.00  0.00     0.281 C 
ATOM      3  O   UNL d   1      46.623 -15.116  36.376  0.00  0.00    -0.265 OA
ENDROOT
BRANCH   1   4
ATOM      4  C   UNL d   1      44.459 -14.941  36.668  0.00  0.00     0.197 A 
ATOM      5  N   UNL d   1      43.917 -15.507  36.414  0.00  0.00    -0.218 NA
ATOM      6  C   UNL d   1      43.236 -15.424  36.865  0.00  0.00     0.114 A 
ATOM      7  C   UNL d   1      42.518 -15.825  36.866  0.00  0.00     0.112 A 
ATOM      8  C   UNL d   1      43.359 -14.807  37.396  0.00  0.00     0.074 A 
ATOM      9  C   UNL d   1      41.921 -15.615  37.395  0.00  0.00     0.028 A 
ATOM     10  C   UNL d   1      42.052 -14.991  37.929  0.00  0.00     0.027 A 
ATOM     11  C   UNL d   1      42.765 -14.590  37.929  0.00  0.00     0.102 A 
ATOM     12  S   UNL d   1      44.123 -14.512  37.267  0.00  0.00    -0.045 SA
BRANCH   7  13
ATOM     13  O   UNL d   1      42.386 -16.453  36.331  0.00  0.00    -0.327 OA
ATOM     14  C   UNL d   1      41.886 -17.075  36.539  0.00  0.00     0.181 C 
ENDBRANCH   7  13
BRANCH  11  15
ATOM     15  O   UNL d   1      42.898 -13.963  38.465  0.00  0.00    -0.328 OA
ATOM     16  C   UNL d   1      42.459 -13.270  38.400  0.00  0.00     0.181 C 
ENDBRANCH  11  15
ENDBRANCH   1   4
BRANCH   2  17
ATOM     17  C   UNL d   1      45.742 -15.758  37.292  0.00  0.00     0.058 A 
ATOM     18  C   UNL d   1      45.305 -16.442  37.179  0.00  0.00     0.005 A 
ATOM     19  C   UNL d   1      45.176 -16.968  37.798  0.00  0.00     0.013 A 
ATOM     20  C   UNL d   1      45.491 -16.805  38.547  0.00  0.00     0.104 A 
ATOM     21  C   UNL d   1      45.933 -16.117  38.668  0.00  0.00     0.013 A 
ATOM     22  C   UNL d   1      46.057 -15.595  38.041  0.00  0.00     0.005 A 
BRANCH  20  23
ATOM     23  S   UNL d   1      45.363 -17.331  39.170  0.00  0.00     0.271 S 
ATOM     24  O   UNL d   1      44.725 -17.660  38.758  0.00  0.00    -0.200 OA
ATOM     25  O   UNL d   1      45.998 -16.999  39.576  0.00  0.00    -0.200 OA
BRANCH  23  26
ATOM     26  N   UNL d   1      45.239 -17.853  39.793  0.00  0.00    -0.226 N 
ATOM     27  C   UNL d   1      44.568 -17.787  40.259  0.00  0.00     0.111 C 
ATOM     28  C   UNL d   1      45.792 -18.443  39.946  0.00  0.00     0.111 C 
ENDBRANCH  23  26
ENDBRANCH  20  23
ENDBRANCH   2  17
TORSDOF 6
ENDMDL
MODEL 2
REMARK VINA RESULT:      81.6      1.918      3.101
REMARK  6 active torsions:
REMARK  status: ('A' for Active; 'I' for Inactive)
REMARK    1  A    between atoms: C_9  and  S_1 
REMARK    2  A    between atoms: N_10  and  S_1 
REMARK    3  A    between atoms: C_2  and  N_6 
REMARK       I    between atoms: N_6  and  C_8 
REMARK    4  A    between atoms: C_8  and  C_15 
REMARK    5  A    between atoms: O_24  and  C_13 
REMARK    6  A    between atoms: O_23  and  C_14 
ROOT
ATOM      1  N   UNL d   1      45.559 -15.017  36.436  0.00  0.00    -0.183 NA
ATOM      2  C   UNL d   1      45.965 -14.351  36.717  0.00  0.00     0.281 C 
ATOM      3  O   UNL d   1      46.647 -14.102  36.330  0.00  0.00    -0.265 OA
ENDROOT
BRANCH   1   4
ATOM      4  C   UNL d   1      44.865 -15.279  36.821  0.00  0.00     0.197 A 
ATOM      5  N   UNL d   1      44.833 -15.744  37.500  0.00  0.00    -0.218 NA
ATOM      6  C   UNL d   1      44.041 -15.867  37.683  0.00  0.00     0.114 A 
ATOM      7  C   UNL d   1      43.669 -16.280  38.288  0.00  0.00     0.112 A 
ATOM      8  C   UNL d   1      43.588 -15.477  37.117  0.00  0.00     0.074 A 
ATOM      9  C   UNL d   1      42.846 -16.308  38.333  0.00  0.00     0.028 A 
ATOM     10  C   UNL d   1      42.394 -15.912  37.758  0.00  0.00     0.027 A 
ATOM     11  C   UNL d   1      42.763 -15.500  37.155  0.00  0.00     0.102 A 
ATOM     12  S   UNL d   1      44.109 -15.113  36.584  0.00  0.00    -0.045 SA
BRANCH   7  13
ATOM     13  O   UNL d   1      44.122 -16.679  38.866  0.00  0.00    -0.327 OA
ATOM     14  C   UNL d   1      43.748 -17.144  39.436  0.00  0.00     0.181 C 
ENDBRANCH   7  13
BRANCH  11  15
ATOM     15  O   UNL d   1      42.310 -15.101  36.577  0.00  0.00    -0.328 OA
ATOM     16  C   UNL d   1      41.591 -15.417  36.331  0.00  0.00     0.181 C 
ENDBRANCH  11  15
ENDBRANCH   1   4
BRANCH   2  17
ATOM     17  C   UNL d   1      45.681 -13.959  37.366  0.00  0.00     0.058 A 
ATOM     18  C   UNL d   1      45.046 -13.444  37.304  0.00  0.00     0.005 A 
ATOM     19  C   UNL d   1      44.758 -13.046  37.963  0.00  0.00     0.013 A 
ATOM     20  C   UNL d   1      45.113 -13.166  38.702  0.00  0.00     0.104 A 
ATOM     21  C   UNL d   1      45.754 -13.684  38.772  0.00  0.00     0.013 A 
ATOM     22  C   UNL d   1      46.036 -14.079  38.105  0.00  0.00     0.005 A 
BRANCH  20  23
ATOM     23  S   UNL d   1      44.826 -12.769  39.366  0.00  0.00     0.271 S 
ATOM     24  O   UNL d   1      44.413 -12.248  38.872  0.00  0.00    -0.200 OA
ATOM     25  O   UNL d   1      45.240 -13.290  39.852  0.00  0.00    -0.200 OA
BRANCH  23  26
ATOM     26  N   UNL d   1      44.543 -12.375  40.030  0.00  0.00    -0.226 N 
ATOM     27  C   UNL d   1      43.743 -12.216  40.105  0.00  0.00     0.111 C 
ATOM     28  C   UNL d   1      45.069 -12.141  40.619  0.00  0.00     0.111 C 
ENDBRANCH  23  26
ENDBRANCH  20  23
ENDBRANCH   2  17
TORSDOF 6
ENDMDL
