MODEL 1
REMARK VINA RESULT:      -6.0      0.000      0.000
REMARK  4 active torsions:
REMARK  status: ('A' for Active; 'I' for Inactive)
REMARK    1  A    between atoms: C_10  and  C_2 
REMARK    2  A    between atoms: C_9  and  C_4 
REMARK    3  A    between atoms: C_8  and  N_6 
REMARK    4  A    between atoms: N_7  and  C_9 
ROOT
ATOM      1  N   UNL d   1      59.452  -2.067  29.201  0.00  0.00    -0.301 N 
ATOM      2  N   UNL d   1      58.634  -0.675  29.527  0.00  0.00    -0.297 N 
ATOM      3  C   UNL d   1      59.846  -1.343  29.188  0.00  0.00     0.100 A 
ATOM      4  C   UNL d   1      58.650  -2.096  29.376  0.00  0.00     0.100 A 
ATOM      5  C   UNL d   1      59.437  -0.646  29.351  0.00  0.00     0.100 A 
ATOM      6  C   UNL d   1      58.238  -1.399  29.540  0.00  0.00     0.100 A 
ENDROOT
BRANCH   2   7
ATOM      7  C   UNL d   1      58.221   0.019  29.691  0.00  0.00     0.127 C 
BRANCH   7   8
ATOM      8  C   UNL d   1      57.978   0.172  30.461  0.00  0.00     0.222 A 
ATOM      9  N   UNL d   1      58.365   0.646  31.020  0.00  0.00    -0.119 NA
ATOM     10  N   UNL d   1      57.921   0.640  31.715  0.00  0.00    -0.121 NA
ATOM     11  C   UNL d   1      57.258   0.162  31.588  0.00  0.00     0.204 A 
ATOM     12  O   UNL d   1      57.290  -0.128  30.815  0.00  0.00    -0.267 OA
BRANCH  11  13
ATOM     13  C   UNL d   1      56.666   0.004  32.144  0.00  0.00     0.043 A 
ATOM     14  C   UNL d   1      56.490  -0.772  32.350  0.00  0.00     0.004 A 
ATOM     15  C   UNL d   1      55.899  -0.929  32.905  0.00  0.00     0.000 A 
ATOM     16  C   UNL d   1      55.487  -0.308  33.253  0.00  0.00     0.000 A 
ATOM     17  C   UNL d   1      55.669   0.480  33.041  0.00  0.00     0.000 A 
ATOM     18  C   UNL d   1      56.259   0.625  32.487  0.00  0.00     0.004 A 
ENDBRANCH  11  13
ENDBRANCH   7   8
ENDBRANCH   2   7
BRANCH   1  19
ATOM     19  C   UNL d   1      59.860  -2.764  29.038  0.00  0.00     0.064 A 
ATOM     20  C   UNL d   1      59.489  -3.371  28.619  0.00  0.00     0.020 A 
ATOM     21  C   UNL d   1      59.902  -4.069  28.456  0.00  0.00     0.031 A 
ATOM     22  C   UNL d   1      60.684  -4.162  28.712  0.00  0.00     0.140 A 
ATOM     23  C   UNL d   1      61.044  -3.548  29.130  0.00  0.00     0.031 A 
ATOM     24  F   UNL d   1      61.129  -4.840  28.572  0.00  0.00    -0.204 F 
ATOM     25  C   UNL d   1      60.635  -2.851  29.293  0.00  0.00     0.020 A 
ENDBRANCH   1  19
TORSDOF 4
ENDMDL
MODEL 2
REMARK VINA RESULT:      -5.5      2.174      5.433
REMARK  4 active torsions:
REMARK  status: ('A' for Active; 'I' for Inactive)
REMARK    1  A    between atoms: C_10  and  C_2 
REMARK    2  A    between atoms: C_9  and  C_4 
REMARK    3  A    between atoms: C_8  and  N_6 
REMARK    4  A    between atoms: N_7  and  C_9 
ROOT
ATOM      1  N   UNL d   1      57.045   0.402  32.048  0.00  0.00    -0.301 N 
ATOM      2  N   UNL d   1      58.002   0.583  30.719  0.00  0.00    -0.297 N 
ATOM      3  C   UNL d   1      57.862   0.306  32.109  0.00  0.00     0.100 A 
ATOM      4  C   UNL d   1      56.707   0.589  31.323  0.00  0.00     0.100 A 
ATOM      5  C   UNL d   1      58.341   0.396  31.445  0.00  0.00     0.100 A 
ATOM      6  C   UNL d   1      57.185   0.680  30.655  0.00  0.00     0.100 A 
ENDROOT
BRANCH   2   7
ATOM      7  C   UNL d   1      58.477   0.675  30.052  0.00  0.00     0.127 C 
BRANCH   7   8
ATOM      8  C   UNL d   1      58.563   0.047  29.528  0.00  0.00     0.222 A 
ATOM      9  N   UNL d   1      58.203  -0.033  28.785  0.00  0.00    -0.119 NA
ATOM     10  N   UNL d   1      58.449  -0.749  28.456  0.00  0.00    -0.121 NA
ATOM     11  C   UNL d   1      58.961  -1.114  28.995  0.00  0.00     0.204 A 
ATOM     12  O   UNL d   1      59.033  -0.624  29.657  0.00  0.00    -0.267 OA
BRANCH  11  13
ATOM     13  C   UNL d   1      59.334  -1.843  28.884  0.00  0.00     0.043 A 
ATOM     14  C   UNL d   1      60.150  -1.878  28.786  0.00  0.00     0.004 A 
ATOM     15  C   UNL d   1      60.523  -2.606  28.675  0.00  0.00     0.000 A 
ATOM     16  C   UNL d   1      60.077  -3.298  28.663  0.00  0.00     0.000 A 
ATOM     17  C   UNL d   1      59.249  -3.258  28.763  0.00  0.00     0.000 A 
ATOM     18  C   UNL d   1      58.887  -2.528  28.873  0.00  0.00     0.004 A 
ENDBRANCH  11  13
ENDBRANCH   7   8
ENDBRANCH   2   7
BRANCH   1  19
ATOM     19  C   UNL d   1      56.566   0.312  32.712  0.00  0.00     0.064 A 
ATOM     20  C   UNL d   1      56.771   0.680  33.422  0.00  0.00     0.020 A 
ATOM     21  C   UNL d   1      56.289   0.588  34.086  0.00  0.00     0.031 A 
ATOM     22  C   UNL d   1      55.602   0.127  34.044  0.00  0.00     0.140 A 
ATOM     23  C   UNL d   1      55.407  -0.236  33.329  0.00  0.00     0.031 A 
ATOM     24  F   UNL d   1      55.094   0.010  34.682  0.00  0.00    -0.204 F 
ATOM     25  C   UNL d   1      55.886  -0.146  32.665  0.00  0.00     0.020 A 
ENDBRANCH   1  19
TORSDOF 4
ENDMDL
