MODEL 1
REMARK VINA RESULT:      69.4      0.000      0.000
REMARK  5 active torsions:
REMARK  status: ('A' for Active; 'I' for Inactive)
REMARK    1  A    between atoms: C_10  and  N_1 
REMARK    2  A    between atoms: S_7  and  C_4 
REMARK    3  A    between atoms: C_9  and  C_6 
REMARK    4  A    between atoms: C_8  and  S_7 
REMARK    5  A    between atoms: N_14  and  C_13 
ROOT
ATOM      1  N   UNL d   1     -49.038  28.579  34.302  0.00  0.00    -0.241 N 
ATOM      2  C   UNL d   1     -48.788  27.915  34.674  0.00  0.00     0.268 A 
ATOM      3  C   UNL d   1     -49.660  28.415  33.798  0.00  0.00     0.273 A 
ATOM      4  C   UNL d   1     -49.805  27.605  33.861  0.00  0.00     0.091 A 
ATOM      5  C   UNL d   1     -49.260  27.294  34.407  0.00  0.00     0.072 A 
ATOM      6  O   UNL d   1     -48.171  27.889  35.217  0.00  0.00    -0.267 OA
ATOM      7  O   UNL d   1     -50.065  28.972  33.316  0.00  0.00    -0.266 OA
ENDROOT
BRANCH   4   8
ATOM      8  S   UNL d   1     -50.402  27.275  33.418  0.00  0.00    -0.082 SA
BRANCH   8   9
ATOM      9  C   UNL d   1     -50.508  26.441  33.381  0.00  0.00     0.035 A 
ATOM     10  C   UNL d   1     -51.281  26.105  33.344  0.00  0.00     0.070 A 
ATOM     11  C   UNL d   1     -51.338  25.285  33.309  0.00  0.00     0.007 A 
ATOM     12  C   UNL d   1     -50.649  24.812  33.312  0.00  0.00     0.000 A 
ATOM     13  C   UNL d   1     -49.887  25.165  33.350  0.00  0.00     0.001 A 
ATOM     14  C   UNL d   1     -49.823  25.978  33.384  0.00  0.00     0.007 A 
BRANCH  10  15
ATOM     15  C   UNL d   1     -51.938  26.568  33.341  0.00  0.00     0.211 C 
ATOM     16  O   UNL d   1     -52.679  26.221  33.376  0.00  0.00    -0.644 OA
ATOM     17  O   UNL d   1     -51.910  27.386  33.306  0.00  0.00    -0.644 OA
ENDBRANCH  10  15
ENDBRANCH   8   9
ENDBRANCH   4   8
BRANCH   1  18
ATOM     18  C   UNL d   1     -48.654  29.331  34.461  0.00  0.00     0.070 A 
ATOM     19  C   UNL d   1     -48.008  29.364  34.950  0.00  0.00     0.019 A 
ATOM     20  C   UNL d   1     -47.648  30.100  35.094  0.00  0.00     0.019 A 
ATOM     21  C   UNL d   1     -47.949  30.781  34.741  0.00  0.00     0.064 A 
ATOM     22  C   UNL d   1     -48.608  30.743  34.243  0.00  0.00     0.019 A 
ATOM     23  C   UNL d   1     -48.965  30.017  34.099  0.00  0.00     0.019 A 
BRANCH  21  24
ATOM     24  N   UNL d   1     -47.596  31.502  34.882  0.00  0.00    -0.301 N 
ATOM     25  C   UNL d   1     -47.727  32.126  34.356  0.00  0.00     0.100 C 
ATOM     26  C   UNL d   1     -47.121  31.595  35.539  0.00  0.00     0.100 C 
ENDBRANCH  21  24
ENDBRANCH   1  18
TORSDOF 5
ENDMDL
MODEL 2
REMARK VINA RESULT:      69.5      1.406      5.239
REMARK  5 active torsions:
REMARK  status: ('A' for Active; 'I' for Inactive)
REMARK    1  A    between atoms: C_10  and  N_1 
REMARK    2  A    between atoms: S_7  and  C_4 
REMARK    3  A    between atoms: C_9  and  C_6 
REMARK    4  A    between atoms: C_8  and  S_7 
REMARK    5  A    between atoms: N_14  and  C_13 
ROOT
ATOM      1  N   UNL d   1     -49.592  27.945  34.002  0.00  0.00    -0.241 N 
ATOM      2  C   UNL d   1     -49.882  28.645  33.741  0.00  0.00     0.268 A 
ATOM      3  C   UNL d   1     -48.893  28.053  34.411  0.00  0.00     0.273 A 
ATOM      4  C   UNL d   1     -48.740  28.865  34.403  0.00  0.00     0.091 A 
ATOM      5  C   UNL d   1     -49.358  29.233  33.985  0.00  0.00     0.072 A 
ATOM      6  O   UNL d   1     -50.578  28.730  33.310  0.00  0.00    -0.267 OA
ATOM      7  O   UNL d   1     -48.429  27.449  34.765  0.00  0.00    -0.266 OA
ENDROOT
BRANCH   4   8
ATOM      8  S   UNL d   1     -48.071  29.144  34.772  0.00  0.00    -0.082 SA
BRANCH   8   9
ATOM      9  C   UNL d   1     -47.931  29.970  34.854  0.00  0.00     0.035 A 
ATOM     10  C   UNL d   1     -47.552  30.277  35.542  0.00  0.00     0.070 A 
ATOM     11  C   UNL d   1     -47.435  31.091  35.580  0.00  0.00     0.007 A 
ATOM     12  C   UNL d   1     -47.686  31.585  34.954  0.00  0.00     0.000 A 
ATOM     13  C   UNL d   1     -48.063  31.259  34.276  0.00  0.00     0.001 A 
ATOM     14  C   UNL d   1     -48.182  30.453  34.232  0.00  0.00     0.007 A 
BRANCH  10  15
ATOM     15  C   UNL d   1     -47.313  29.795  36.139  0.00  0.00     0.211 C 
ATOM     16  O   UNL d   1     -47.812  29.660  36.775  0.00  0.00    -0.644 OA
ATOM     17  O   UNL d   1     -46.584  29.422  36.149  0.00  0.00    -0.644 OA
ENDBRANCH  10  15
ENDBRANCH   8   9
ENDBRANCH   4   8
BRANCH   1  18
ATOM     18  C   UNL d   1     -50.015  27.216  33.836  0.00  0.00     0.070 A 
ATOM     19  C   UNL d   1     -49.633  26.594  33.485  0.00  0.00     0.019 A 
ATOM     20  C   UNL d   1     -50.057  25.894  33.331  0.00  0.00     0.019 A 
ATOM     21  C   UNL d   1     -50.853  25.843  33.536  0.00  0.00     0.064 A 
ATOM     22  C   UNL d   1     -51.239  26.480  33.894  0.00  0.00     0.019 A 
ATOM     23  C   UNL d   1     -50.823  27.172  34.046  0.00  0.00     0.019 A 
BRANCH  21  24
ATOM     24  N   UNL d   1     -51.269  25.158  33.385  0.00  0.00    -0.301 N 
ATOM     25  C   UNL d   1     -50.858  24.445  33.306  0.00  0.00     0.100 C 
ATOM     26  C   UNL d   1     -52.081  25.189  33.316  0.00  0.00     0.100 C 
ENDBRANCH  21  24
ENDBRANCH   1  18
TORSDOF 5
ENDMDL
MODEL 3
REMARK VINA RESULT:      70.7      0.882      1.198
REMARK  5 active torsions:
REMARK  status: ('A' for Active; 'I' for Inactive)
REMARK    1  A    between atoms: C_10  and  N_1 
REMARK    2  A    between atoms: S_7  and  C_4 
REMARK    3  A    between atoms: C_9  and  C_6 
REMARK    4  A    between atoms: C_8  and  S_7 
REMARK    5  A    between atoms: N_14  and  C_13 
ROOT
ATOM      1  N   UNL d   1     -49.001  27.573  34.309  0.00  0.00    -0.241 N 
ATOM      2  C   UNL d   1     -48.604  26.878  34.293  0.00  0.00     0.268 A 
ATOM      3  C   UNL d   1     -49.756  27.486  34.008  0.00  0.00     0.273 A 
ATOM      4  C   UNL d   1     -49.832  26.693  33.793  0.00  0.00     0.091 A 
ATOM      5  C   UNL d   1     -49.113  26.314  33.971  0.00  0.00     0.072 A 
ATOM      6  O   UNL d   1     -47.832  26.775  34.556  0.00  0.00    -0.267 OA
ATOM      7  O   UNL d   1     -50.333  28.094  33.937  0.00  0.00    -0.266 OA
ENDROOT
BRANCH   4   8
ATOM      8  S   UNL d   1     -50.534  26.437  33.471  0.00  0.00    -0.082 SA
BRANCH   8   9
ATOM      9  C   UNL d   1     -50.744  25.621  33.476  0.00  0.00     0.035 A 
ATOM     10  C   UNL d   1     -51.535  25.381  33.642  0.00  0.00     0.070 A 
ATOM     11  C   UNL d   1     -51.695  24.574  33.636  0.00  0.00     0.007 A 
ATOM     12  C   UNL d   1     -51.090  24.022  33.469  0.00  0.00     0.000 A 
ATOM     13  C   UNL d   1     -50.307  24.282  33.306  0.00  0.00     0.001 A 
ATOM     14  C   UNL d   1     -50.141  25.081  33.311  0.00  0.00     0.007 A 
BRANCH  10  15
ATOM     15  C   UNL d   1     -52.112  25.918  33.801  0.00  0.00     0.211 C 
ATOM     16  O   UNL d   1     -52.072  26.365  34.486  0.00  0.00    -0.644 OA
ATOM     17  O   UNL d   1     -52.752  26.047  33.306  0.00  0.00    -0.644 OA
ENDBRANCH  10  15
ENDBRANCH   8   9
ENDBRANCH   4   8
BRANCH   1  18
ATOM     18  C   UNL d   1     -48.619  28.279  34.618  0.00  0.00     0.070 A 
ATOM     19  C   UNL d   1     -48.485  28.355  35.413  0.00  0.00     0.019 A 
ATOM     20  C   UNL d   1     -48.114  29.044  35.696  0.00  0.00     0.019 A 
ATOM     21  C   UNL d   1     -47.890  29.636  35.168  0.00  0.00     0.064 A 
ATOM     22  C   UNL d   1     -48.029  29.554  34.358  0.00  0.00     0.019 A 
ATOM     23  C   UNL d   1     -48.395  28.875  34.076  0.00  0.00     0.019 A 
BRANCH  21  24
ATOM     24  N   UNL d   1     -47.527  30.311  35.445  0.00  0.00    -0.301 N 
ATOM     25  C   UNL d   1     -46.966  30.251  36.049  0.00  0.00     0.100 C 
ATOM     26  C   UNL d   1     -47.723  31.034  35.120  0.00  0.00     0.100 C 
ENDBRANCH  21  24
ENDBRANCH   1  18
TORSDOF 5
ENDMDL
