MODEL 1
REMARK VINA RESULT:      -1.1      0.000      0.000
REMARK  6 active torsions:
REMARK  status: ('A' for Active; 'I' for Inactive)
REMARK    1  A    between atoms: C_9  and  N_1 
REMARK    2  A    between atoms: N_6  and  C_2 
REMARK    3  A    between atoms: C_7  and  C_5 
REMARK    4  A    between atoms: C_13  and  N_6 
REMARK    5  A    between atoms: C_8  and  C_7 
REMARK       I    between atoms: N_10  and  C_8 
REMARK    6  A    between atoms: C_14  and  N_10 
ROOT
ATOM      1  N   UNL d   1      32.861  21.062 -22.261  0.00  0.00    -0.254 N 
ATOM      2  C   UNL d   1      33.092  21.542 -22.892  0.00  0.00     0.182 A 
ATOM      3  C   UNL d   1      32.815  20.310 -22.511  0.00  0.00     0.272 A 
ATOM      4  S   UNL d   1      33.187  21.037 -23.558  0.00  0.00    -0.045 SA
ATOM      5  C   UNL d   1      33.014  20.272 -23.315  0.00  0.00     0.093 A 
ATOM      6  O   UNL d   1      32.604  19.662 -22.052  0.00  0.00    -0.266 OA
ENDROOT
BRANCH   5   7
ATOM      7  C   UNL d   1      33.035  19.606 -23.780  0.00  0.00     0.074 C 
BRANCH   7   8
ATOM      8  C   UNL d   1      33.012  19.687 -24.599  0.00  0.00     0.280 C 
ATOM      9  N   UNL d   1      32.796  19.017 -25.062  0.00  0.00    -0.208 NA
ATOM     10  O   UNL d   1      33.191  20.384 -24.946  0.00  0.00    -0.265 OA
BRANCH   9  11
ATOM     11  C   UNL d   1      32.617  18.314 -24.692  0.00  0.00     0.085 A 
ATOM     12  C   UNL d   1      33.230  17.817 -24.428  0.00  0.00     0.019 A 
ATOM     13  C   UNL d   1      33.058  17.095 -24.048  0.00  0.00     0.002 A 
ATOM     14  C   UNL d   1      32.268  16.885 -23.940  0.00  0.00     0.000 A 
ATOM     15  C   UNL d   1      31.652  17.379 -24.203  0.00  0.00     0.002 A 
ATOM     16  C   UNL d   1      31.826  18.091 -24.577  0.00  0.00     0.019 A 
ENDBRANCH   9  11
ENDBRANCH   7   8
ENDBRANCH   5   7
BRANCH   1  17
ATOM     17  C   UNL d   1      32.707  21.318 -21.506  0.00  0.00     0.069 A 
ATOM     18  C   UNL d   1      33.231  21.113 -20.894  0.00  0.00     0.018 A 
ATOM     19  C   UNL d   1      33.084  21.368 -20.116  0.00  0.00     0.002 A 
ATOM     20  C   UNL d   1      32.414  21.825 -19.960  0.00  0.00     0.000 A 
ATOM     21  C   UNL d   1      31.890  22.030 -20.573  0.00  0.00     0.002 A 
ATOM     22  C   UNL d   1      32.044  21.773 -21.339  0.00  0.00     0.018 A 
ENDBRANCH   1  17
BRANCH   2  23
ATOM     23  N   UNL d   1      33.219  22.346 -22.933  0.00  0.00    -0.222 NA
BRANCH  23  24
ATOM     24  C   UNL d   1      32.893  22.791 -23.535  0.00  0.00     0.084 A 
ATOM     25  C   UNL d   1      33.235  22.785 -24.285  0.00  0.00     0.019 A 
ATOM     26  C   UNL d   1      32.895  23.243 -24.896  0.00  0.00     0.002 A 
ATOM     27  C   UNL d   1      32.238  23.686 -24.751  0.00  0.00     0.000 A 
ATOM     28  C   UNL d   1      31.892  23.693 -23.995  0.00  0.00     0.002 A 
ATOM     29  C   UNL d   1      32.221  23.244 -23.386  0.00  0.00     0.019 A 
ENDBRANCH  23  24
ENDBRANCH   2  23
TORSDOF 6
ENDMDL
