MODEL 1
REMARK VINA RESULT:      30.0      0.000      0.000
REMARK  4 active torsions:
REMARK  status: ('A' for Active; 'I' for Inactive)
REMARK    1  A    between atoms: C_2  and  S_1 
REMARK    2  A    between atoms: N_3  and  S_1 
REMARK    3  A    between atoms: C_16  and  C_7 
REMARK    4  A    between atoms: O_17  and  C_8 
ROOT
ATOM      1  C   UNL d   1      14.463  13.413  -1.383  0.00  0.00     0.126 A 
ATOM      2  C   UNL d   1      14.701  14.200  -1.378  0.00  0.00     0.015 A 
ATOM      3  C   UNL d   1      15.018  14.521  -0.695  0.00  0.00     0.001 A 
ATOM      4  C   UNL d   1      14.538  12.946  -0.715  0.00  0.00     0.106 A 
ATOM      5  C   UNL d   1      15.098  14.059  -0.016  0.00  0.00     0.002 A 
ATOM      6  C   UNL d   1      14.857  13.269  -0.028  0.00  0.00     0.025 A 
ENDROOT
BRANCH   1   7
ATOM      7  S   UNL d   1      14.142  13.085  -2.071  0.00  0.00     0.273 S 
ATOM      8  O   UNL d   1      13.420  13.455  -1.911  0.00  0.00    -0.200 OA
ATOM      9  O   UNL d   1      14.864  12.715  -2.231  0.00  0.00    -0.200 OA
BRANCH   7  10
ATOM     10  N   UNL d   1      13.822  12.757  -2.760  0.00  0.00    -0.226 N 
ATOM     11  C   UNL d   1      14.009  13.078  -3.496  0.00  0.00     0.111 A 
ATOM     12  C   UNL d   1      13.694  12.756  -4.180  0.00  0.00     0.100 A 
ATOM     13  N   UNL d   1      13.183  12.105  -4.138  0.00  0.00    -0.299 N 
ATOM     14  C   UNL d   1      12.994  11.781  -3.399  0.00  0.00     0.100 A 
ATOM     15  C   UNL d   1      12.867  11.783  -4.831  0.00  0.00     0.100 C 
ATOM     16  C   UNL d   1      13.314  12.109  -2.711  0.00  0.00     0.111 A 
ENDBRANCH   7  10
ENDBRANCH   1   7
BRANCH   4  17
ATOM     17  O   UNL d   1      14.293  12.152  -0.735  0.00  0.00    -0.327 OA
ATOM     18  C   UNL d   1      14.074  11.780  -0.033  0.00  0.00     0.181 C 
ENDBRANCH   4  17
BRANCH   3  19
ATOM     19  C   UNL d   1      15.258  15.310  -0.686  0.00  0.00     0.000 C 
ATOM     20  C   UNL d   1      15.914  15.540  -0.250  0.00  0.00     0.000 C 
ATOM     21  C   UNL d   1      14.832  15.869  -1.122  0.00  0.00     0.000 C 
ENDBRANCH   3  19
TORSDOF 4
ENDMDL
