MODEL 1
REMARK VINA RESULT:      55.0      0.000      0.000
REMARK  8 active torsions:
REMARK  status: ('A' for Active; 'I' for Inactive)
REMARK    1  A    between atoms: C_2  and  C_4 
REMARK    2  A    between atoms: S_9  and  C_6 
REMARK    3  A    between atoms: C_7  and  C_17 
REMARK       I    between atoms: N_16  and  C_7 
REMARK    4  A    between atoms: C_17  and  S_9 
REMARK    5  A    between atoms: O_19  and  C_14 
REMARK    6  A    between atoms: C_15  and  C_21 
REMARK    7  A    between atoms: C_20  and  N_16 
REMARK    8  A    between atoms: C_21  and  C_20 
ROOT
ATOM      1  C   UNL d   1     -48.899  27.815  34.793  0.00  0.00     0.286 C 
ATOM      2  O   UNL d   1     -49.476  27.883  35.376  0.00  0.00    -0.265 OA
ATOM      3  N   UNL d   1     -49.028  27.329  34.152  0.00  0.00    -0.206 NA
ENDROOT
BRANCH   1   4
ATOM      4  C   UNL d   1     -48.193  28.240  34.862  0.00  0.00     0.099 C 
BRANCH   4   5
ATOM      5  S   UNL d   1     -48.128  28.826  35.433  0.00  0.00    -0.061 SA
BRANCH   5   6
ATOM      6  C   UNL d   1     -48.005  29.612  35.213  0.00  0.00     0.133 A 
ATOM      7  N   UNL d   1     -48.192  30.223  35.725  0.00  0.00    -0.141 NA
ATOM      8  N   UNL d   1     -48.071  31.003  35.511  0.00  0.00    -0.147 NA
ATOM      9  C   UNL d   1     -47.758  31.177  34.768  0.00  0.00     0.109 A 
ATOM     10  C   UNL d   1     -47.567  30.566  34.245  0.00  0.00     0.024 A 
ATOM     11  C   UNL d   1     -47.689  29.792  34.465  0.00  0.00     0.029 A 
BRANCH   9  12
ATOM     12  C   UNL d   1     -47.634  31.960  34.545  0.00  0.00     0.049 A 
ATOM     13  S   UNL d   1     -47.648  32.618  35.040  0.00  0.00    -0.085 SA
ATOM     14  C   UNL d   1     -47.496  33.293  34.592  0.00  0.00     0.035 A 
ATOM     15  C   UNL d   1     -47.387  33.048  33.801  0.00  0.00     0.007 A 
ATOM     16  C   UNL d   1     -47.471  32.226  33.770  0.00  0.00     0.009 A 
ENDBRANCH   9  12
ENDBRANCH   5   6
ENDBRANCH   4   5
ENDBRANCH   1   4
BRANCH   3  17
ATOM     17  C   UNL d   1     -49.734  26.904  34.083  0.00  0.00     0.102 C 
BRANCH  17  18
ATOM     18  C   UNL d   1     -49.944  26.566  33.366  0.00  0.00     0.023 C 
BRANCH  18  19
ATOM     19  C   UNL d   1     -50.300  25.819  33.346  0.00  0.00     0.024 A 
ATOM     20  C   UNL d   1     -51.115  25.751  33.326  0.00  0.00     0.094 A 
ATOM     21  C   UNL d   1     -51.465  25.016  33.306  0.00  0.00     0.024 A 
ATOM     22  C   UNL d   1     -50.995  24.334  33.306  0.00  0.00     0.002 A 
ATOM     23  C   UNL d   1     -50.171  24.403  33.326  0.00  0.00     0.000 A 
ATOM     24  C   UNL d   1     -49.828  25.150  33.346  0.00  0.00     0.002 A 
BRANCH  20  25
ATOM     25  O   UNL d   1     -51.585  26.424  33.326  0.00  0.00    -0.328 OA
ATOM     26  C   UNL d   1     -52.347  26.386  33.630  0.00  0.00     0.181 C 
ENDBRANCH  20  25
ENDBRANCH  18  19
ENDBRANCH  17  18
ENDBRANCH   3  17
TORSDOF 8
ENDMDL
MODEL 2
REMARK VINA RESULT:      56.5      1.817      6.370
REMARK  8 active torsions:
REMARK  status: ('A' for Active; 'I' for Inactive)
REMARK    1  A    between atoms: C_2  and  C_4 
REMARK    2  A    between atoms: S_9  and  C_6 
REMARK    3  A    between atoms: C_7  and  C_17 
REMARK       I    between atoms: N_16  and  C_7 
REMARK    4  A    between atoms: C_17  and  S_9 
REMARK    5  A    between atoms: O_19  and  C_14 
REMARK    6  A    between atoms: C_15  and  C_21 
REMARK    7  A    between atoms: C_20  and  N_16 
REMARK    8  A    between atoms: C_21  and  C_20 
ROOT
ATOM      1  C   UNL d   1     -48.752  27.981  35.133  0.00  0.00     0.286 C 
ATOM      2  O   UNL d   1     -48.790  28.106  35.945  0.00  0.00    -0.265 OA
ATOM      3  N   UNL d   1     -48.431  28.555  34.651  0.00  0.00    -0.206 NA
ENDROOT
BRANCH   1   4
ATOM      4  C   UNL d   1     -49.038  27.275  34.811  0.00  0.00     0.099 C 
BRANCH   4   5
ATOM      5  S   UNL d   1     -49.476  27.294  34.117  0.00  0.00    -0.061 SA
BRANCH   5   6
ATOM      6  C   UNL d   1     -50.057  26.726  33.975  0.00  0.00     0.133 A 
ATOM      7  N   UNL d   1     -50.768  26.935  33.627  0.00  0.00    -0.141 NA
ATOM      8  N   UNL d   1     -51.346  26.374  33.484  0.00  0.00    -0.147 NA
ATOM      9  C   UNL d   1     -51.211  25.587  33.692  0.00  0.00     0.109 A 
ATOM     10  C   UNL d   1     -50.495  25.369  34.043  0.00  0.00     0.024 A 
ATOM     11  C   UNL d   1     -49.924  25.932  34.183  0.00  0.00     0.029 A 
BRANCH   9  12
ATOM     12  C   UNL d   1     -51.788  25.018  33.551  0.00  0.00     0.049 A 
ATOM     13  S   UNL d   1     -52.601  25.144  33.504  0.00  0.00    -0.085 SA
ATOM     14  C   UNL d   1     -52.976  24.425  33.356  0.00  0.00     0.035 A 
ATOM     15  C   UNL d   1     -52.382  23.839  33.309  0.00  0.00     0.007 A 
ATOM     16  C   UNL d   1     -51.649  24.203  33.429  0.00  0.00     0.009 A 
ENDBRANCH   9  12
ENDBRANCH   5   6
ENDBRANCH   4   5
ENDBRANCH   1   4
BRANCH   3  17
ATOM     17  C   UNL d   1     -48.145  29.261  34.972  0.00  0.00     0.102 C 
BRANCH  17  18
ATOM     18  C   UNL d   1     -48.387  29.982  34.665  0.00  0.00     0.023 C 
BRANCH  18  19
ATOM     19  C   UNL d   1     -47.942  30.665  34.807  0.00  0.00     0.024 A 
ATOM     20  C   UNL d   1     -48.037  31.325  34.334  0.00  0.00     0.094 A 
ATOM     21  C   UNL d   1     -47.599  31.997  34.474  0.00  0.00     0.024 A 
ATOM     22  C   UNL d   1     -47.055  32.014  35.098  0.00  0.00     0.002 A 
ATOM     23  C   UNL d   1     -46.959  31.346  35.577  0.00  0.00     0.000 A 
ATOM     24  C   UNL d   1     -47.406  30.673  35.426  0.00  0.00     0.002 A 
BRANCH  20  25
ATOM     25  O   UNL d   1     -48.575  31.314  33.714  0.00  0.00    -0.328 OA
ATOM     26  C   UNL d   1     -48.929  32.015  33.472  0.00  0.00     0.181 C 
ENDBRANCH  20  25
ENDBRANCH  18  19
ENDBRANCH  17  18
ENDBRANCH   3  17
TORSDOF 8
ENDMDL
MODEL 3
REMARK VINA RESULT:      56.5      0.777      1.219
REMARK  8 active torsions:
REMARK  status: ('A' for Active; 'I' for Inactive)
REMARK    1  A    between atoms: C_2  and  C_4 
REMARK    2  A    between atoms: S_9  and  C_6 
REMARK    3  A    between atoms: C_7  and  C_17 
REMARK       I    between atoms: N_16  and  C_7 
REMARK    4  A    between atoms: C_17  and  S_9 
REMARK    5  A    between atoms: O_19  and  C_14 
REMARK    6  A    between atoms: C_15  and  C_21 
REMARK    7  A    between atoms: C_20  and  N_16 
REMARK    8  A    between atoms: C_21  and  C_20 
ROOT
ATOM      1  C   UNL d   1     -49.129  27.720  34.359  0.00  0.00     0.286 C 
ATOM      2  O   UNL d   1     -49.329  27.456  35.112  0.00  0.00    -0.265 OA
ATOM      3  N   UNL d   1     -49.425  27.335  33.705  0.00  0.00    -0.206 NA
ENDROOT
BRANCH   1   4
ATOM      4  C   UNL d   1     -48.631  28.374  34.271  0.00  0.00     0.099 C 
BRANCH   4   5
ATOM      5  S   UNL d   1     -48.480  28.857  34.917  0.00  0.00    -0.061 SA
BRANCH   5   6
ATOM      6  C   UNL d   1     -48.279  29.650  34.807  0.00  0.00     0.133 A 
ATOM      7  N   UNL d   1     -47.705  30.003  35.273  0.00  0.00    -0.141 NA
ATOM      8  N   UNL d   1     -47.503  30.789  35.167  0.00  0.00    -0.147 NA
ATOM      9  C   UNL d   1     -47.882  31.232  34.583  0.00  0.00     0.109 A 
ATOM     10  C   UNL d   1     -48.462  30.882  34.109  0.00  0.00     0.024 A 
ATOM     11  C   UNL d   1     -48.658  30.100  34.219  0.00  0.00     0.029 A 
BRANCH   9  12
ATOM     12  C   UNL d   1     -47.684  32.022  34.471  0.00  0.00     0.049 A 
ATOM     13  S   UNL d   1     -48.062  32.556  33.970  0.00  0.00    -0.085 SA
ATOM     14  C   UNL d   1     -47.686  33.288  34.026  0.00  0.00     0.035 A 
ATOM     15  C   UNL d   1     -47.061  33.207  34.574  0.00  0.00     0.007 A 
ATOM     16  C   UNL d   1     -47.058  32.426  34.850  0.00  0.00     0.009 A 
ENDBRANCH   9  12
ENDBRANCH   5   6
ENDBRANCH   4   5
ENDBRANCH   1   4
BRANCH   3  17
ATOM     17  C   UNL d   1     -49.924  26.681  33.792  0.00  0.00     0.102 C 
BRANCH  17  18
ATOM     18  C   UNL d   1     -50.593  26.607  33.325  0.00  0.00     0.023 C 
BRANCH  18  19
ATOM     19  C   UNL d   1     -51.023  25.900  33.321  0.00  0.00     0.024 A 
ATOM     20  C   UNL d   1     -50.634  25.181  33.313  0.00  0.00     0.094 A 
ATOM     21  C   UNL d   1     -51.057  24.485  33.310  0.00  0.00     0.024 A 
ATOM     22  C   UNL d   1     -51.885  24.504  33.316  0.00  0.00     0.002 A 
ATOM     23  C   UNL d   1     -52.278  25.232  33.324  0.00  0.00     0.000 A 
ATOM     24  C   UNL d   1     -51.841  25.928  33.327  0.00  0.00     0.002 A 
BRANCH  20  25
ATOM     25  O   UNL d   1     -49.813  25.156  33.308  0.00  0.00    -0.328 OA
ATOM     26  C   UNL d   1     -49.427  24.457  33.501  0.00  0.00     0.181 C 
ENDBRANCH  20  25
ENDBRANCH  18  19
ENDBRANCH  17  18
ENDBRANCH   3  17
TORSDOF 8
ENDMDL
