MODEL 1
REMARK VINA RESULT:      31.8      0.000      0.000
REMARK  5 active torsions:
REMARK  status: ('A' for Active; 'I' for Inactive)
REMARK    1  A    between atoms: O_2  and  S_1 
REMARK    2  A    between atoms: C_3  and  S_1 
REMARK    3  A    between atoms: C_6  and  O_2 
REMARK    4  A    between atoms: O_17  and  C_14 
REMARK    5  A    between atoms: C_20  and  O_17 
ROOT
ATOM      1  S   UNL d   1      13.491  11.922  -3.017  0.00  0.00     0.304 S 
ATOM      2  O   UNL d   1      12.771  11.863  -2.622  0.00  0.00    -0.193 OA
ATOM      3  O   UNL d   1      14.209  11.980  -3.411  0.00  0.00    -0.193 OA
ENDROOT
BRANCH   1   4
ATOM      4  O   UNL d   1      13.096  11.900  -3.738  0.00  0.00    -0.227 OA
BRANCH   4   5
ATOM      5  C   UNL d   1      13.197  12.513  -4.280  0.00  0.00     0.114 A 
ATOM      6  C   UNL d   1      12.934  13.278  -4.099  0.00  0.00     0.026 A 
ATOM      7  C   UNL d   1      13.035  13.886  -4.640  0.00  0.00     0.002 A 
ATOM      8  C   UNL d   1      12.773  14.647  -4.458  0.00  0.00     0.000 A 
ATOM      9  C   UNL d   1      13.400  13.738  -5.371  0.00  0.00     0.000 A 
ATOM     10  C   UNL d   1      12.873  15.263  -5.001  0.00  0.00     0.000 A 
ATOM     11  C   UNL d   1      13.238  15.115  -5.732  0.00  0.00     0.000 A 
ATOM     12  C   UNL d   1      13.501  14.351  -5.914  0.00  0.00     0.000 A 
ATOM     13  C   UNL d   1      13.662  12.982  -5.554  0.00  0.00     0.002 A 
ATOM     14  C   UNL d   1      13.562  12.364  -5.011  0.00  0.00     0.026 A 
ENDBRANCH   4   5
ENDBRANCH   1   4
BRANCH   1  15
ATOM     15  C   UNL d   1      13.885  11.943  -2.295  0.00  0.00     0.111 A 
ATOM     16  C   UNL d   1      13.478  11.780  -1.594  0.00  0.00     0.015 A 
ATOM     17  C   UNL d   1      13.873  11.802  -0.873  0.00  0.00     0.025 A 
ATOM     18  C   UNL d   1      14.679  11.985  -0.841  0.00  0.00     0.100 A 
ATOM     19  C   UNL d   1      15.082  12.147  -1.543  0.00  0.00     0.025 A 
ATOM     20  C   UNL d   1      14.687  12.126  -2.265  0.00  0.00     0.015 A 
BRANCH  18  21
ATOM     21  O   UNL d   1      15.074  12.006  -0.119  0.00  0.00    -0.305 OA
BRANCH  21  22
ATOM     22  C   UNL d   1      15.721  12.502  -0.019  0.00  0.00     0.123 C 
ATOM     23  C   UNL d   1      15.634  13.316  -0.104  0.00  0.00     0.029 C 
ENDBRANCH  21  22
ENDBRANCH  18  21
ENDBRANCH   1  15
TORSDOF 5
ENDMDL
