MODEL 1
REMARK VINA RESULT:      -1.9      0.000      0.000
REMARK  10 active torsions:
REMARK  status: ('A' for Active; 'I' for Inactive)
REMARK    1  A    between atoms: N_2  and  S_1 
REMARK    2  A    between atoms: C_12  and  S_1 
REMARK    3  A    between atoms: C_4  and  N_2 
REMARK    4  A    between atoms: O_22  and  C_6 
REMARK    5  A    between atoms: C_7  and  N_15 
REMARK    6  A    between atoms: N_8  and  C_7 
REMARK       I    between atoms: C_10  and  N_8 
REMARK    7  A    between atoms: O_23  and  C_9 
REMARK    8  A    between atoms: C_20  and  C_10 
REMARK    9  A    between atoms: N_15  and  C_21 
REMARK   10  A    between atoms: C_26  and  C_20 
ROOT
ATOM      1  C   UNL d   1      32.527  18.686 -23.377  0.00  0.00     0.105 A 
ATOM      2  C   UNL d   1      32.449  19.419 -23.712  0.00  0.00     0.015 A 
ATOM      3  C   UNL d   1      32.836  18.611 -22.626  0.00  0.00     0.015 A 
ATOM      4  C   UNL d   1      32.992  20.015 -22.541  0.00  0.00     0.084 A 
ATOM      5  C   UNL d   1      32.673  20.098 -23.317  0.00  0.00     0.020 A 
ATOM      6  C   UNL d   1      33.066  19.275 -22.216  0.00  0.00     0.020 A 
ENDROOT
BRANCH   1   7
ATOM      7  S   UNL d   1      32.292  17.987 -23.795  0.00  0.00     0.287 S 
ATOM      8  O   UNL d   1      32.301  17.566 -23.071  0.00  0.00    -0.198 OA
ATOM      9  O   UNL d   1      32.285  18.411 -24.507  0.00  0.00    -0.198 OA
BRANCH   7  10
ATOM     10  N   UNL d   1      32.060  17.289 -24.193  0.00  0.00    -0.139 NA
BRANCH  10  11
ATOM     11  C   UNL d   1      31.258  17.043 -24.197  0.00  0.00     0.182 A 
ATOM     12  N   UNL d   1      31.041  16.397 -23.790  0.00  0.00    -0.185 NA
ATOM     13  C   UNL d   1      30.254  16.131 -23.777  0.00  0.00     0.274 A 
ATOM     14  N   UNL d   1      29.692  16.548 -24.194  0.00  0.00    -0.181 NA
ATOM     15  C   UNL d   1      29.883  17.208 -24.616  0.00  0.00     0.185 A 
ATOM     16  C   UNL d   1      30.716  17.474 -24.620  0.00  0.00     0.084 A 
BRANCH  13  17
ATOM     17  O   UNL d   1      30.024  15.453 -23.351  0.00  0.00    -0.297 OA
ATOM     18  C   UNL d   1      29.405  15.482 -22.799  0.00  0.00     0.185 C 
ENDBRANCH  13  17
BRANCH  15  19
ATOM     19  O   UNL d   1      29.287  17.612 -25.032  0.00  0.00    -0.312 OA
ATOM     20  C   UNL d   1      29.001  18.327 -24.731  0.00  0.00     0.183 C 
ENDBRANCH  15  19
ENDBRANCH  10  11
ENDBRANCH   7  10
ENDBRANCH   1   7
BRANCH   4  21
ATOM     21  N   UNL d   1      33.234  20.685 -22.103  0.00  0.00    -0.217 NA
BRANCH  21  22
ATOM     22  C   UNL d   1      32.819  21.390 -22.206  0.00  0.00     0.223 C 
ATOM     23  S   UNL d   1      32.912  21.848 -22.891  0.00  0.00    -0.037 SA
BRANCH  22  24
ATOM     24  N   UNL d   1      32.301  21.643 -21.615  0.00  0.00    -0.179 NA
ATOM     25  C   UNL d   1      32.393  22.391 -21.263  0.00  0.00     0.281 C 
ATOM     26  O   UNL d   1      33.011  22.885 -21.509  0.00  0.00    -0.265 OA
BRANCH  25  27
ATOM     27  C   UNL d   1      31.875  22.641 -20.672  0.00  0.00     0.063 C 
BRANCH  27  28
ATOM     28  C   UNL d   1      32.094  23.228 -20.135  0.00  0.00     0.005 C 
ATOM     29  C   UNL d   1      32.902  23.355 -19.919  0.00  0.00     0.000 C 
ATOM     30  C   UNL d   1      31.510  23.702 -19.801  0.00  0.00     0.000 C 
ENDBRANCH  27  28
ENDBRANCH  25  27
ENDBRANCH  22  24
ENDBRANCH  21  22
ENDBRANCH   4  21
TORSDOF 10
ENDMDL
MODEL 2
REMARK VINA RESULT:      -1.1      0.806      1.644
REMARK  10 active torsions:
REMARK  status: ('A' for Active; 'I' for Inactive)
REMARK    1  A    between atoms: N_2  and  S_1 
REMARK    2  A    between atoms: C_12  and  S_1 
REMARK    3  A    between atoms: C_4  and  N_2 
REMARK    4  A    between atoms: O_22  and  C_6 
REMARK    5  A    between atoms: C_7  and  N_15 
REMARK    6  A    between atoms: N_8  and  C_7 
REMARK       I    between atoms: C_10  and  N_8 
REMARK    7  A    between atoms: O_23  and  C_9 
REMARK    8  A    between atoms: C_20  and  C_10 
REMARK    9  A    between atoms: N_15  and  C_21 
REMARK   10  A    between atoms: C_26  and  C_20 
ROOT
ATOM      1  C   UNL d   1      32.283  18.511 -23.760  0.00  0.00     0.105 A 
ATOM      2  C   UNL d   1      32.677  18.479 -23.053  0.00  0.00     0.015 A 
ATOM      3  C   UNL d   1      32.205  19.222 -24.151  0.00  0.00     0.015 A 
ATOM      4  C   UNL d   1      32.918  19.878 -23.120  0.00  0.00     0.084 A 
ATOM      5  C   UNL d   1      33.002  19.145 -22.712  0.00  0.00     0.020 A 
ATOM      6  C   UNL d   1      32.522  19.897 -23.828  0.00  0.00     0.020 A 
ENDROOT
BRANCH   1   7
ATOM      7  S   UNL d   1      31.948  17.813 -24.106  0.00  0.00     0.287 S 
ATOM      8  O   UNL d   1      31.703  18.272 -24.762  0.00  0.00    -0.198 OA
ATOM      9  O   UNL d   1      32.194  17.367 -23.453  0.00  0.00    -0.198 OA
BRANCH   7  10
ATOM     10  N   UNL d   1      31.613  17.134 -24.460  0.00  0.00    -0.139 NA
BRANCH  10  11
ATOM     11  C   UNL d   1      30.840  16.881 -24.258  0.00  0.00     0.182 A 
ATOM     12  N   UNL d   1      30.211  17.212 -24.612  0.00  0.00    -0.185 NA
ATOM     13  C   UNL d   1      29.434  16.981 -24.430  0.00  0.00     0.274 A 
ATOM     14  N   UNL d   1      29.318  16.398 -23.873  0.00  0.00    -0.181 NA
ATOM     15  C   UNL d   1      29.937  16.044 -23.497  0.00  0.00     0.185 A 
ATOM     16  C   UNL d   1      30.749  16.299 -23.700  0.00  0.00     0.084 A 
BRANCH  13  17
ATOM     17  O   UNL d   1      28.772  17.327 -24.801  0.00  0.00    -0.297 OA
ATOM     18  C   UNL d   1      28.438  18.030 -24.514  0.00  0.00     0.185 C 
ENDBRANCH  13  17
BRANCH  15  19
ATOM     19  O   UNL d   1      29.787  15.453 -22.933  0.00  0.00    -0.312 OA
ATOM     20  C   UNL d   1      29.120  15.518 -22.449  0.00  0.00     0.183 C 
ENDBRANCH  15  19
ENDBRANCH  10  11
ENDBRANCH   7  10
ENDBRANCH   1   7
BRANCH   4  21
ATOM     21  N   UNL d   1      33.237  20.584 -22.805  0.00  0.00    -0.217 NA
BRANCH  21  22
ATOM     22  C   UNL d   1      32.990  20.825 -22.057  0.00  0.00     0.223 C 
ATOM     23  S   UNL d   1      32.690  20.282 -21.507  0.00  0.00    -0.037 SA
BRANCH  22  24
ATOM     24  N   UNL d   1      33.042  21.623 -21.853  0.00  0.00    -0.179 NA
ATOM     25  C   UNL d   1      33.071  21.855 -21.055  0.00  0.00     0.281 C 
ATOM     26  O   UNL d   1      33.048  21.279 -20.461  0.00  0.00    -0.265 OA
BRANCH  25  27
ATOM     27  C   UNL d   1      33.123  22.654 -20.854  0.00  0.00     0.063 C 
BRANCH  27  28
ATOM     28  C   UNL d   1      32.519  23.027 -20.433  0.00  0.00     0.005 C 
ATOM     29  C   UNL d   1      31.871  23.405 -20.825  0.00  0.00     0.000 C 
ATOM     30  C   UNL d   1      32.548  23.030 -19.611  0.00  0.00     0.000 C 
ENDBRANCH  27  28
ENDBRANCH  25  27
ENDBRANCH  22  24
ENDBRANCH  21  22
ENDBRANCH   4  21
TORSDOF 10
ENDMDL
MODEL 3
REMARK VINA RESULT:      -0.8      1.365      5.962
REMARK  10 active torsions:
REMARK  status: ('A' for Active; 'I' for Inactive)
REMARK    1  A    between atoms: N_2  and  S_1 
REMARK    2  A    between atoms: C_12  and  S_1 
REMARK    3  A    between atoms: C_4  and  N_2 
REMARK    4  A    between atoms: O_22  and  C_6 
REMARK    5  A    between atoms: C_7  and  N_15 
REMARK    6  A    between atoms: N_8  and  C_7 
REMARK       I    between atoms: C_10  and  N_8 
REMARK    7  A    between atoms: O_23  and  C_9 
REMARK    8  A    between atoms: C_20  and  C_10 
REMARK    9  A    between atoms: N_15  and  C_21 
REMARK   10  A    between atoms: C_26  and  C_20 
ROOT
ATOM      1  C   UNL d   1      32.446  19.037 -23.357  0.00  0.00     0.105 A 
ATOM      2  C   UNL d   1      32.149  19.221 -24.088  0.00  0.00     0.015 A 
ATOM      3  C   UNL d   1      32.359  18.283 -23.061  0.00  0.00     0.015 A 
ATOM      4  C   UNL d   1      31.673  17.890 -24.235  0.00  0.00     0.084 A 
ATOM      5  C   UNL d   1      31.760  18.669 -24.546  0.00  0.00     0.020 A 
ATOM      6  C   UNL d   1      31.974  17.718 -23.501  0.00  0.00     0.020 A 
ENDROOT
BRANCH   1   7
ATOM      7  S   UNL d   1      32.848  19.619 -22.889  0.00  0.00     0.287 S 
ATOM      8  O   UNL d   1      32.598  19.218 -22.199  0.00  0.00    -0.198 OA
ATOM      9  O   UNL d   1      33.092  20.009 -23.578  0.00  0.00    -0.198 OA
BRANCH   7  10
ATOM     10  N   UNL d   1      33.240  20.184 -22.414  0.00  0.00    -0.139 NA
BRANCH  10  11
ATOM     11  C   UNL d   1      32.919  20.950 -22.305  0.00  0.00     0.182 A 
ATOM     12  N   UNL d   1      33.075  21.523 -22.832  0.00  0.00    -0.185 NA
ATOM     13  C   UNL d   1      32.769  22.291 -22.749  0.00  0.00     0.274 A 
ATOM     14  N   UNL d   1      32.297  22.458 -22.107  0.00  0.00    -0.181 NA
ATOM     15  C   UNL d   1      32.121  21.897 -21.555  0.00  0.00     0.185 A 
ATOM     16  C   UNL d   1      32.451  21.093 -21.658  0.00  0.00     0.084 A 
BRANCH  13  17
ATOM     17  O   UNL d   1      32.932  22.894 -23.301  0.00  0.00    -0.297 OA
ATOM     18  C   UNL d   1      32.324  23.252 -23.738  0.00  0.00     0.185 C 
ENDBRANCH  13  17
BRANCH  15  19
ATOM     19  O   UNL d   1      31.636  22.097 -20.911  0.00  0.00    -0.312 OA
ATOM     20  C   UNL d   1      31.921  21.984 -20.143  0.00  0.00     0.183 C 
ENDBRANCH  15  19
ENDBRANCH  10  11
ENDBRANCH   7  10
ENDBRANCH   1   7
BRANCH   4  21
ATOM     21  N   UNL d   1      31.281  17.294 -24.671  0.00  0.00    -0.217 NA
BRANCH  21  22
ATOM     22  C   UNL d   1      30.851  16.725 -24.258  0.00  0.00     0.223 C 
ATOM     23  S   UNL d   1      31.202  16.016 -24.011  0.00  0.00    -0.037 SA
BRANCH  22  24
ATOM     24  N   UNL d   1      30.056  16.866 -24.087  0.00  0.00    -0.179 NA
ATOM     25  C   UNL d   1      29.474  16.309 -24.291  0.00  0.00     0.281 C 
ATOM     26  O   UNL d   1      29.696  15.606 -24.668  0.00  0.00    -0.265 OA
BRANCH  25  27
ATOM     27  C   UNL d   1      28.680  16.453 -24.119  0.00  0.00     0.063 C 
BRANCH  27  28
ATOM     28  C   UNL d   1      28.164  15.833 -23.939  0.00  0.00     0.005 C 
ATOM     29  C   UNL d   1      27.567  15.580 -24.482  0.00  0.00     0.000 C 
ATOM     30  C   UNL d   1      28.235  15.453 -23.214  0.00  0.00     0.000 C 
ENDBRANCH  27  28
ENDBRANCH  25  27
ENDBRANCH  22  24
ENDBRANCH  21  22
ENDBRANCH   4  21
TORSDOF 10
ENDMDL
MODEL 4
REMARK VINA RESULT:      -0.8      1.274      5.781
REMARK  10 active torsions:
REMARK  status: ('A' for Active; 'I' for Inactive)
REMARK    1  A    between atoms: N_2  and  S_1 
REMARK    2  A    between atoms: C_12  and  S_1 
REMARK    3  A    between atoms: C_4  and  N_2 
REMARK    4  A    between atoms: O_22  and  C_6 
REMARK    5  A    between atoms: C_7  and  N_15 
REMARK    6  A    between atoms: N_8  and  C_7 
REMARK       I    between atoms: C_10  and  N_8 
REMARK    7  A    between atoms: O_23  and  C_9 
REMARK    8  A    between atoms: C_20  and  C_10 
REMARK    9  A    between atoms: N_15  and  C_21 
REMARK   10  A    between atoms: C_26  and  C_20 
ROOT
ATOM      1  C   UNL d   1      32.635  18.929 -23.388  0.00  0.00     0.105 A 
ATOM      2  C   UNL d   1      32.427  19.200 -24.122  0.00  0.00     0.015 A 
ATOM      3  C   UNL d   1      32.550  18.139 -23.206  0.00  0.00     0.015 A 
ATOM      4  C   UNL d   1      32.043  17.885 -24.502  0.00  0.00     0.084 A 
ATOM      5  C   UNL d   1      32.129  18.702 -24.696  0.00  0.00     0.020 A 
ATOM      6  C   UNL d   1      32.255  17.626 -23.763  0.00  0.00     0.020 A 
ENDROOT
BRANCH   1   7
ATOM      7  S   UNL d   1      32.943  19.455 -22.798  0.00  0.00     0.287 S 
ATOM      8  O   UNL d   1      32.639  18.949 -22.205  0.00  0.00    -0.198 OA
ATOM      9  O   UNL d   1      33.241  19.951 -23.392  0.00  0.00    -0.198 OA
BRANCH   7  10
ATOM     10  N   UNL d   1      33.241  19.964 -22.205  0.00  0.00    -0.139 NA
BRANCH  10  11
ATOM     11  C   UNL d   1      32.985  20.761 -22.155  0.00  0.00     0.182 A 
ATOM     12  N   UNL d   1      32.500  20.983 -21.568  0.00  0.00    -0.185 NA
ATOM     13  C   UNL d   1      32.230  21.766 -21.494  0.00  0.00     0.274 A 
ATOM     14  N   UNL d   1      32.474  22.317 -22.040  0.00  0.00    -0.181 NA
ATOM     15  C   UNL d   1      32.967  22.121 -22.648  0.00  0.00     0.185 A 
ATOM     16  C   UNL d   1      33.241  21.293 -22.712  0.00  0.00     0.084 A 
BRANCH  13  17
ATOM     17  O   UNL d   1      31.721  22.001 -20.878  0.00  0.00    -0.297 OA
ATOM     18  C   UNL d   1      31.819  22.730 -20.493  0.00  0.00     0.185 C 
ENDBRANCH  13  17
BRANCH  15  19
ATOM     19  O   UNL d   1      33.198  22.706 -23.191  0.00  0.00    -0.312 OA
ATOM     20  C   UNL d   1      33.157  23.502 -22.967  0.00  0.00     0.183 C 
ENDBRANCH  15  19
ENDBRANCH  10  11
ENDBRANCH   7  10
ENDBRANCH   1   7
BRANCH   4  21
ATOM     21  N   UNL d   1      31.742  17.341 -25.062  0.00  0.00    -0.217 NA
BRANCH  21  22
ATOM     22  C   UNL d   1      31.226  16.754 -24.798  0.00  0.00     0.223 C 
ATOM     23  S   UNL d   1      31.510  16.037 -24.494  0.00  0.00    -0.037 SA
BRANCH  22  24
ATOM     24  N   UNL d   1      30.413  16.885 -24.838  0.00  0.00    -0.179 NA
ATOM     25  C   UNL d   1      29.876  16.280 -24.645  0.00  0.00     0.281 C 
ATOM     26  O   UNL d   1      30.163  15.540 -24.410  0.00  0.00    -0.265 OA
BRANCH  25  27
ATOM     27  C   UNL d   1      29.063  16.414 -24.686  0.00  0.00     0.063 C 
BRANCH  27  28
ATOM     28  C   UNL d   1      28.590  16.373 -24.010  0.00  0.00     0.005 C 
ATOM     29  C   UNL d   1      28.295  15.635 -23.719  0.00  0.00     0.000 C 
ATOM     30  C   UNL d   1      28.403  17.066 -23.611  0.00  0.00     0.000 C 
ENDBRANCH  27  28
ENDBRANCH  25  27
ENDBRANCH  22  24
ENDBRANCH  21  22
ENDBRANCH   4  21
TORSDOF 10
ENDMDL
