MODEL 1
REMARK VINA RESULT:      -1.4      0.000      0.000
REMARK  3 active torsions:
REMARK  status: ('A' for Active; 'I' for Inactive)
REMARK    1  A    between atoms: N_2  and  S_1 
REMARK    2  A    between atoms: C_5  and  S_1 
REMARK    3  A    between atoms: C_4  and  C_3 
ROOT
ATOM      1  N   UNL d   1     -41.680-123.366 -49.868  0.00  0.00    -0.223 N 
ATOM      2  C   UNL d   1     -42.373-123.223 -49.434  0.00  0.00     0.127 A 
ATOM      3  S   UNL d   1     -42.245-123.478 -48.660  0.00  0.00    -0.065 SA
ATOM      4  C   UNL d   1     -41.126-123.708 -49.361  0.00  0.00     0.099 A 
ATOM      5  C   UNL d   1     -41.472-123.778 -48.615  0.00  0.00     0.057 A 
ENDROOT
BRANCH   1   6
ATOM      6  S   UNL d   1     -41.564-123.194 -50.673  0.00  0.00     0.272 S 
ATOM      7  O   UNL d   1     -41.361-122.438 -50.906  0.00  0.00    -0.200 OA
ATOM      8  O   UNL d   1     -41.656-123.794 -51.229  0.00  0.00    -0.200 OA
BRANCH   6   9
ATOM      9  C   UNL d   1     -41.458-123.065 -51.479  0.00  0.00     0.104 A 
ATOM     10  C   UNL d   1     -41.252-122.320 -51.759  0.00  0.00     0.014 A 
ATOM     11  C   UNL d   1     -41.147-122.194 -52.563  0.00  0.00     0.012 A 
ATOM     12  C   UNL d   1     -41.249-122.820 -53.096  0.00  0.00     0.058 A 
ATOM     13  C   UNL d   1     -41.458-123.574 -52.811  0.00  0.00     0.012 A 
ATOM     14 CL   UNL d   1     -41.144-122.697 -53.902  0.00  0.00    -0.082 Cl
ATOM     15  C   UNL d   1     -41.561-123.692 -52.003  0.00  0.00     0.014 A 
ENDBRANCH   6   9
ENDBRANCH   1   6
BRANCH   2  16
ATOM     16  C   UNL d   1     -43.064-122.889 -49.723  0.00  0.00     0.123 A 
ATOM     17  O   UNL d   1     -43.696-123.295 -50.064  0.00  0.00    -0.303 OA
ATOM     18  C   UNL d   1     -44.271-122.745 -50.275  0.00  0.00     0.123 A 
ATOM     19  C   UNL d   1     -43.997-121.993 -50.066  0.00  0.00     0.029 A 
ATOM     20  C   UNL d   1     -43.250-122.085 -49.724  0.00  0.00     0.029 A 
ENDBRANCH   2  16
TORSDOF 3
ENDMDL
MODEL 2
REMARK VINA RESULT:       0.3      1.796      3.380
REMARK  3 active torsions:
REMARK  status: ('A' for Active; 'I' for Inactive)
REMARK    1  A    between atoms: N_2  and  S_1 
REMARK    2  A    between atoms: C_5  and  S_1 
REMARK    3  A    between atoms: C_4  and  C_3 
ROOT
ATOM      1  N   UNL d   1     -41.549-123.175 -51.808  0.00  0.00    -0.223 N 
ATOM      2  C   UNL d   1     -41.340-122.486 -52.223  0.00  0.00     0.127 A 
ATOM      3  S   UNL d   1     -41.125-122.707 -52.988  0.00  0.00    -0.065 SA
ATOM      4  C   UNL d   1     -41.464-123.817 -52.320  0.00  0.00     0.099 A 
ATOM      5  C   UNL d   1     -41.203-123.531 -53.047  0.00  0.00     0.057 A 
ENDROOT
BRANCH   1   6
ATOM      6  S   UNL d   1     -41.801-123.211 -51.017  0.00  0.00     0.272 S 
ATOM      7  O   UNL d   1     -42.571-123.018 -50.822  0.00  0.00    -0.200 OA
ATOM      8  O   UNL d   1     -41.266-123.443 -50.436  0.00  0.00    -0.200 OA
BRANCH   6   9
ATOM      9  C   UNL d   1     -42.011-123.260 -50.223  0.00  0.00     0.104 A 
ATOM     10  C   UNL d   1     -42.784-123.110 -49.985  0.00  0.00     0.014 A 
ATOM     11  C   UNL d   1     -42.991-123.159 -49.192  0.00  0.00     0.012 A 
ATOM     12  C   UNL d   1     -42.419-123.360 -48.628  0.00  0.00     0.058 A 
ATOM     13  C   UNL d   1     -41.636-123.512 -48.870  0.00  0.00     0.012 A 
ATOM     14 CL   UNL d   1     -42.622-123.410 -47.833  0.00  0.00    -0.082 Cl
ATOM     15  C   UNL d   1     -41.437-123.460 -49.667  0.00  0.00     0.014 A 
ENDBRANCH   6   9
ENDBRANCH   1   6
BRANCH   2  16
ATOM     16  C   UNL d   1     -41.344-121.723 -51.924  0.00  0.00     0.123 A 
ATOM     17  O   UNL d   1     -41.124-121.497 -51.161  0.00  0.00    -0.303 OA
ATOM     18  C   UNL d   1     -41.213-120.681 -51.099  0.00  0.00     0.123 A 
ATOM     19  C   UNL d   1     -41.490-120.397 -51.824  0.00  0.00     0.029 A 
ATOM     20  C   UNL d   1     -41.571-121.044 -52.333  0.00  0.00     0.029 A 
ENDBRANCH   2  16
TORSDOF 3
ENDMDL
MODEL 3
REMARK VINA RESULT:       0.4      2.454      3.983
REMARK  3 active torsions:
REMARK  status: ('A' for Active; 'I' for Inactive)
REMARK    1  A    between atoms: N_2  and  S_1 
REMARK    2  A    between atoms: C_5  and  S_1 
REMARK    3  A    between atoms: C_4  and  C_3 
ROOT
ATOM      1  N   UNL d   1     -41.504-123.157 -53.996  0.00  0.00    -0.223 N 
ATOM      2  C   UNL d   1     -41.883-122.742 -54.606  0.00  0.00     0.127 A 
ATOM      3  S   UNL d   1     -41.739-123.142 -55.313  0.00  0.00    -0.065 SA
ATOM      4  C   UNL d   1     -41.127-123.813 -54.327  0.00  0.00     0.099 A 
ATOM      5  C   UNL d   1     -41.271-123.806 -55.139  0.00  0.00     0.057 A 
ENDROOT
BRANCH   1   6
ATOM      6  S   UNL d   1     -41.503-122.950 -53.191  0.00  0.00     0.272 S 
ATOM      7  O   UNL d   1     -41.126-122.269 -52.943  0.00  0.00    -0.200 OA
ATOM      8  O   UNL d   1     -41.887-123.438 -52.650  0.00  0.00    -0.200 OA
BRANCH   6   9
ATOM      9  C   UNL d   1     -41.526-122.780 -52.386  0.00  0.00     0.104 A 
ATOM     10  C   UNL d   1     -41.904-123.290 -51.863  0.00  0.00     0.014 A 
ATOM     11  C   UNL d   1     -41.925-123.118 -51.060  0.00  0.00     0.012 A 
ATOM     12  C   UNL d   1     -41.565-122.429 -50.775  0.00  0.00     0.058 A 
ATOM     13  C   UNL d   1     -41.183-121.914 -51.307  0.00  0.00     0.012 A 
ATOM     14 CL   UNL d   1     -41.584-122.254 -49.972  0.00  0.00    -0.082 Cl
ATOM     15  C   UNL d   1     -41.165-122.092 -52.110  0.00  0.00     0.014 A 
ENDBRANCH   6   9
ENDBRANCH   1   6
BRANCH   2  16
ATOM     16  C   UNL d   1     -42.323-122.055 -54.523  0.00  0.00     0.123 A 
ATOM     17  O   UNL d   1     -43.084-122.000 -54.206  0.00  0.00    -0.303 OA
ATOM     18  C   UNL d   1     -43.313-121.209 -54.228  0.00  0.00     0.123 A 
ATOM     19  C   UNL d   1     -42.696-120.770 -54.558  0.00  0.00     0.029 A 
ATOM     20  C   UNL d   1     -42.083-121.296 -54.740  0.00  0.00     0.029 A 
ENDBRANCH   2  16
TORSDOF 3
ENDMDL
