MODEL 1
REMARK VINA RESULT:      -9.3      0.000      0.000
REMARK  2 active torsions:
REMARK  status: ('A' for Active; 'I' for Inactive)
REMARK    1  A    between atoms: C_6  and  C_1 
REMARK    2  A    between atoms: C_7  and  C_5 
ROOT
ATOM      1  C   UNL d   1      53.040  30.742  53.199  0.00  0.00     0.169 A 
ATOM      2  C   UNL d   1      53.607  30.691  53.693  0.00  0.00     0.048 A 
ATOM      3  N   UNL d   1      53.082  32.051  53.285  0.00  0.00    -0.148 NA
ATOM      4  N   UNL d   1      52.773  31.421  52.991  0.00  0.00    -0.142 NA
ATOM      5  C   UNL d   1      53.649  32.000  53.780  0.00  0.00     0.105 A 
ENDROOT
BRANCH   5   6
ATOM      6  C   UNL d   1      54.107  32.538  54.201  0.00  0.00     0.020 A 
ATOM      7  C   UNL d   1      53.969  32.663  55.007  0.00  0.00     0.004 A 
ATOM      8  C   UNL d   1      54.431  33.205  55.430  0.00  0.00     0.030 A 
ATOM      9  C   UNL d   1      55.033  33.624  55.046  0.00  0.00     0.140 A 
ATOM     10  C   UNL d   1      55.170  33.495  54.231  0.00  0.00     0.030 A 
ATOM     11  F   UNL d   1      55.490  34.159  55.459  0.00  0.00    -0.204 F 
ATOM     12  C   UNL d   1      54.706  32.954  53.817  0.00  0.00     0.004 A 
ENDBRANCH   5   6
BRANCH   1  13
ATOM     13  C   UNL d   1      52.730  30.111  52.904  0.00  0.00     0.231 C 
ATOM     14  O   UNL d   1      52.365  29.625  53.349  0.00  0.00    -0.643 OA
ATOM     15  O   UNL d   1      52.794  29.978  52.161  0.00  0.00    -0.643 OA
ENDBRANCH   1  13
TORSDOF 2
ENDMDL
MODEL 2
REMARK VINA RESULT:      -9.2      2.726      3.821
REMARK  2 active torsions:
REMARK  status: ('A' for Active; 'I' for Inactive)
REMARK    1  A    between atoms: C_6  and  C_1 
REMARK    2  A    between atoms: C_7  and  C_5 
ROOT
ATOM      1  C   UNL d   1      54.487  33.298  54.680  0.00  0.00     0.169 A 
ATOM      2  C   UNL d   1      54.028  32.794  55.002  0.00  0.00     0.048 A 
ATOM      3  N   UNL d   1      54.429  32.630  53.551  0.00  0.00    -0.148 NA
ATOM      4  N   UNL d   1      54.691  33.221  53.953  0.00  0.00    -0.142 NA
ATOM      5  C   UNL d   1      53.970  32.126  53.873  0.00  0.00     0.105 A 
ENDROOT
BRANCH   5   6
ATOM      6  C   UNL d   1      53.588  31.441  53.624  0.00  0.00     0.020 A 
ATOM      7  C   UNL d   1      52.958  31.484  53.089  0.00  0.00     0.004 A 
ATOM      8  C   UNL d   1      52.575  30.794  52.839  0.00  0.00     0.030 A 
ATOM      9  C   UNL d   1      52.821  30.058  53.126  0.00  0.00     0.140 A 
ATOM     10  C   UNL d   1      53.458  30.017  53.667  0.00  0.00     0.030 A 
ATOM     11  F   UNL d   1      52.446  29.375  52.883  0.00  0.00    -0.204 F 
ATOM     12  C   UNL d   1      53.834  30.709  53.910  0.00  0.00     0.004 A 
ENDBRANCH   5   6
BRANCH   1  13
ATOM     13  C   UNL d   1      54.750  33.889  55.082  0.00  0.00     0.231 C 
ATOM     14  O   UNL d   1      55.447  33.873  55.367  0.00  0.00    -0.643 OA
ATOM     15  O   UNL d   1      54.304  34.492  55.192  0.00  0.00    -0.643 OA
ENDBRANCH   1  13
TORSDOF 2
ENDMDL
MODEL 3
REMARK VINA RESULT:      -8.5      1.749      1.844
REMARK  2 active torsions:
REMARK  status: ('A' for Active; 'I' for Inactive)
REMARK    1  A    between atoms: C_6  and  C_1 
REMARK    2  A    between atoms: C_7  and  C_5 
ROOT
ATOM      1  C   UNL d   1      53.019  31.297  53.103  0.00  0.00     0.169 A 
ATOM      2  C   UNL d   1      53.358  31.642  53.682  0.00  0.00     0.048 A 
ATOM      3  N   UNL d   1      52.513  32.445  52.715  0.00  0.00    -0.148 NA
ATOM      4  N   UNL d   1      52.594  31.694  52.616  0.00  0.00    -0.142 NA
ATOM      5  C   UNL d   1      52.853  32.790  53.293  0.00  0.00     0.105 A 
ENDROOT
BRANCH   5   6
ATOM      6  C   UNL d   1      52.893  33.563  53.570  0.00  0.00     0.020 A 
ATOM      7  C   UNL d   1      53.309  33.738  54.264  0.00  0.00     0.004 A 
ATOM      8  C   UNL d   1      53.348  34.517  54.541  0.00  0.00     0.030 A 
ATOM      9  C   UNL d   1      52.971  35.125  54.124  0.00  0.00     0.140 A 
ATOM     10  C   UNL d   1      52.552  34.945  53.423  0.00  0.00     0.030 A 
ATOM     11  F   UNL d   1      53.007  35.894  54.393  0.00  0.00    -0.204 F 
ATOM     12  C   UNL d   1      52.517  34.167  53.153  0.00  0.00     0.004 A 
ENDBRANCH   5   6
BRANCH   1  13
ATOM     13  C   UNL d   1      53.099  30.546  53.004  0.00  0.00     0.231 C 
ATOM     14  O   UNL d   1      52.956  30.235  52.333  0.00  0.00    -0.643 OA
ATOM     15  O   UNL d   1      53.325  30.116  53.586  0.00  0.00    -0.643 OA
ENDBRANCH   1  13
TORSDOF 2
ENDMDL
MODEL 4
REMARK VINA RESULT:      -8.4      2.567      2.875
REMARK  2 active torsions:
REMARK  status: ('A' for Active; 'I' for Inactive)
REMARK    1  A    between atoms: C_6  and  C_1 
REMARK    2  A    between atoms: C_7  and  C_5 
ROOT
ATOM      1  C   UNL d   1      51.407  33.997  52.875  0.00  0.00     0.169 A 
ATOM      2  C   UNL d   1      51.988  34.467  52.971  0.00  0.00     0.048 A 
ATOM      3  N   UNL d   1      52.024  33.088  53.595  0.00  0.00    -0.148 NA
ATOM      4  N   UNL d   1      51.419  33.304  53.186  0.00  0.00    -0.142 NA
ATOM      5  C   UNL d   1      52.605  33.559  53.691  0.00  0.00     0.105 A 
ENDROOT
BRANCH   5   6
ATOM      6  C   UNL d   1      53.327  33.522  54.082  0.00  0.00     0.020 A 
ATOM      7  C   UNL d   1      53.938  33.047  53.789  0.00  0.00     0.004 A 
ATOM      8  C   UNL d   1      54.665  33.011  54.184  0.00  0.00     0.030 A 
ATOM      9  C   UNL d   1      54.783  33.452  54.875  0.00  0.00     0.140 A 
ATOM     10  C   UNL d   1      54.164  33.931  55.168  0.00  0.00     0.030 A 
ATOM     11  F   UNL d   1      55.498  33.420  55.267  0.00  0.00    -0.204 F 
ATOM     12  C   UNL d   1      53.443  33.962  54.769  0.00  0.00     0.004 A 
ENDBRANCH   5   6
BRANCH   1  13
ATOM     13  C   UNL d   1      50.802  34.213  52.466  0.00  0.00     0.231 C 
ATOM     14  O   UNL d   1      50.155  34.390  52.810  0.00  0.00    -0.643 OA
ATOM     15  O   UNL d   1      50.857  34.249  51.711  0.00  0.00    -0.643 OA
ENDBRANCH   1  13
TORSDOF 2
ENDMDL
MODEL 5
REMARK VINA RESULT:      -8.3      2.936      3.809
REMARK  2 active torsions:
REMARK  status: ('A' for Active; 'I' for Inactive)
REMARK    1  A    between atoms: C_6  and  C_1 
REMARK    2  A    between atoms: C_7  and  C_5 
ROOT
ATOM      1  C   UNL d   1      53.046  34.501  54.066  0.00  0.00     0.169 A 
ATOM      2  C   UNL d   1      53.226  33.930  54.524  0.00  0.00     0.048 A 
ATOM      3  N   UNL d   1      52.885  33.656  53.074  0.00  0.00    -0.148 NA
ATOM      4  N   UNL d   1      52.873  34.370  53.339  0.00  0.00    -0.142 NA
ATOM      5  C   UNL d   1      53.066  33.085  53.532  0.00  0.00     0.105 A 
ENDROOT
BRANCH   5   6
ATOM      6  C   UNL d   1      53.135  32.269  53.449  0.00  0.00     0.020 A 
ATOM      7  C   UNL d   1      53.740  31.859  53.839  0.00  0.00     0.004 A 
ATOM      8  C   UNL d   1      53.808  31.039  53.755  0.00  0.00     0.030 A 
ATOM      9  C   UNL d   1      53.271  30.625  53.280  0.00  0.00     0.140 A 
ATOM     10  C   UNL d   1      52.661  31.042  52.888  0.00  0.00     0.030 A 
ATOM     11  F   UNL d   1      53.334  29.816  53.194  0.00  0.00    -0.204 F 
ATOM     12  C   UNL d   1      52.599  31.859  52.977  0.00  0.00     0.004 A 
ENDBRANCH   5   6
BRANCH   1  13
ATOM     13  C   UNL d   1      53.034  35.215  54.330  0.00  0.00     0.231 C 
ATOM     14  O   UNL d   1      53.618  35.482  54.726  0.00  0.00    -0.643 OA
ATOM     15  O   UNL d   1      52.432  35.654  54.192  0.00  0.00    -0.643 OA
ENDBRANCH   1  13
TORSDOF 2
ENDMDL
MODEL 6
REMARK VINA RESULT:      -8.3      3.418      4.061
REMARK  2 active torsions:
REMARK  status: ('A' for Active; 'I' for Inactive)
REMARK    1  A    between atoms: C_6  and  C_1 
REMARK    2  A    between atoms: C_7  and  C_5 
ROOT
ATOM      1  C   UNL d   1      54.076  33.753  54.832  0.00  0.00     0.169 A 
ATOM      2  C   UNL d   1      53.826  33.278  54.303  0.00  0.00     0.048 A 
ATOM      3  N   UNL d   1      53.095  34.580  54.555  0.00  0.00    -0.148 NA
ATOM      4  N   UNL d   1      53.714  34.407  54.963  0.00  0.00    -0.142 NA
ATOM      5  C   UNL d   1      52.844  34.106  54.026  0.00  0.00     0.105 A 
ENDROOT
BRANCH   5   6
ATOM      6  C   UNL d   1      52.218  34.103  53.493  0.00  0.00     0.020 A 
ATOM      7  C   UNL d   1      51.507  33.724  53.686  0.00  0.00     0.004 A 
ATOM      8  C   UNL d   1      50.877  33.722  53.149  0.00  0.00     0.030 A 
ATOM      9  C   UNL d   1      50.956  34.100  52.417  0.00  0.00     0.140 A 
ATOM     10  C   UNL d   1      51.675  34.482  52.225  0.00  0.00     0.030 A 
ATOM     11  F   UNL d   1      50.337  34.101  51.884  0.00  0.00    -0.204 F 
ATOM     12  C   UNL d   1      52.298  34.479  52.765  0.00  0.00     0.004 A 
ENDBRANCH   5   6
BRANCH   1  13
ATOM     13  C   UNL d   1      54.695  33.579  55.240  0.00  0.00     0.231 C 
ATOM     14  O   UNL d   1      55.291  34.042  55.241  0.00  0.00    -0.643 OA
ATOM     15  O   UNL d   1      54.707  32.938  55.645  0.00  0.00    -0.643 OA
ENDBRANCH   1  13
TORSDOF 2
ENDMDL
MODEL 7
REMARK VINA RESULT:      -7.4      0.603      1.078
REMARK  2 active torsions:
REMARK  status: ('A' for Active; 'I' for Inactive)
REMARK    1  A    between atoms: C_6  and  C_1 
REMARK    2  A    between atoms: C_7  and  C_5 
ROOT
ATOM      1  C   UNL d   1      53.045  30.525  53.311  0.00  0.00     0.169 A 
ATOM      2  C   UNL d   1      52.742  31.057  53.752  0.00  0.00     0.048 A 
ATOM      3  N   UNL d   1      54.213  31.120  53.397  0.00  0.00    -0.148 NA
ATOM      4  N   UNL d   1      53.782  30.552  53.130  0.00  0.00    -0.142 NA
ATOM      5  C   UNL d   1      53.910  31.652  53.837  0.00  0.00     0.105 A 
ENDROOT
BRANCH   5   6
ATOM      6  C   UNL d   1      54.190  32.326  54.216  0.00  0.00     0.020 A 
ATOM      7  C   UNL d   1      54.680  32.859  53.813  0.00  0.00     0.004 A 
ATOM      8  C   UNL d   1      54.961  33.537  54.196  0.00  0.00     0.030 A 
ATOM      9  C   UNL d   1      54.753  33.685  54.983  0.00  0.00     0.140 A 
ATOM     10  C   UNL d   1      54.257  33.145  55.387  0.00  0.00     0.030 A 
ATOM     11  F   UNL d   1      55.027  34.352  55.364  0.00  0.00    -0.204 F 
ATOM     12  C   UNL d   1      53.981  32.472  54.999  0.00  0.00     0.004 A 
ENDBRANCH   5   6
BRANCH   1  13
ATOM     13  C   UNL d   1      52.614  29.957  53.045  0.00  0.00     0.231 C 
ATOM     14  O   UNL d   1      52.673  29.742  52.325  0.00  0.00    -0.643 OA
ATOM     15  O   UNL d   1      52.126  29.611  53.510  0.00  0.00    -0.643 OA
ENDBRANCH   1  13
TORSDOF 2
ENDMDL
