MODEL 1
REMARK VINA RESULT:      26.2      0.000      0.000
REMARK  6 active torsions:
REMARK  status: ('A' for Active; 'I' for Inactive)
REMARK    1  A    between atoms: C_15  and  C_2 
REMARK    2  A    between atoms: C_19  and  C_3 
REMARK    3  A    between atoms: C_4  and  C_16 
REMARK       I    between atoms: N_7  and  C_4 
REMARK    4  A    between atoms: C_14  and  N_7 
REMARK    5  A    between atoms: C_8  and  C_9 
REMARK    6  A    between atoms: C_16  and  C_15 
ROOT
ATOM      1  C   UNL d   1     -55.486 -98.980 -45.279  0.00  0.00     0.279 C 
ATOM      2  N   UNL d   1     -56.229 -98.821 -45.598  0.00  0.00    -0.208 NA
ATOM      3  O   UNL d   1     -54.818 -98.986 -45.767  0.00  0.00    -0.265 OA
ENDROOT
BRANCH   1   4
ATOM      4  C   UNL d   1     -55.407 -99.133 -44.471  0.00  0.00     0.065 C 
BRANCH   4   5
ATOM      5  C   UNL d   1     -54.733 -99.524 -44.186  0.00  0.00     0.030 C 
BRANCH   5   6
ATOM      6  C   UNL d   1     -54.743-100.342 -44.074  0.00  0.00     0.100 A 
ATOM      7  O   UNL d   1     -54.712-100.725 -43.348  0.00  0.00    -0.307 OA
ATOM      8  C   UNL d   1     -54.735-101.534 -43.493  0.00  0.00     0.100 A 
ATOM      9  C   UNL d   1     -54.781-101.647 -44.323  0.00  0.00     0.027 A 
ATOM     10  C   UNL d   1     -54.785-100.904 -44.671  0.00  0.00     0.027 A 
BRANCH   8  11
ATOM     11  C   UNL d   1     -54.717-102.132 -42.932  0.00  0.00     0.025 C 
ATOM     12  C   UNL d   1     -54.837-101.965 -42.134  0.00  0.00     0.002 C 
ENDBRANCH   8  11
ENDBRANCH   5   6
ENDBRANCH   4   5
ENDBRANCH   1   4
BRANCH   2  13
ATOM     13  C   UNL d   1     -56.897 -98.816 -45.101  0.00  0.00     0.085 A 
ATOM     14  C   UNL d   1     -57.650 -98.781 -45.432  0.00  0.00     0.019 A 
ATOM     15  C   UNL d   1     -58.312 -98.776 -44.934  0.00  0.00     0.005 A 
ATOM     16  C   UNL d   1     -58.221 -98.807 -44.114  0.00  0.00     0.039 A 
ATOM     17  C   UNL d   1     -57.448 -98.843 -43.793  0.00  0.00     0.005 A 
ATOM     18  C   UNL d   1     -56.794 -98.847 -44.286  0.00  0.00     0.019 A 
BRANCH  16  19
ATOM     19  C   UNL d   1     -58.877 -98.802 -43.617  0.00  0.00     0.196 C 
ATOM     20  O   UNL d   1     -58.779 -98.843 -42.798  0.00  0.00    -0.287 OA
ATOM     21  C   UNL d   1     -59.637 -98.756 -43.939  0.00  0.00     0.045 C 
ENDBRANCH  16  19
ENDBRANCH   2  13
TORSDOF 6
ENDMDL
