MODEL 1
REMARK VINA RESULT:      45.7      0.000      0.000
REMARK  4 active torsions:
REMARK  status: ('A' for Active; 'I' for Inactive)
REMARK    1  A    between atoms: N_5  and  S_1 
REMARK    2  A    between atoms: C_6  and  S_1 
REMARK    3  A    between atoms: N_2  and  C_7 
REMARK    4  A    between atoms: C_18  and  N_5 
ROOT
ATOM      1  C   UNL d   1     -55.003-101.624 -41.129  0.00  0.00     0.117 A 
ATOM      2  C   UNL d   1     -54.895-101.289 -42.732  0.00  0.00     0.070 A 
ATOM      3  C   UNL d   1     -55.186-100.881 -41.401  0.00  0.00     0.015 A 
ATOM      4  C   UNL d   1     -54.764-102.209 -41.661  0.00  0.00     0.015 A 
ATOM      5  C   UNL d   1     -55.132-100.710 -42.205  0.00  0.00     0.018 A 
ATOM      6  C   UNL d   1     -54.711-102.035 -42.462  0.00  0.00     0.018 A 
ENDROOT
BRANCH   1   7
ATOM      7  S   UNL d   1     -55.057-101.795 -40.325  0.00  0.00     0.327 S 
ATOM      8  O   UNL d   1     -54.713-101.058 -40.150  0.00  0.00    -0.186 OA
ATOM      9  O   UNL d   1     -55.394-102.516 -40.504  0.00  0.00    -0.186 OA
BRANCH   7  10
ATOM     10  N   UNL d   1     -55.108-101.957 -39.523  0.00  0.00    -0.317 NA
BRANCH  10  11
ATOM     11  C   UNL d   1     -55.164-102.118 -38.716  0.00  0.00     0.145 A 
ATOM     12  C   UNL d   1     -54.718-101.677 -38.167  0.00  0.00     0.033 A 
ATOM     13  C   UNL d   1     -54.775-101.838 -37.360  0.00  0.00     0.003 A 
ATOM     14  C   UNL d   1     -55.268-102.431 -37.088  0.00  0.00     0.000 A 
ATOM     15  C   UNL d   1     -55.719-102.879 -37.627  0.00  0.00     0.003 A 
ATOM     16  C   UNL d   1     -55.323-102.590 -36.279  0.00  0.00     0.000 C 
ATOM     17  C   UNL d   1     -55.663-102.718 -38.441  0.00  0.00     0.033 A 
ENDBRANCH  10  11
ENDBRANCH   7  10
ENDBRANCH   1   7
BRANCH   2  18
ATOM     18  N   UNL d   1     -54.841-101.118 -43.536  0.00  0.00    -0.242 N 
ATOM     19  C   UNL d   1     -54.803-101.672 -44.152  0.00  0.00     0.267 A 
ATOM     20  C   UNL d   1     -54.753-101.262 -44.869  0.00  0.00     0.066 A 
ATOM     21  O   UNL d   1     -54.812-102.492 -44.066  0.00  0.00    -0.267 OA
ATOM     22  C   UNL d   1     -54.761-100.456 -44.698  0.00  0.00     0.066 A 
ATOM     23  C   UNL d   1     -54.815-100.365 -43.878  0.00  0.00     0.267 A 
ATOM     24  O   UNL d   1     -54.839 -99.644 -43.470  0.00  0.00    -0.267 OA
ENDBRANCH   2  18
TORSDOF 4
ENDMDL
