MODEL 1
REMARK VINA RESULT:     114.1      0.000      0.000
REMARK  5 active torsions:
REMARK  status: ('A' for Active; 'I' for Inactive)
REMARK    1  A    between atoms: C_12  and  N_3 
REMARK    2  A    between atoms: C_11  and  C_5 
REMARK    3  A    between atoms: C_10  and  C_8 
REMARK    4  A    between atoms: O_27  and  C_14 
REMARK    5  A    between atoms: O_28  and  C_21 
ROOT
ATOM      1  C   UNL d   1     -56.585 -99.321 -44.251  0.00  0.00     0.143 A 
ATOM      2  C   UNL d   1     -57.339 -99.213 -44.573  0.00  0.00     0.172 A 
ATOM      3  N   UNL d   1     -57.277 -99.208 -45.401  0.00  0.00    -0.242 N 
ATOM      4  C   UNL d   1     -56.476 -99.315 -45.588  0.00  0.00     0.355 A 
ATOM      5  C   UNL d   1     -56.482 -99.348 -43.444  0.00  0.00     0.163 A 
ATOM      6  N   UNL d   1     -57.995 -99.131 -44.073  0.00  0.00    -0.207 NA
ATOM      7  N   UNL d   1     -56.056 -99.383 -44.880  0.00  0.00    -0.187 NA
ATOM      8  C   UNL d   1     -57.880 -99.160 -43.252  0.00  0.00     0.166 A 
ATOM      9  N   UNL d   1     -57.123 -99.269 -42.938  0.00  0.00    -0.220 NA
ATOM     10  O   UNL d   1     -56.163 -99.345 -46.352  0.00  0.00    -0.244 OA
ENDROOT
BRANCH   8  11
ATOM     11  C   UNL d   1     -58.525 -99.080 -42.749  0.00  0.00     0.060 A 
ATOM     12  C   UNL d   1     -59.281 -99.002 -43.059  0.00  0.00     0.097 A 
ATOM     13  C   UNL d   1     -59.930 -98.921 -42.551  0.00  0.00     0.026 A 
ATOM     14  C   UNL d   1     -59.815 -98.920 -41.741  0.00  0.00     0.026 A 
ATOM     15  C   UNL d   1     -59.056 -98.999 -41.439  0.00  0.00     0.094 A 
ATOM     16  C   UNL d   1     -58.409 -99.079 -41.931  0.00  0.00     0.029 A 
BRANCH  12  17
ATOM     17  O   UNL d   1     -59.389 -99.004 -43.879  0.00  0.00    -0.328 OA
ATOM     18  C   UNL d   1     -59.869 -99.592 -44.212  0.00  0.00     0.181 C 
ENDBRANCH  12  17
BRANCH  15  19
ATOM     19  O   UNL d   1     -58.941 -98.997 -40.621  0.00  0.00    -0.328 OA
ATOM     20  C   UNL d   1     -59.459 -99.411 -40.129  0.00  0.00     0.181 C 
ENDBRANCH  15  19
ENDBRANCH   8  11
BRANCH   5  21
ATOM     21  C   UNL d   1     -55.729 -99.456 -43.123  0.00  0.00     0.316 C 
ATOM     22  O   UNL d   1     -55.498-100.193 -42.831  0.00  0.00    -0.262 OA
ATOM     23  N   UNL d   1     -55.202 -98.813 -43.097  0.00  0.00    -0.101 N 
ENDBRANCH   5  21
BRANCH   3  24
ATOM     24  C   UNL d   1     -57.891 -99.115 -45.932  0.00  0.00     0.070 A 
ATOM     25  C   UNL d   1     -57.723 -99.053 -46.724  0.00  0.00     0.020 A 
ATOM     26  C   UNL d   1     -58.347 -98.959 -47.264  0.00  0.00     0.031 A 
ATOM     27  C   UNL d   1     -59.128 -98.931 -46.984  0.00  0.00     0.140 A 
ATOM     28  C   UNL d   1     -59.291 -98.994 -46.184  0.00  0.00     0.031 A 
ATOM     29  F   UNL d   1     -59.745 -98.837 -47.528  0.00  0.00    -0.204 F 
ATOM     30  C   UNL d   1     -58.668 -99.087 -45.655  0.00  0.00     0.020 A 
ENDBRANCH   3  24
TORSDOF 5
ENDMDL
