MODEL 1
REMARK VINA RESULT:      -4.8      0.000      0.000
REMARK  0 active torsions:
REMARK  status: ('A' for Active; 'I' for Inactive)
ROOT
ATOM      1  N   UNL d   1     -41.485-122.569 -53.776  0.00  0.00    -0.248 N 
ATOM      2  C   UNL d   1     -41.439-123.382 -53.792  0.00  0.00     0.208 A 
ATOM      3  C   UNL d   1     -41.427-122.150 -53.037  0.00  0.00     0.268 A 
ATOM      4  C   UNL d   1     -41.329-122.560 -52.361  0.00  0.00     0.074 A 
ATOM      5  N   UNL d   1     -41.335-123.793 -53.069  0.00  0.00    -0.218 NA
ATOM      6  C   UNL d   1     -41.283-123.378 -52.377  0.00  0.00     0.088 A 
ATOM      7  S   UNL d   1     -41.494-123.811 -54.508  0.00  0.00    -0.038 SA
ATOM      8  O   UNL d   1     -41.474-121.322 -53.021  0.00  0.00    -0.267 OA
ATOM      9  C   UNL d   1     -41.590-122.117 -54.488  0.00  0.00     0.104 C 
ATOM     10  C   UNL d   1     -41.271-122.155 -51.631  0.00  0.00     0.006 A 
ATOM     11  C   UNL d   1     -41.177-123.811 -51.654  0.00  0.00     0.019 A 
ATOM     12  C   UNL d   1     -41.169-122.574 -50.927  0.00  0.00     0.000 A 
ATOM     13  C   UNL d   1     -41.123-123.398 -50.943  0.00  0.00     0.002 A 
ENDROOT
TORSDOF 0
ENDMDL
MODEL 2
REMARK VINA RESULT:      -4.6      1.465      2.998
REMARK  0 active torsions:
REMARK  status: ('A' for Active; 'I' for Inactive)
ROOT
ATOM      1  N   UNL d   1     -41.408-122.733 -52.653  0.00  0.00    -0.248 N 
ATOM      2  C   UNL d   1     -41.681-121.977 -52.514  0.00  0.00     0.208 A 
ATOM      3  C   UNL d   1     -41.404-123.048 -53.444  0.00  0.00     0.268 A 
ATOM      4  C   UNL d   1     -41.668-122.599 -54.046  0.00  0.00     0.074 A 
ATOM      5  N   UNL d   1     -41.954-121.523 -53.162  0.00  0.00    -0.218 NA
ATOM      6  C   UNL d   1     -41.942-121.839 -53.906  0.00  0.00     0.088 A 
ATOM      7  S   UNL d   1     -41.693-121.650 -51.744  0.00  0.00    -0.038 SA
ATOM      8  O   UNL d   1     -41.127-123.817 -53.586  0.00  0.00    -0.267 OA
ATOM      9  C   UNL d   1     -41.123-123.225 -52.021  0.00  0.00     0.104 C 
ATOM     10  C   UNL d   1     -41.667-122.903 -54.825  0.00  0.00     0.006 A 
ATOM     11  C   UNL d   1     -42.223-121.364 -54.551  0.00  0.00     0.019 A 
ATOM     12  C   UNL d   1     -41.939-122.443 -55.455  0.00  0.00     0.000 A 
ATOM     13  C   UNL d   1     -42.215-121.678 -55.314  0.00  0.00     0.002 A 
ENDROOT
TORSDOF 0
ENDMDL
MODEL 3
REMARK VINA RESULT:      -3.6      0.902      1.196
REMARK  0 active torsions:
REMARK  status: ('A' for Active; 'I' for Inactive)
ROOT
ATOM      1  N   UNL d   1     -41.250-122.320 -52.586  0.00  0.00    -0.248 N 
ATOM      2  C   UNL d   1     -41.218-123.127 -52.694  0.00  0.00     0.208 A 
ATOM      3  C   UNL d   1     -41.338-121.995 -51.805  0.00  0.00     0.268 A 
ATOM      4  C   UNL d   1     -41.389-122.485 -51.180  0.00  0.00     0.074 A 
ATOM      5  N   UNL d   1     -41.275-123.624 -52.023  0.00  0.00    -0.218 NA
ATOM      6  C   UNL d   1     -41.358-123.298 -51.288  0.00  0.00     0.088 A 
ATOM      7  S   UNL d   1     -41.132-123.466 -53.455  0.00  0.00    -0.038 SA
ATOM      8  O   UNL d   1     -41.369-121.173 -51.695  0.00  0.00    -0.267 OA
ATOM      9  C   UNL d   1     -41.196-121.783 -53.244  0.00  0.00     0.104 C 
ATOM     10  C   UNL d   1     -41.476-122.173 -50.409  0.00  0.00     0.006 A 
ATOM     11  C   UNL d   1     -41.413-123.817 -50.619  0.00  0.00     0.019 A 
ATOM     12  C   UNL d   1     -41.530-122.676 -49.756  0.00  0.00     0.000 A 
ATOM     13  C   UNL d   1     -41.498-123.493 -49.866  0.00  0.00     0.002 A 
ENDROOT
TORSDOF 0
ENDMDL
MODEL 4
REMARK VINA RESULT:      -3.2      2.875      3.584
REMARK  0 active torsions:
REMARK  status: ('A' for Active; 'I' for Inactive)
ROOT
ATOM      1  N   UNL d   1     -42.256-122.677 -50.299  0.00  0.00    -0.248 N 
ATOM      2  C   UNL d   1     -41.517-123.003 -50.408  0.00  0.00     0.208 A 
ATOM      3  C   UNL d   1     -42.634-122.716 -49.538  0.00  0.00     0.268 A 
ATOM      4  C   UNL d   1     -42.261-123.074 -48.933  0.00  0.00     0.074 A 
ATOM      5  N   UNL d   1     -41.143-123.375 -49.758  0.00  0.00    -0.218 NA
ATOM      6  C   UNL d   1     -41.517-123.403 -49.042  0.00  0.00     0.088 A 
ATOM      7  S   UNL d   1     -41.129-122.974 -51.149  0.00  0.00    -0.038 SA
ATOM      8  O   UNL d   1     -43.386-122.384 -49.427  0.00  0.00    -0.267 OA
ATOM      9  C   UNL d   1     -42.667-122.291 -50.935  0.00  0.00     0.104 C 
ATOM     10  C   UNL d   1     -42.627-123.117 -48.182  0.00  0.00     0.006 A 
ATOM     11  C   UNL d   1     -41.123-123.784 -48.394  0.00  0.00     0.019 A 
ATOM     12  C   UNL d   1     -42.245-123.487 -47.550  0.00  0.00     0.000 A 
ATOM     13  C   UNL d   1     -41.497-123.818 -47.660  0.00  0.00     0.002 A 
ENDROOT
TORSDOF 0
ENDMDL
MODEL 5
REMARK VINA RESULT:      -2.9      2.996      3.900
REMARK  0 active torsions:
REMARK  status: ('A' for Active; 'I' for Inactive)
ROOT
ATOM      1  N   UNL d   1     -42.497-123.137 -48.901  0.00  0.00    -0.248 N 
ATOM      2  C   UNL d   1     -41.693-123.271 -48.891  0.00  0.00     0.208 A 
ATOM      3  C   UNL d   1     -42.861-122.757 -49.570  0.00  0.00     0.268 A 
ATOM      4  C   UNL d   1     -42.409-122.533 -50.186  0.00  0.00     0.074 A 
ATOM      5  N   UNL d   1     -41.238-123.027 -49.550  0.00  0.00    -0.218 NA
ATOM      6  C   UNL d   1     -41.600-122.667 -50.177  0.00  0.00     0.088 A 
ATOM      7  S   UNL d   1     -41.318-123.643 -48.243  0.00  0.00    -0.038 SA
ATOM      8  O   UNL d   1     -43.679-122.621 -49.580  0.00  0.00    -0.267 OA
ATOM      9  C   UNL d   1     -42.993-123.370 -48.250  0.00  0.00     0.104 C 
ATOM     10  C   UNL d   1     -42.760-122.159 -50.847  0.00  0.00     0.006 A 
ATOM     11  C   UNL d   1     -41.123-122.427 -50.836  0.00  0.00     0.019 A 
ATOM     12  C   UNL d   1     -42.297-121.924 -51.490  0.00  0.00     0.000 A 
ATOM     13  C   UNL d   1     -41.483-122.059 -51.480  0.00  0.00     0.002 A 
ENDROOT
TORSDOF 0
ENDMDL
MODEL 6
REMARK VINA RESULT:      -2.3      2.011      2.852
REMARK  0 active torsions:
REMARK  status: ('A' for Active; 'I' for Inactive)
ROOT
ATOM      1  N   UNL d   1     -41.738-122.480 -50.083  0.00  0.00    -0.248 N 
ATOM      2  C   UNL d   1     -41.731-123.288 -50.187  0.00  0.00     0.208 A 
ATOM      3  C   UNL d   1     -41.659-121.961 -50.752  0.00  0.00     0.268 A 
ATOM      4  C   UNL d   1     -41.579-122.270 -51.482  0.00  0.00     0.074 A 
ATOM      5  N   UNL d   1     -41.646-123.592 -50.962  0.00  0.00    -0.218 NA
ATOM      6  C   UNL d   1     -41.573-123.084 -51.586  0.00  0.00     0.088 A 
ATOM      7  S   UNL d   1     -41.807-123.815 -49.541  0.00  0.00    -0.038 SA
ATOM      8  O   UNL d   1     -41.666-121.137 -50.646  0.00  0.00    -0.267 OA
ATOM      9  C   UNL d   1     -41.822-122.133 -49.311  0.00  0.00     0.104 C 
ATOM     10  C   UNL d   1     -41.502-121.766 -52.144  0.00  0.00     0.006 A 
ATOM     11  C   UNL d   1     -41.487-123.410 -52.366  0.00  0.00     0.019 A 
ATOM     12  C   UNL d   1     -41.419-122.081 -52.903  0.00  0.00     0.000 A 
ATOM     13  C   UNL d   1     -41.412-122.899 -53.008  0.00  0.00     0.002 A 
ENDROOT
TORSDOF 0
ENDMDL
MODEL 7
REMARK VINA RESULT:      -2.1      2.083      2.661
REMARK  0 active torsions:
REMARK  status: ('A' for Active; 'I' for Inactive)
ROOT
ATOM      1  N   UNL d   1     -41.527-122.432 -51.167  0.00  0.00    -0.248 N 
ATOM      2  C   UNL d   1     -41.503-123.246 -51.201  0.00  0.00     0.208 A 
ATOM      3  C   UNL d   1     -41.832-122.040 -50.476  0.00  0.00     0.268 A 
ATOM      4  C   UNL d   1     -42.095-122.475 -49.862  0.00  0.00     0.074 A 
ATOM      5  N   UNL d   1     -41.784-123.683 -50.544  0.00  0.00    -0.218 NA
ATOM      6  C   UNL d   1     -42.070-123.294 -49.896  0.00  0.00     0.088 A 
ATOM      7  S   UNL d   1     -41.206-123.649 -51.871  0.00  0.00    -0.038 SA
ATOM      8  O   UNL d   1     -41.857-121.211 -50.441  0.00  0.00    -0.267 OA
ATOM      9  C   UNL d   1     -41.251-121.953 -51.813  0.00  0.00     0.104 C 
ATOM     10  C   UNL d   1     -42.396-122.096 -49.180  0.00  0.00     0.006 A 
ATOM     11  C   UNL d   1     -42.351-123.754 -49.240  0.00  0.00     0.019 A 
ATOM     12  C   UNL d   1     -42.670-122.542 -48.541  0.00  0.00     0.000 A 
ATOM     13  C   UNL d   1     -42.645-123.366 -48.575  0.00  0.00     0.002 A 
ENDROOT
TORSDOF 0
ENDMDL
