MODEL 1
REMARK VINA RESULT:      -0.6      0.000      0.000
REMARK  7 active torsions:
REMARK  status: ('A' for Active; 'I' for Inactive)
REMARK    1  A    between atoms: C_10  and  N_1 
REMARK    2  A    between atoms: S_8  and  C_6 
REMARK    3  A    between atoms: C_13  and  S_8 
REMARK    4  A    between atoms: C_11  and  C_13 
REMARK    5  A    between atoms: O_18  and  C_11 
REMARK    6  A    between atoms: C_22  and  C_13 
REMARK    7  A    between atoms: C_23  and  O_18 
ROOT
ATOM      1  N   UNL d   1      58.333  -9.648  32.029  0.00  0.00    -0.193 N 
ATOM      2  N   UNL d   1      57.776  -9.650  32.629  0.00  0.00    -0.058 NA
ATOM      3  C   UNL d   1      59.080  -9.698  32.380  0.00  0.00     0.188 A 
ATOM      4  C   UNL d   1      58.968  -9.731  33.197  0.00  0.00     0.164 A 
ATOM      5  N   UNL d   1      58.153  -9.701  33.337  0.00  0.00    -0.125 NA
ATOM      6  C   UNL d   1      59.615  -9.784  33.701  0.00  0.00     0.135 A 
ATOM      7  N   UNL d   1      59.839  -9.718  32.066  0.00  0.00    -0.203 NA
ATOM      8  N   UNL d   1      60.381  -9.804  33.388  0.00  0.00    -0.216 NA
ATOM      9  C   UNL d   1      60.493  -9.771  32.571  0.00  0.00     0.201 A 
ENDROOT
BRANCH   6  10
ATOM     10  S   UNL d   1      59.502  -9.817  34.519  0.00  0.00    -0.061 SA
BRANCH  10  11
ATOM     11  C   UNL d   1      59.987  -9.382  35.020  0.00  0.00     0.094 C 
BRANCH  11  12
ATOM     12  C   UNL d   1      59.682  -8.730  35.422  0.00  0.00     0.306 C 
ATOM     13  O   UNL d   1      59.013  -8.809  35.898  0.00  0.00    -0.258 OA
BRANCH  12  14
ATOM     14  O   UNL d   1      60.052  -7.992  35.345  0.00  0.00    -0.271 OA
BRANCH  14  15
ATOM     15  C   UNL d   1      59.789  -7.351  35.796  0.00  0.00     0.126 C 
ATOM     16  C   UNL d   1      60.174  -6.631  35.752  0.00  0.00     0.029 C 
ENDBRANCH  14  15
ENDBRANCH  12  14
ENDBRANCH  11  12
BRANCH  11  17
ATOM     17  C   UNL d   1      60.777  -9.601  35.119  0.00  0.00     0.012 C 
ATOM     18  C   UNL d   1      61.060  -9.793  35.863  0.00  0.00     0.001 C 
ENDBRANCH  11  17
ENDBRANCH  10  11
ENDBRANCH   6  10
BRANCH   1  19
ATOM     19  C   UNL d   1      58.142  -9.602  31.237  0.00  0.00     0.086 A 
ATOM     20  C   UNL d   1      58.700  -9.815  30.665  0.00  0.00     0.022 A 
ATOM     21  C   UNL d   1      58.508  -9.769  29.864  0.00  0.00     0.031 A 
ATOM     22  C   UNL d   1      57.772  -9.515  29.625  0.00  0.00     0.140 A 
ATOM     23  C   UNL d   1      57.204  -9.299  30.205  0.00  0.00     0.031 A 
ATOM     24  F   UNL d   1      57.594  -9.475  28.804  0.00  0.00    -0.204 F 
ATOM     25  C   UNL d   1      57.388  -9.342  31.002  0.00  0.00     0.022 A 
ENDBRANCH   1  19
TORSDOF 7
ENDMDL
MODEL 2
REMARK VINA RESULT:       0.2      9.345     10.072
REMARK  7 active torsions:
REMARK  status: ('A' for Active; 'I' for Inactive)
REMARK    1  A    between atoms: C_10  and  N_1 
REMARK    2  A    between atoms: S_8  and  C_6 
REMARK    3  A    between atoms: C_13  and  S_8 
REMARK    4  A    between atoms: C_11  and  C_13 
REMARK    5  A    between atoms: O_18  and  C_11 
REMARK    6  A    between atoms: C_22  and  C_13 
REMARK    7  A    between atoms: C_23  and  O_18 
ROOT
ATOM      1  N   UNL d   1      57.814   0.156  30.702  0.00  0.00    -0.193 N 
ATOM      2  N   UNL d   1      57.019   0.124  30.514  0.00  0.00    -0.058 NA
ATOM      3  C   UNL d   1      57.875   0.286  31.517  0.00  0.00     0.188 A 
ATOM      4  C   UNL d   1      57.108   0.331  31.817  0.00  0.00     0.164 A 
ATOM      5  N   UNL d   1      56.586   0.229  31.184  0.00  0.00    -0.125 NA
ATOM      6  C   UNL d   1      56.986   0.458  32.620  0.00  0.00     0.135 A 
ATOM      7  N   UNL d   1      58.521   0.367  32.018  0.00  0.00    -0.203 NA
ATOM      8  N   UNL d   1      57.635   0.541  33.128  0.00  0.00    -0.216 NA
ATOM      9  C   UNL d   1      58.401   0.495  32.827  0.00  0.00     0.201 A 
ENDROOT
BRANCH   6  10
ATOM     10  S   UNL d   1      56.218   0.503  32.921  0.00  0.00    -0.061 SA
BRANCH  10  11
ATOM     11  C   UNL d   1      55.965  -0.033  33.490  0.00  0.00     0.094 C 
BRANCH  11  12
ATOM     12  C   UNL d   1      55.380   0.186  34.029  0.00  0.00     0.306 C 
ATOM     13  O   UNL d   1      55.587   0.523  34.753  0.00  0.00    -0.258 OA
BRANCH  12  14
ATOM     14  O   UNL d   1      54.583   0.064  33.840  0.00  0.00    -0.271 OA
BRANCH  14  15
ATOM     15  C   UNL d   1      54.039   0.678  33.935  0.00  0.00     0.126 C 
ATOM     16  C   UNL d   1      53.354   0.560  34.366  0.00  0.00     0.029 C 
ENDBRANCH  14  15
ENDBRANCH  12  14
ENDBRANCH  11  12
BRANCH  11  17
ATOM     17  C   UNL d   1      56.298  -0.788  33.519  0.00  0.00     0.012 C 
ATOM     18  C   UNL d   1      55.817  -1.446  33.586  0.00  0.00     0.001 C 
ENDBRANCH  11  17
ENDBRANCH  10  11
ENDBRANCH   6  10
BRANCH   1  19
ATOM     19  C   UNL d   1      58.411   0.071  30.152  0.00  0.00     0.086 A 
ATOM     20  C   UNL d   1      58.422  -0.589  29.653  0.00  0.00     0.022 A 
ATOM     21  C   UNL d   1      59.026  -0.676  29.097  0.00  0.00     0.031 A 
ATOM     22  C   UNL d   1      59.615  -0.118  29.031  0.00  0.00     0.140 A 
ATOM     23  C   UNL d   1      59.606   0.552  29.536  0.00  0.00     0.031 A 
ATOM     24  F   UNL d   1      60.222  -0.224  28.457  0.00  0.00    -0.204 F 
ATOM     25  C   UNL d   1      59.010   0.645  30.090  0.00  0.00     0.022 A 
ENDBRANCH   1  19
TORSDOF 7
ENDMDL
