MODEL 1
REMARK VINA RESULT:      -7.5      0.000      0.000
REMARK  2 active torsions:
REMARK  status: ('A' for Active; 'I' for Inactive)
REMARK    1  A    between atoms: N_6  and  C_4 
REMARK    2  A    between atoms: C_9  and  N_6 
ROOT
ATOM      1  S   UNL d   1     -46.551  13.569  22.983  0.00  0.00     0.216 S 
ATOM      2  C   UNL d   1     -47.300  13.238  22.874  0.00  0.00     0.121 A 
ATOM      3  C   UNL d   1     -46.074  12.987  23.286  0.00  0.00     0.142 A 
ATOM      4  C   UNL d   1     -47.286  12.448  23.111  0.00  0.00     0.132 A 
ATOM      5  C   UNL d   1     -46.521  12.299  23.366  0.00  0.00     0.225 A 
ATOM      6  O   UNL d   1     -47.053  14.158  22.670  0.00  0.00    -0.217 OA
ATOM      7  O   UNL d   1     -45.906  14.073  23.011  0.00  0.00    -0.217 OA
ATOM      8  O   UNL d   1     -46.221  11.571  23.663  0.00  0.00    -0.284 OA
ENDROOT
BRANCH   4   9
ATOM      9  N   UNL d   1     -47.836  11.859  23.133  0.00  0.00    -0.242 NA
BRANCH   9  10
ATOM     10  C   UNL d   1     -48.635  12.012  23.043  0.00  0.00     0.082 A 
ATOM     11  C   UNL d   1     -49.086  12.159  23.694  0.00  0.00     0.020 A 
ATOM     12  C   UNL d   1     -49.909  12.317  23.596  0.00  0.00     0.013 A 
ATOM     13  C   UNL d   1     -50.236  12.318  22.848  0.00  0.00     0.058 A 
ATOM     14  C   UNL d   1     -49.787  12.171  22.181  0.00  0.00     0.013 A 
ATOM     15 CL   UNL d   1     -51.058  12.477  22.762  0.00  0.00    -0.082 Cl
ATOM     16  C   UNL d   1     -48.977  12.016  22.284  0.00  0.00     0.020 A 
ENDBRANCH   9  10
ENDBRANCH   4   9
TORSDOF 2
ENDMDL
MODEL 2
REMARK VINA RESULT:      -7.3      1.729      2.016
REMARK  2 active torsions:
REMARK  status: ('A' for Active; 'I' for Inactive)
REMARK    1  A    between atoms: N_6  and  C_4 
REMARK    2  A    between atoms: C_9  and  N_6 
ROOT
ATOM      1  S   UNL d   1     -46.548  12.443  23.387  0.00  0.00     0.216 S 
ATOM      2  C   UNL d   1     -47.122  12.938  23.057  0.00  0.00     0.121 A 
ATOM      3  C   UNL d   1     -46.891  11.717  23.497  0.00  0.00     0.142 A 
ATOM      4  C   UNL d   1     -47.824  12.515  22.963  0.00  0.00     0.132 A 
ATOM      5  C   UNL d   1     -47.674  11.757  23.238  0.00  0.00     0.225 A 
ATOM      6  O   UNL d   1     -46.206  13.196  23.268  0.00  0.00    -0.217 OA
ATOM      7  O   UNL d   1     -45.857  12.132  23.697  0.00  0.00    -0.217 OA
ATOM      8  O   UNL d   1     -48.214  11.112  23.262  0.00  0.00    -0.284 OA
ENDROOT
BRANCH   4   9
ATOM      9  N   UNL d   1     -48.556  12.698  22.678  0.00  0.00    -0.242 NA
BRANCH   9  10
ATOM     10  C   UNL d   1     -48.870  13.450  22.751  0.00  0.00     0.082 A 
ATOM     11  C   UNL d   1     -48.759  13.985  22.158  0.00  0.00     0.020 A 
ATOM     12  C   UNL d   1     -49.085  14.759  22.238  0.00  0.00     0.013 A 
ATOM     13  C   UNL d   1     -49.506  14.955  22.910  0.00  0.00     0.058 A 
ATOM     14  C   UNL d   1     -49.623  14.421  23.516  0.00  0.00     0.013 A 
ATOM     15 CL   UNL d   1     -49.827  15.731  22.978  0.00  0.00    -0.082 Cl
ATOM     16  C   UNL d   1     -49.300  13.659  23.432  0.00  0.00     0.020 A 
ENDBRANCH   9  10
ENDBRANCH   4   9
TORSDOF 2
ENDMDL
MODEL 3
REMARK VINA RESULT:      -7.0      2.389      3.599
REMARK  2 active torsions:
REMARK  status: ('A' for Active; 'I' for Inactive)
REMARK    1  A    between atoms: N_6  and  C_4 
REMARK    2  A    between atoms: C_9  and  N_6 
ROOT
ATOM      1  S   UNL d   1     -49.420  11.630  23.500  0.00  0.00     0.216 S 
ATOM      2  C   UNL d   1     -48.730  12.060  23.351  0.00  0.00     0.121 A 
ATOM      3  C   UNL d   1     -50.045  12.135  23.392  0.00  0.00     0.142 A 
ATOM      4  C   UNL d   1     -48.930  12.835  23.149  0.00  0.00     0.132 A 
ATOM      5  C   UNL d   1     -49.749  12.875  23.177  0.00  0.00     0.225 A 
ATOM      6  O   UNL d   1     -48.767  11.122  23.608  0.00  0.00    -0.217 OA
ATOM      7  O   UNL d   1     -49.961  11.045  23.685  0.00  0.00    -0.217 OA
ATOM      8  O   UNL d   1     -50.227  13.548  23.016  0.00  0.00    -0.284 OA
ENDROOT
BRANCH   4   9
ATOM      9  N   UNL d   1     -48.505  13.491  22.951  0.00  0.00    -0.242 NA
BRANCH   9  10
ATOM     10  C   UNL d   1     -47.709  13.448  22.766  0.00  0.00     0.082 A 
ATOM     11  C   UNL d   1     -47.486  13.244  22.019  0.00  0.00     0.020 A 
ATOM     12  C   UNL d   1     -46.664  13.202  21.834  0.00  0.00     0.013 A 
ATOM     13  C   UNL d   1     -46.109  13.366  22.409  0.00  0.00     0.058 A 
ATOM     14  C   UNL d   1     -46.325  13.574  23.169  0.00  0.00     0.013 A 
ATOM     15 CL   UNL d   1     -45.291  13.321  22.212  0.00  0.00    -0.082 Cl
ATOM     16  C   UNL d   1     -47.136  13.615  23.346  0.00  0.00     0.020 A 
ENDBRANCH   9  10
ENDBRANCH   4   9
TORSDOF 2
ENDMDL
MODEL 4
REMARK VINA RESULT:      -6.9      2.445      3.366
REMARK  2 active torsions:
REMARK  status: ('A' for Active; 'I' for Inactive)
REMARK    1  A    between atoms: N_6  and  C_4 
REMARK    2  A    between atoms: C_9  and  N_6 
ROOT
ATOM      1  S   UNL d   1     -49.758  15.037  22.719  0.00  0.00     0.216 S 
ATOM      2  C   UNL d   1     -49.062  14.598  22.645  0.00  0.00     0.121 A 
ATOM      3  C   UNL d   1     -50.315  14.687  22.245  0.00  0.00     0.142 A 
ATOM      4  C   UNL d   1     -49.189  13.973  22.121  0.00  0.00     0.132 A 
ATOM      5  C   UNL d   1     -49.969  14.034  21.876  0.00  0.00     0.225 A 
ATOM      6  O   UNL d   1     -49.176  15.388  23.204  0.00  0.00    -0.217 OA
ATOM      7  O   UNL d   1     -50.325  15.590  22.928  0.00  0.00    -0.217 OA
ATOM      8  O   UNL d   1     -50.371  13.526  21.339  0.00  0.00    -0.284 OA
ENDROOT
BRANCH   4   9
ATOM      9  N   UNL d   1     -48.728  13.375  21.838  0.00  0.00    -0.242 NA
BRANCH   9  10
ATOM     10  C   UNL d   1     -48.150  13.023  22.299  0.00  0.00     0.082 A 
ATOM     11  C   UNL d   1     -47.391  13.290  22.254  0.00  0.00     0.020 A 
ATOM     12  C   UNL d   1     -46.799  12.924  22.731  0.00  0.00     0.013 A 
ATOM     13  C   UNL d   1     -47.001  12.308  23.227  0.00  0.00     0.058 A 
ATOM     14  C   UNL d   1     -47.767  12.030  23.279  0.00  0.00     0.013 A 
ATOM     15 CL   UNL d   1     -46.401  11.950  23.698  0.00  0.00    -0.082 Cl
ATOM     16  C   UNL d   1     -48.347  12.394  22.808  0.00  0.00     0.020 A 
ENDBRANCH   9  10
ENDBRANCH   4   9
TORSDOF 2
ENDMDL
MODEL 5
REMARK VINA RESULT:      -5.5      8.632      9.345
REMARK  2 active torsions:
REMARK  status: ('A' for Active; 'I' for Inactive)
REMARK    1  A    between atoms: N_6  and  C_4 
REMARK    2  A    between atoms: C_9  and  N_6 
ROOT
ATOM      1  S   UNL d   1     -40.567  15.229  17.361  0.00  0.00     0.216 S 
ATOM      2  C   UNL d   1     -40.710  15.177  18.174  0.00  0.00     0.121 A 
ATOM      3  C   UNL d   1     -40.180  14.551  17.142  0.00  0.00     0.142 A 
ATOM      4  C   UNL d   1     -40.409  14.463  18.458  0.00  0.00     0.132 A 
ATOM      5  C   UNL d   1     -40.081  14.079  17.812  0.00  0.00     0.225 A 
ATOM      6  O   UNL d   1     -40.967  15.921  17.601  0.00  0.00    -0.217 OA
ATOM      7  O   UNL d   1     -40.527  15.471  16.580  0.00  0.00    -0.217 OA
ATOM      8  O   UNL d   1     -39.701  13.328  17.810  0.00  0.00    -0.284 OA
ENDROOT
BRANCH   4   9
ATOM      9  N   UNL d   1     -40.385  14.114  19.185  0.00  0.00    -0.242 NA
BRANCH   9  10
ATOM     10  C   UNL d   1     -40.283  14.551  19.868  0.00  0.00     0.082 A 
ATOM     11  C   UNL d   1     -40.928  14.757  20.306  0.00  0.00     0.020 A 
ATOM     12  C   UNL d   1     -40.819  15.209  21.011  0.00  0.00     0.013 A 
ATOM     13  C   UNL d   1     -40.067  15.429  21.239  0.00  0.00     0.058 A 
ATOM     14  C   UNL d   1     -39.407  15.225  20.803  0.00  0.00     0.013 A 
ATOM     15 CL   UNL d   1     -39.970  15.879  21.944  0.00  0.00    -0.082 Cl
ATOM     16  C   UNL d   1     -39.520  14.781  20.109  0.00  0.00     0.020 A 
ENDBRANCH   9  10
ENDBRANCH   4   9
TORSDOF 2
ENDMDL
MODEL 6
REMARK VINA RESULT:      -5.1      8.616      9.473
REMARK  2 active torsions:
REMARK  status: ('A' for Active; 'I' for Inactive)
REMARK    1  A    between atoms: N_6  and  C_4 
REMARK    2  A    between atoms: C_9  and  N_6 
ROOT
ATOM      1  S   UNL d   1     -39.486  15.849  21.077  0.00  0.00     0.216 S 
ATOM      2  C   UNL d   1     -39.603  15.762  20.264  0.00  0.00     0.121 A 
ATOM      3  C   UNL d   1     -40.217  15.917  21.420  0.00  0.00     0.142 A 
ATOM      4  C   UNL d   1     -40.412  15.776  20.103  0.00  0.00     0.132 A 
ATOM      5  C   UNL d   1     -40.788  15.872  20.826  0.00  0.00     0.225 A 
ATOM      6  O   UNL d   1     -38.738  15.779  20.712  0.00  0.00    -0.217 OA
ATOM      7  O   UNL d   1     -39.160  15.921  21.825  0.00  0.00    -0.217 OA
ATOM      8  O   UNL d   1     -41.617  15.920  20.961  0.00  0.00    -0.284 OA
ENDROOT
BRANCH   4   9
ATOM      9  N   UNL d   1     -40.852  15.717  19.429  0.00  0.00    -0.242 NA
BRANCH   9  10
ATOM     10  C   UNL d   1     -40.539  15.413  18.737  0.00  0.00     0.082 A 
ATOM     11  C   UNL d   1     -40.559  14.617  18.610  0.00  0.00     0.020 A 
ATOM     12  C   UNL d   1     -40.236  14.308  17.894  0.00  0.00     0.013 A 
ATOM     13  C   UNL d   1     -39.909  14.815  17.344  0.00  0.00     0.058 A 
ATOM     14  C   UNL d   1     -39.884  15.623  17.464  0.00  0.00     0.013 A 
ATOM     15 CL   UNL d   1     -39.589  14.496  16.634  0.00  0.00    -0.082 Cl
ATOM     16  C   UNL d   1     -40.204  15.922  18.171  0.00  0.00     0.020 A 
ENDBRANCH   9  10
ENDBRANCH   4   9
TORSDOF 2
ENDMDL
