MODEL 1
REMARK VINA RESULT:      30.5      0.000      0.000
REMARK  4 active torsions:
REMARK  status: ('A' for Active; 'I' for Inactive)
REMARK    1  A    between atoms: C_8  and  C_1 
REMARK    2  A    between atoms: C_6  and  C_16 
REMARK    3  A    between atoms: O_13  and  C_8 
REMARK    4  A    between atoms: C_16  and  O_13 
ROOT
ATOM      1  C   UNL d   1     -56.061 -98.758 -45.001  0.00  0.00     0.305 C 
ATOM      2  O   UNL d   1     -56.046 -98.761 -45.840  0.00  0.00    -0.259 OA
ENDROOT
BRANCH   1   3
ATOM      3  C   UNL d   1     -56.815 -98.757 -44.563  0.00  0.00     0.127 A 
ATOM      4  C   UNL d   1     -56.807 -98.756 -43.724  0.00  0.00     0.305 A 
ATOM      5  O   UNL d   1     -57.525 -98.755 -43.353  0.00  0.00    -0.273 OA
ATOM      6  O   UNL d   1     -56.104 -98.755 -43.298  0.00  0.00    -0.259 OA
ATOM      7  C   UNL d   1     -58.223 -98.756 -43.764  0.00  0.00     0.103 A 
ATOM      8  C   UNL d   1     -58.213 -98.757 -44.596  0.00  0.00     0.023 A 
ATOM      9  C   UNL d   1     -58.945 -98.755 -43.394  0.00  0.00     0.025 A 
ATOM     10  C   UNL d   1     -57.486 -98.758 -44.999  0.00  0.00     0.013 A 
ATOM     11  C   UNL d   1     -58.906 -98.758 -45.040  0.00  0.00     0.002 A 
ATOM     12  C   UNL d   1     -59.621 -98.757 -44.629  0.00  0.00     0.000 A 
ATOM     13  C   UNL d   1     -59.648 -98.756 -43.806  0.00  0.00     0.002 A 
ENDBRANCH   1   3
BRANCH   1  14
ATOM     14  O   UNL d   1     -55.363 -98.756 -44.589  0.00  0.00    -0.269 OA
BRANCH  14  15
ATOM     15  C   UNL d   1     -54.755 -99.230 -44.806  0.00  0.00     0.152 C 
BRANCH  15  16
ATOM     16  C   UNL d   1     -54.756-100.029 -44.572  0.00  0.00     0.136 A 
ATOM     17  N   UNL d   1     -54.784-100.367 -43.826  0.00  0.00    -0.236 NA
ATOM     18  C   UNL d   1     -54.770-101.181 -43.929  0.00  0.00     0.088 A 
ATOM     19  C   UNL d   1     -54.786-101.808 -43.392  0.00  0.00     0.020 A 
ATOM     20  C   UNL d   1     -54.733-101.325 -44.742  0.00  0.00     0.049 A 
ATOM     21  C   UNL d   1     -54.765-102.603 -43.651  0.00  0.00     0.002 A 
ATOM     22  C   UNL d   1     -54.728-102.724 -44.457  0.00  0.00     0.001 A 
ATOM     23  C   UNL d   1     -54.712-102.093 -45.014  0.00  0.00     0.008 A 
ATOM     24  S   UNL d   1     -54.724-100.618 -45.125  0.00  0.00    -0.064 SA
ENDBRANCH  15  16
ENDBRANCH  14  15
ENDBRANCH   1  14
TORSDOF 4
ENDMDL
