MODEL 1
REMARK VINA RESULT:      -6.9      0.000      0.000
REMARK  5 active torsions:
REMARK  status: ('A' for Active; 'I' for Inactive)
REMARK    1  A    between atoms: C_2  and  C_1 
REMARK    2  A    between atoms: C_3  and  C_1 
REMARK    3  A    between atoms: C_4  and  C_2 
REMARK    4  A    between atoms: C_8  and  C_3 
REMARK    5  A    between atoms: O_18  and  C_10 
ROOT
ATOM      1  C   UNL d   1     -46.597  13.516  22.902  0.00  0.00     0.196 C 
ATOM      2  O   UNL d   1     -46.044  14.077  22.650  0.00  0.00    -0.287 OA
ENDROOT
BRANCH   1   3
ATOM      3  C   UNL d   1     -47.393  13.722  22.972  0.00  0.00     0.042 C 
BRANCH   3   4
ATOM      4  C   UNL d   1     -47.834  14.403  22.809  0.00  0.00     0.003 C 
BRANCH   4   5
ATOM      5  C   UNL d   1     -48.637  14.563  22.707  0.00  0.00     0.000 A 
ATOM      6  C   UNL d   1     -49.056  14.944  23.310  0.00  0.00     0.003 A 
ATOM      7  C   UNL d   1     -49.861  15.106  23.210  0.00  0.00     0.042 A 
ATOM      8  C   UNL d   1     -50.237  14.885  22.510  0.00  0.00     0.196 A 
ATOM      9  C   UNL d   1     -49.811  14.505  21.912  0.00  0.00     0.042 A 
ATOM     10  O   UNL d   1     -51.040  15.045  22.407  0.00  0.00    -0.287 OA
ATOM     11  C   UNL d   1     -49.016  14.345  22.010  0.00  0.00     0.003 A 
ENDBRANCH   4   5
ENDBRANCH   3   4
ENDBRANCH   1   3
BRANCH   1  12
ATOM     12  C   UNL d   1     -46.337  12.749  23.081  0.00  0.00     0.039 A 
ATOM     13  C   UNL d   1     -45.593  12.486  22.843  0.00  0.00     0.005 A 
ATOM     14  C   UNL d   1     -45.348  11.720  23.028  0.00  0.00     0.024 A 
ATOM     15  C   UNL d   1     -45.849  11.217  23.452  0.00  0.00     0.094 A 
ATOM     16  C   UNL d   1     -46.602  11.489  23.690  0.00  0.00     0.024 A 
ATOM     17  C   UNL d   1     -46.844  12.251  23.505  0.00  0.00     0.005 A 
BRANCH  15  18
ATOM     18  O   UNL d   1     -45.605  10.451  23.637  0.00  0.00    -0.328 OA
ATOM     19  C   UNL d   1     -44.801  10.279  23.698  0.00  0.00     0.181 C 
ENDBRANCH  15  18
ENDBRANCH   1  12
TORSDOF 5
ENDMDL
MODEL 2
REMARK VINA RESULT:      -6.9      1.669      5.033
REMARK  5 active torsions:
REMARK  status: ('A' for Active; 'I' for Inactive)
REMARK    1  A    between atoms: C_2  and  C_1 
REMARK    2  A    between atoms: C_3  and  C_1 
REMARK    3  A    between atoms: C_4  and  C_2 
REMARK    4  A    between atoms: C_8  and  C_3 
REMARK    5  A    between atoms: O_18  and  C_10 
ROOT
ATOM      1  C   UNL d   1     -49.069  11.743  23.142  0.00  0.00     0.196 C 
ATOM      2  O   UNL d   1     -49.394  11.105  23.556  0.00  0.00    -0.287 OA
ENDROOT
BRANCH   1   3
ATOM      3  C   UNL d   1     -48.251  11.851  23.123  0.00  0.00     0.042 C 
BRANCH   3   4
ATOM      4  C   UNL d   1     -47.628  11.657  23.631  0.00  0.00     0.003 C 
BRANCH   4   5
ATOM      5  C   UNL d   1     -46.814  11.552  23.537  0.00  0.00     0.000 A 
ATOM      6  C   UNL d   1     -46.478  10.814  23.698  0.00  0.00     0.003 A 
ATOM      7  C   UNL d   1     -45.664  10.706  23.604  0.00  0.00     0.042 A 
ATOM      8  C   UNL d   1     -45.195  11.336  23.352  0.00  0.00     0.196 A 
ATOM      9  C   UNL d   1     -45.539  12.072  23.194  0.00  0.00     0.042 A 
ATOM     10  O   UNL d   1     -44.382  11.232  23.258  0.00  0.00    -0.287 OA
ATOM     11  C   UNL d   1     -46.344  12.179  23.286  0.00  0.00     0.003 A 
ENDBRANCH   4   5
ENDBRANCH   3   4
ENDBRANCH   1   3
BRANCH   1  12
ATOM     12  C   UNL d   1     -49.578  12.267  22.749  0.00  0.00     0.039 A 
ATOM     13  C   UNL d   1     -50.295  12.497  23.087  0.00  0.00     0.005 A 
ATOM     14  C   UNL d   1     -50.790  13.019  22.684  0.00  0.00     0.024 A 
ATOM     15  C   UNL d   1     -50.569  13.311  21.942  0.00  0.00     0.094 A 
ATOM     16  C   UNL d   1     -49.842  13.074  21.605  0.00  0.00     0.024 A 
ATOM     17  C   UNL d   1     -49.350  12.555  22.008  0.00  0.00     0.005 A 
BRANCH  15  18
ATOM     18  O   UNL d   1     -51.064  13.833  21.539  0.00  0.00    -0.328 OA
ATOM     19  C   UNL d   1     -51.064  14.634  21.735  0.00  0.00     0.181 C 
ENDBRANCH  15  18
ENDBRANCH   1  12
TORSDOF 5
ENDMDL
MODEL 3
REMARK VINA RESULT:      -6.6      1.566      2.031
REMARK  5 active torsions:
REMARK  status: ('A' for Active; 'I' for Inactive)
REMARK    1  A    between atoms: C_2  and  C_1 
REMARK    2  A    between atoms: C_3  and  C_1 
REMARK    3  A    between atoms: C_4  and  C_2 
REMARK    4  A    between atoms: C_8  and  C_3 
REMARK    5  A    between atoms: O_18  and  C_10 
ROOT
ATOM      1  C   UNL d   1     -46.655  13.489  22.937  0.00  0.00     0.196 C 
ATOM      2  O   UNL d   1     -46.636  14.044  23.550  0.00  0.00    -0.287 OA
ENDROOT
BRANCH   1   3
ATOM      3  C   UNL d   1     -47.375  13.277  22.593  0.00  0.00     0.042 C 
BRANCH   3   4
ATOM      4  C   UNL d   1     -48.166  13.474  22.732  0.00  0.00     0.003 C 
BRANCH   4   5
ATOM      5  C   UNL d   1     -48.886  13.258  22.392  0.00  0.00     0.000 A 
ATOM      6  C   UNL d   1     -49.148  13.648  21.711  0.00  0.00     0.003 A 
ATOM      7  C   UNL d   1     -49.869  13.433  21.368  0.00  0.00     0.042 A 
ATOM      8  C   UNL d   1     -50.320  12.832  21.709  0.00  0.00     0.196 A 
ATOM      9  C   UNL d   1     -50.051  12.448  22.389  0.00  0.00     0.042 A 
ATOM     10  O   UNL d   1     -51.040  12.616  21.369  0.00  0.00    -0.287 OA
ATOM     11  C   UNL d   1     -49.338  12.659  22.729  0.00  0.00     0.003 A 
ENDBRANCH   4   5
ENDBRANCH   3   4
ENDBRANCH   1   3
BRANCH   1  12
ATOM     12  C   UNL d   1     -45.942  13.153  22.677  0.00  0.00     0.039 A 
ATOM     13  C   UNL d   1     -45.693  12.417  22.955  0.00  0.00     0.005 A 
ATOM     14  C   UNL d   1     -44.982  12.097  22.687  0.00  0.00     0.024 A 
ATOM     15  C   UNL d   1     -44.520  12.511  22.141  0.00  0.00     0.094 A 
ATOM     16  C   UNL d   1     -44.777  13.256  21.863  0.00  0.00     0.024 A 
ATOM     17  C   UNL d   1     -45.486  13.574  22.131  0.00  0.00     0.005 A 
BRANCH  15  18
ATOM     18  O   UNL d   1     -43.808  12.190  21.874  0.00  0.00    -0.328 OA
ATOM     19  C   UNL d   1     -43.290  12.653  21.429  0.00  0.00     0.181 C 
ENDBRANCH  15  18
ENDBRANCH   1  12
TORSDOF 5
ENDMDL
MODEL 4
REMARK VINA RESULT:      -6.3      1.580      4.478
REMARK  5 active torsions:
REMARK  status: ('A' for Active; 'I' for Inactive)
REMARK    1  A    between atoms: C_2  and  C_1 
REMARK    2  A    between atoms: C_3  and  C_1 
REMARK    3  A    between atoms: C_4  and  C_2 
REMARK    4  A    between atoms: C_8  and  C_3 
REMARK    5  A    between atoms: O_18  and  C_10 
ROOT
ATOM      1  C   UNL d   1     -47.886  13.959  22.611  0.00  0.00     0.196 C 
ATOM      2  O   UNL d   1     -47.833  14.782  22.554  0.00  0.00    -0.287 OA
ENDROOT
BRANCH   1   3
ATOM      3  C   UNL d   1     -47.200  13.500  22.628  0.00  0.00     0.042 C 
BRANCH   3   4
ATOM      4  C   UNL d   1     -46.393  13.659  22.541  0.00  0.00     0.003 C 
BRANCH   4   5
ATOM      5  C   UNL d   1     -45.716  13.193  22.463  0.00  0.00     0.000 A 
ATOM      6  C   UNL d   1     -45.620  12.529  22.947  0.00  0.00     0.003 A 
ATOM      7  C   UNL d   1     -44.943  12.061  22.871  0.00  0.00     0.042 A 
ATOM      8  C   UNL d   1     -44.369  12.261  22.313  0.00  0.00     0.196 A 
ATOM      9  C   UNL d   1     -44.473  12.926  21.833  0.00  0.00     0.042 A 
ATOM     10  O   UNL d   1     -43.693  11.796  22.235  0.00  0.00    -0.287 OA
ATOM     11  C   UNL d   1     -45.142  13.389  21.907  0.00  0.00     0.003 A 
ENDBRANCH   4   5
ENDBRANCH   3   4
ENDBRANCH   1   3
BRANCH   1  12
ATOM     12  C   UNL d   1     -48.636  13.607  22.649  0.00  0.00     0.039 A 
ATOM     13  C   UNL d   1     -49.028  13.365  21.965  0.00  0.00     0.005 A 
ATOM     14  C   UNL d   1     -49.773  13.016  22.019  0.00  0.00     0.024 A 
ATOM     15  C   UNL d   1     -50.127  12.910  22.759  0.00  0.00     0.094 A 
ATOM     16  C   UNL d   1     -49.726  13.157  23.449  0.00  0.00     0.024 A 
ATOM     17  C   UNL d   1     -48.984  13.504  23.392  0.00  0.00     0.005 A 
BRANCH  15  18
ATOM     18  O   UNL d   1     -50.873  12.561  22.814  0.00  0.00    -0.328 OA
ATOM     19  C   UNL d   1     -51.064  12.100  23.470  0.00  0.00     0.181 C 
ENDBRANCH  15  18
ENDBRANCH   1  12
TORSDOF 5
ENDMDL
MODEL 5
REMARK VINA RESULT:      -6.1      7.965      9.544
REMARK  5 active torsions:
REMARK  status: ('A' for Active; 'I' for Inactive)
REMARK    1  A    between atoms: C_2  and  C_1 
REMARK    2  A    between atoms: C_3  and  C_1 
REMARK    3  A    between atoms: C_4  and  C_2 
REMARK    4  A    between atoms: C_8  and  C_3 
REMARK    5  A    between atoms: O_18  and  C_10 
ROOT
ATOM      1  C   UNL d   1     -40.456  14.417  19.875  0.00  0.00     0.196 C 
ATOM      2  O   UNL d   1     -41.209  14.075  19.867  0.00  0.00    -0.287 OA
ENDROOT
BRANCH   1   3
ATOM      3  C   UNL d   1     -39.982  14.391  19.200  0.00  0.00     0.042 C 
BRANCH   3   4
ATOM      4  C   UNL d   1     -40.067  14.067  18.443  0.00  0.00     0.003 C 
BRANCH   4   5
ATOM      5  C   UNL d   1     -39.590  14.036  17.770  0.00  0.00     0.000 A 
ATOM      6  C   UNL d   1     -39.622  14.652  17.219  0.00  0.00     0.003 A 
ATOM      7  C   UNL d   1     -39.146  14.622  16.544  0.00  0.00     0.042 A 
ATOM      8  C   UNL d   1     -38.644  13.978  16.426  0.00  0.00     0.196 A 
ATOM      9  C   UNL d   1     -38.618  13.366  16.982  0.00  0.00     0.042 A 
ATOM     10  O   UNL d   1     -38.167  13.946  15.754  0.00  0.00    -0.287 OA
ATOM     11  C   UNL d   1     -39.088  13.395  17.650  0.00  0.00     0.003 A 
ENDBRANCH   4   5
ENDBRANCH   3   4
ENDBRANCH   1   3
BRANCH   1  12
ATOM     12  C   UNL d   1     -40.190  14.785  20.569  0.00  0.00     0.039 A 
ATOM     13  C   UNL d   1     -39.659  14.406  21.074  0.00  0.00     0.005 A 
ATOM     14  C   UNL d   1     -39.403  14.785  21.761  0.00  0.00     0.024 A 
ATOM     15  C   UNL d   1     -39.679  15.543  21.943  0.00  0.00     0.094 A 
ATOM     16  C   UNL d   1     -40.216  15.922  21.428  0.00  0.00     0.024 A 
ATOM     17  C   UNL d   1     -40.470  15.543  20.744  0.00  0.00     0.005 A 
BRANCH  15  18
ATOM     18  O   UNL d   1     -39.423  15.922  22.630  0.00  0.00    -0.328 OA
ATOM     19  C   UNL d   1     -38.670  15.767  22.929  0.00  0.00     0.181 C 
ENDBRANCH  15  18
ENDBRANCH   1  12
TORSDOF 5
ENDMDL
MODEL 6
REMARK VINA RESULT:      -5.9      8.580      9.827
REMARK  5 active torsions:
REMARK  status: ('A' for Active; 'I' for Inactive)
REMARK    1  A    between atoms: C_2  and  C_1 
REMARK    2  A    between atoms: C_3  and  C_1 
REMARK    3  A    between atoms: C_4  and  C_2 
REMARK    4  A    between atoms: C_8  and  C_3 
REMARK    5  A    between atoms: O_18  and  C_10 
ROOT
ATOM      1  C   UNL d   1     -38.769  14.765  19.191  0.00  0.00     0.196 C 
ATOM      2  O   UNL d   1     -38.040  15.088  18.972  0.00  0.00    -0.287 OA
ENDROOT
BRANCH   1   3
ATOM      3  C   UNL d   1     -38.857  14.403  19.928  0.00  0.00     0.042 C 
BRANCH   3   4
ATOM      4  C   UNL d   1     -38.362  14.286  20.580  0.00  0.00     0.003 C 
BRANCH   4   5
ATOM      5  C   UNL d   1     -38.449  13.922  21.316  0.00  0.00     0.000 A 
ATOM      6  C   UNL d   1     -37.940  13.306  21.528  0.00  0.00     0.003 A 
ATOM      7  C   UNL d   1     -38.025  12.940  22.264  0.00  0.00     0.042 A 
ATOM      8  C   UNL d   1     -38.617  13.192  22.780  0.00  0.00     0.196 A 
ATOM      9  C   UNL d   1     -39.122  13.809  22.560  0.00  0.00     0.042 A 
ATOM     10  O   UNL d   1     -38.705  12.829  23.515  0.00  0.00    -0.287 OA
ATOM     11  C   UNL d   1     -39.039  14.172  21.833  0.00  0.00     0.003 A 
ENDBRANCH   4   5
ENDBRANCH   3   4
ENDBRANCH   1   3
BRANCH   1  12
ATOM     12  C   UNL d   1     -39.404  14.811  18.660  0.00  0.00     0.039 A 
ATOM     13  C   UNL d   1     -39.549  14.208  18.116  0.00  0.00     0.005 A 
ATOM     14  C   UNL d   1     -40.184  14.269  17.594  0.00  0.00     0.024 A 
ATOM     15  C   UNL d   1     -40.676  14.933  17.616  0.00  0.00     0.094 A 
ATOM     16  C   UNL d   1     -40.525  15.541  18.169  0.00  0.00     0.024 A 
ATOM     17  C   UNL d   1     -39.892  15.479  18.688  0.00  0.00     0.005 A 
BRANCH  15  18
ATOM     18  O   UNL d   1     -41.312  14.994  17.094  0.00  0.00    -0.328 OA
ATOM     19  C   UNL d   1     -41.360  15.635  16.578  0.00  0.00     0.181 C 
ENDBRANCH  15  18
ENDBRANCH   1  12
TORSDOF 5
ENDMDL
