MODEL 1
REMARK VINA RESULT:      19.5      0.000      0.000
REMARK  3 active torsions:
REMARK  status: ('A' for Active; 'I' for Inactive)
REMARK    1  A    between atoms: C_8  and  N_1 
REMARK    2  A    between atoms: N_7  and  C_2 
REMARK    3  A    between atoms: C_16  and  C_8 
ROOT
ATOM      1  N   UNL d   1      45.306 -15.244  44.728  0.00  0.00    -0.225 N 
ATOM      2  C   UNL d   1      45.797 -16.749  44.276  0.00  0.00     0.158 A 
ATOM      3  C   UNL d   1      44.759 -15.862  44.677  0.00  0.00     0.358 A 
ATOM      4  N   UNL d   1      45.005 -16.609  44.452  0.00  0.00    -0.174 NA
ATOM      5  C   UNL d   1      46.099 -15.374  44.554  0.00  0.00     0.271 A 
ATOM      6  C   UNL d   1      46.344 -16.131  44.327  0.00  0.00     0.099 A 
ATOM      7  O   UNL d   1      43.961 -15.723  44.855  0.00  0.00    -0.244 OA
ATOM      8  O   UNL d   1      46.647 -14.757  44.605  0.00  0.00    -0.266 OA
ENDROOT
BRANCH   1   9
ATOM      9  C   UNL d   1      45.059 -14.491  44.955  0.00  0.00     0.087 C 
BRANCH   9  10
ATOM     10  C   UNL d   1      45.003 -13.889  44.393  0.00  0.00     0.018 A 
ATOM     11  C   UNL d   1      45.586 -13.303  44.371  0.00  0.00     0.004 A 
ATOM     12  C   UNL d   1      45.530 -12.701  43.809  0.00  0.00     0.030 A 
ATOM     13  C   UNL d   1      44.900 -12.692  43.282  0.00  0.00     0.140 A 
ATOM     14  C   UNL d   1      44.328 -13.271  43.308  0.00  0.00     0.030 A 
ATOM     15  F   UNL d   1      44.851 -12.084  42.721  0.00  0.00    -0.204 F 
ATOM     16  C   UNL d   1      44.376 -13.872  43.864  0.00  0.00     0.004 A 
ENDBRANCH   9  10
ENDBRANCH   1   9
BRANCH   2  17
ATOM     17  N   UNL d   1      46.047 -17.499  44.049  0.00  0.00    -0.285 N 
ATOM     18  C   UNL d   1      46.162 -18.079  44.611  0.00  0.00     0.106 A 
ATOM     19  C   UNL d   1      46.412 -18.830  44.385  0.00  0.00     0.118 A 
ATOM     20  C   UNL d   1      46.529 -19.417  44.952  0.00  0.00     0.028 C 
ATOM     21  O   UNL d   1      46.548 -19.004  43.597  0.00  0.00    -0.304 OA
ATOM     22  C   UNL d   1      46.431 -18.408  43.014  0.00  0.00     0.118 A 
ATOM     23  C   UNL d   1      46.180 -17.657  43.244  0.00  0.00     0.106 A 
ATOM     24  C   UNL d   1      46.567 -18.579  42.220  0.00  0.00     0.028 C 
ENDBRANCH   2  17
TORSDOF 3
ENDMDL
