MODEL 1
REMARK VINA RESULT:      -3.7      0.000      0.000
REMARK  6 active torsions:
REMARK  status: ('A' for Active; 'I' for Inactive)
REMARK    1  A    between atoms: C_2  and  N_1 
REMARK    2  A    between atoms: C_6  and  C_2 
REMARK    3  A    between atoms: O_5  and  C_12 
REMARK    4  A    between atoms: C_11  and  O_5 
REMARK    5  A    between atoms: C_12  and  C_9 
REMARK    6  A    between atoms: C_10  and  C_11 
ROOT
ATOM      1  N   UNL d   1      59.446  -0.417  29.147  0.00  0.00    -0.302 N 
ATOM      2  C   UNL d   1      58.635  -0.429  28.982  0.00  0.00     0.080 A 
ATOM      3  C   UNL d   1      59.722  -0.048  29.835  0.00  0.00     0.080 A 
ATOM      4  C   UNL d   1      58.105  -0.077  29.494  0.00  0.00     0.021 A 
ATOM      5  C   UNL d   1      59.190   0.308  30.355  0.00  0.00     0.021 A 
ATOM      6  C   UNL d   1      58.373   0.295  30.185  0.00  0.00     0.028 A 
ENDROOT
BRANCH   6   7
ATOM      7  C   UNL d   1      57.841   0.651  30.705  0.00  0.00     0.123 C 
BRANCH   7   8
ATOM      8  O   UNL d   1      57.400   0.185  31.233  0.00  0.00    -0.303 OA
BRANCH   8   9
ATOM      9  C   UNL d   1      56.944   0.536  31.814  0.00  0.00     0.123 C 
BRANCH   9  10
ATOM     10  C   UNL d   1      56.453   0.081  32.290  0.00  0.00     0.025 A 
ATOM     11  C   UNL d   1      56.499  -0.738  32.253  0.00  0.00     0.002 A 
ATOM     12  C   UNL d   1      56.006  -1.194  32.729  0.00  0.00     0.000 A 
ATOM     13  C   UNL d   1      55.469  -0.831  33.242  0.00  0.00     0.000 A 
ATOM     14  C   UNL d   1      55.430  -0.006  33.272  0.00  0.00     0.000 A 
ATOM     15  C   UNL d   1      55.922   0.450  32.796  0.00  0.00     0.002 A 
ENDBRANCH   9  10
ENDBRANCH   8   9
ENDBRANCH   7   8
ENDBRANCH   6   7
BRANCH   1  16
ATOM     16  C   UNL d   1      59.969  -0.772  28.629  0.00  0.00     0.080 C 
BRANCH  16  17
ATOM     17  C   UNL d   1      60.193  -1.558  28.737  0.00  0.00     0.018 A 
ATOM     18  C   UNL d   1      60.903  -1.738  29.130  0.00  0.00     0.002 A 
ATOM     19  C   UNL d   1      61.128  -2.528  29.238  0.00  0.00     0.000 A 
ATOM     20  C   UNL d   1      60.645  -3.136  28.956  0.00  0.00     0.000 A 
ATOM     21  C   UNL d   1      59.939  -2.957  28.566  0.00  0.00     0.000 A 
ATOM     22  C   UNL d   1      59.711  -2.170  28.455  0.00  0.00     0.002 A 
ENDBRANCH  16  17
ENDBRANCH   1  16
TORSDOF 6
ENDMDL
MODEL 2
REMARK VINA RESULT:      -3.1      0.994      1.520
REMARK  6 active torsions:
REMARK  status: ('A' for Active; 'I' for Inactive)
REMARK    1  A    between atoms: C_2  and  N_1 
REMARK    2  A    between atoms: C_6  and  C_2 
REMARK    3  A    between atoms: O_5  and  C_12 
REMARK    4  A    between atoms: C_11  and  O_5 
REMARK    5  A    between atoms: C_12  and  C_9 
REMARK    6  A    between atoms: C_10  and  C_11 
ROOT
ATOM      1  N   UNL d   1      58.208  -0.550  29.772  0.00  0.00    -0.302 N 
ATOM      2  C   UNL d   1      57.824  -0.944  30.389  0.00  0.00     0.080 A 
ATOM      3  C   UNL d   1      58.378   0.258  29.840  0.00  0.00     0.080 A 
ATOM      4  C   UNL d   1      57.611  -0.541  31.067  0.00  0.00     0.021 A 
ATOM      5  C   UNL d   1      58.165   0.669  30.523  0.00  0.00     0.021 A 
ATOM      6  C   UNL d   1      57.777   0.267  31.144  0.00  0.00     0.028 A 
ENDROOT
BRANCH   6   7
ATOM      7  C   UNL d   1      57.564   0.678  31.827  0.00  0.00     0.123 C 
BRANCH   7   8
ATOM      8  O   UNL d   1      57.012   0.350  32.354  0.00  0.00    -0.303 OA
BRANCH   8   9
ATOM      9  C   UNL d   1      56.958   0.626  33.122  0.00  0.00     0.123 C 
BRANCH   9  10
ATOM     10  C   UNL d   1      56.233   0.645  33.508  0.00  0.00     0.025 A 
ATOM     11  C   UNL d   1      55.540   0.645  33.069  0.00  0.00     0.002 A 
ATOM     12  C   UNL d   1      54.814   0.664  33.455  0.00  0.00     0.000 A 
ATOM     13  C   UNL d   1      54.781   0.682  34.281  0.00  0.00     0.000 A 
ATOM     14  C   UNL d   1      55.485   0.681  34.716  0.00  0.00     0.000 A 
ATOM     15  C   UNL d   1      56.211   0.662  34.329  0.00  0.00     0.002 A 
ENDBRANCH   9  10
ENDBRANCH   8   9
ENDBRANCH   7   8
ENDBRANCH   6   7
BRANCH   1  16
ATOM     16  C   UNL d   1      58.417  -0.961  29.097  0.00  0.00     0.080 C 
BRANCH  16  17
ATOM     17  C   UNL d   1      59.174  -1.280  29.023  0.00  0.00     0.018 A 
ATOM     18  C   UNL d   1      59.325  -2.056  29.280  0.00  0.00     0.002 A 
ATOM     19  C   UNL d   1      60.086  -2.376  29.206  0.00  0.00     0.000 A 
ATOM     20  C   UNL d   1      60.693  -1.923  28.876  0.00  0.00     0.000 A 
ATOM     21  C   UNL d   1      60.542  -1.152  28.621  0.00  0.00     0.000 A 
ATOM     22  C   UNL d   1      59.785  -0.828  28.693  0.00  0.00     0.002 A 
ENDBRANCH  16  17
ENDBRANCH   1  16
TORSDOF 6
ENDMDL
MODEL 3
REMARK VINA RESULT:      -3.0      1.425      5.548
REMARK  6 active torsions:
REMARK  status: ('A' for Active; 'I' for Inactive)
REMARK    1  A    between atoms: C_2  and  N_1 
REMARK    2  A    between atoms: C_6  and  C_2 
REMARK    3  A    between atoms: O_5  and  C_12 
REMARK    4  A    between atoms: C_11  and  O_5 
REMARK    5  A    between atoms: C_12  and  C_9 
REMARK    6  A    between atoms: C_10  and  C_11 
ROOT
ATOM      1  N   UNL d   1      56.816  -0.325  32.658  0.00  0.00    -0.302 N 
ATOM      2  C   UNL d   1      56.698  -0.819  32.005  0.00  0.00     0.080 A 
ATOM      3  C   UNL d   1      57.237   0.383  32.570  0.00  0.00     0.080 A 
ATOM      4  C   UNL d   1      56.994  -0.612  31.272  0.00  0.00     0.021 A 
ATOM      5  C   UNL d   1      57.538   0.595  31.832  0.00  0.00     0.021 A 
ATOM      6  C   UNL d   1      57.417   0.094  31.175  0.00  0.00     0.028 A 
ENDROOT
BRANCH   6   7
ATOM      7  C   UNL d   1      57.718   0.306  30.437  0.00  0.00     0.123 C 
BRANCH   7   8
ATOM      8  O   UNL d   1      58.477   0.055  30.209  0.00  0.00    -0.303 OA
BRANCH   8   9
ATOM      9  C   UNL d   1      58.681   0.019  29.418  0.00  0.00     0.123 C 
BRANCH   9  10
ATOM     10  C   UNL d   1      59.447  -0.178  29.195  0.00  0.00     0.025 A 
ATOM     11  C   UNL d   1      59.571  -0.812  28.689  0.00  0.00     0.002 A 
ATOM     12  C   UNL d   1      60.338  -1.009  28.465  0.00  0.00     0.000 A 
ATOM     13  C   UNL d   1      60.980  -0.571  28.747  0.00  0.00     0.000 A 
ATOM     14  C   UNL d   1      60.845   0.067  29.256  0.00  0.00     0.000 A 
ATOM     15  C   UNL d   1      60.078   0.263  29.480  0.00  0.00     0.002 A 
ENDBRANCH   9  10
ENDBRANCH   8   9
ENDBRANCH   7   8
ENDBRANCH   6   7
BRANCH   1  16
ATOM     16  C   UNL d   1      56.516  -0.539  33.387  0.00  0.00     0.080 C 
BRANCH  16  17
ATOM     17  C   UNL d   1      55.873  -0.133  33.708  0.00  0.00     0.018 A 
ATOM     18  C   UNL d   1      55.955   0.274  34.427  0.00  0.00     0.002 A 
ATOM     19  C   UNL d   1      55.309   0.682  34.748  0.00  0.00     0.000 A 
ATOM     20  C   UNL d   1      54.585   0.682  34.353  0.00  0.00     0.000 A 
ATOM     21  C   UNL d   1      54.503   0.277  33.638  0.00  0.00     0.000 A 
ATOM     22  C   UNL d   1      55.145  -0.132  33.313  0.00  0.00     0.002 A 
ENDBRANCH  16  17
ENDBRANCH   1  16
TORSDOF 6
ENDMDL
MODEL 4
REMARK VINA RESULT:      -1.9      8.361      9.324
REMARK  6 active torsions:
REMARK  status: ('A' for Active; 'I' for Inactive)
REMARK    1  A    between atoms: C_2  and  N_1 
REMARK    2  A    between atoms: C_6  and  C_2 
REMARK    3  A    between atoms: O_5  and  C_12 
REMARK    4  A    between atoms: C_11  and  O_5 
REMARK    5  A    between atoms: C_12  and  C_9 
REMARK    6  A    between atoms: C_10  and  C_11 
ROOT
ATOM      1  N   UNL d   1      58.207  -9.817  30.416  0.00  0.00    -0.302 N 
ATOM      2  C   UNL d   1      58.949  -9.816  30.781  0.00  0.00     0.080 A 
ATOM      3  C   UNL d   1      57.520  -9.816  30.878  0.00  0.00     0.080 A 
ATOM      4  C   UNL d   1      59.008  -9.814  31.596  0.00  0.00     0.021 A 
ATOM      5  C   UNL d   1      57.575  -9.814  31.701  0.00  0.00     0.021 A 
ATOM      6  C   UNL d   1      58.326  -9.814  32.066  0.00  0.00     0.028 A 
ENDROOT
BRANCH   6   7
ATOM      7  C   UNL d   1      58.381  -9.812  32.889  0.00  0.00     0.123 C 
BRANCH   7   8
ATOM      8  O   UNL d   1      59.061  -9.512  33.260  0.00  0.00    -0.303 OA
BRANCH   8   9
ATOM      9  C   UNL d   1      59.083  -9.418  34.072  0.00  0.00     0.123 C 
BRANCH   9  10
ATOM     10  C   UNL d   1      59.727  -9.057  34.432  0.00  0.00     0.025 A 
ATOM     11  C   UNL d   1      60.485  -9.334  34.279  0.00  0.00     0.002 A 
ATOM     12  C   UNL d   1      61.130  -8.972  34.639  0.00  0.00     0.000 A 
ATOM     13  C   UNL d   1      61.017  -8.334  35.153  0.00  0.00     0.000 A 
ATOM     14  C   UNL d   1      60.251  -8.062  35.301  0.00  0.00     0.000 A 
ATOM     15  C   UNL d   1      59.605  -8.424  34.940  0.00  0.00     0.002 A 
ENDBRANCH   9  10
ENDBRANCH   8   9
ENDBRANCH   7   8
ENDBRANCH   6   7
BRANCH   1  16
ATOM     16  C   UNL d   1      58.157  -9.818  29.600  0.00  0.00     0.080 C 
BRANCH  16  17
ATOM     17  C   UNL d   1      57.562  -9.393  29.219  0.00  0.00     0.018 A 
ATOM     18  C   UNL d   1      57.689  -8.600  29.004  0.00  0.00     0.002 A 
ATOM     19  C   UNL d   1      57.090  -8.174  28.622  0.00  0.00     0.000 A 
ATOM     20  C   UNL d   1      56.368  -8.537  28.455  0.00  0.00     0.000 A 
ATOM     21  C   UNL d   1      56.242  -9.325  28.669  0.00  0.00     0.000 A 
ATOM     22  C   UNL d   1      56.836  -9.755  29.051  0.00  0.00     0.002 A 
ENDBRANCH  16  17
ENDBRANCH   1  16
TORSDOF 6
ENDMDL
