MODEL 1
REMARK VINA RESULT:      -4.2      0.000      0.000
REMARK  4 active torsions:
REMARK  status: ('A' for Active; 'I' for Inactive)
REMARK    1  A    between atoms: C_2  and  C_1 
REMARK    2  A    between atoms: C_15  and  C_8 
REMARK    3  A    between atoms: C_9  and  C_15 
REMARK    4  A    between atoms: C_18  and  C_10 
ROOT
ATOM      1  C   UNL d   1      33.094  18.938 -23.398  0.00  0.00     0.094 A 
ATOM      2  N   UNL d   1      32.938  18.251 -22.966  0.00  0.00    -0.238 NA
ATOM      3  C   UNL d   1      32.992  17.621 -23.506  0.00  0.00     0.113 A 
ATOM      4  S   UNL d   1      33.181  17.921 -24.269  0.00  0.00    -0.066 SA
ATOM      5  C   UNL d   1      33.241  18.737 -24.184  0.00  0.00     0.056 A 
ENDROOT
BRANCH   3   6
ATOM      6  C   UNL d   1      32.881  16.836 -23.331  0.00  0.00     0.051 C 
BRANCH   6   7
ATOM      7  C   UNL d   1      32.184  16.459 -23.523  0.00  0.00     0.113 A 
ATOM      8  N   UNL d   1      31.392  16.626 -23.327  0.00  0.00    -0.238 NA
ATOM      9  C   UNL d   1      30.908  16.044 -23.684  0.00  0.00     0.088 A 
ATOM     10  C   UNL d   1      31.417  15.538 -24.090  0.00  0.00     0.056 A 
ATOM     11  S   UNL d   1      32.184  15.778 -23.999  0.00  0.00    -0.066 SA
BRANCH   9  12
ATOM     12  C   UNL d   1      30.094  16.005 -23.628  0.00  0.00     0.018 A 
ATOM     13  C   UNL d   1      29.619  16.316 -24.198  0.00  0.00     0.002 A 
ATOM     14  C   UNL d   1      28.801  16.275 -24.138  0.00  0.00     0.000 A 
ATOM     15  C   UNL d   1      28.469  15.911 -23.487  0.00  0.00     0.000 A 
ATOM     16  C   UNL d   1      28.944  15.596 -22.909  0.00  0.00     0.000 A 
ATOM     17  C   UNL d   1      27.633  15.871 -23.429  0.00  0.00     0.000 C 
ATOM     18  C   UNL d   1      29.753  15.641 -22.977  0.00  0.00     0.002 A 
ENDBRANCH   9  12
ENDBRANCH   6   7
ENDBRANCH   3   6
BRANCH   1  19
ATOM     19  C   UNL d   1      33.081  19.674 -23.004  0.00  0.00     0.082 A 
ATOM     20  C   UNL d   1      33.150  20.425 -23.448  0.00  0.00     0.302 A 
ATOM     21  O   UNL d   1      33.135  21.144 -23.041  0.00  0.00    -0.273 OA
ATOM     22  O   UNL d   1      33.234  20.448 -24.306  0.00  0.00    -0.259 OA
ATOM     23  C   UNL d   1      33.054  21.158 -22.206  0.00  0.00     0.103 A 
ATOM     24  C   UNL d   1      32.990  20.451 -21.787  0.00  0.00     0.023 A 
ATOM     25  C   UNL d   1      33.044  21.896 -21.834  0.00  0.00     0.025 A 
ATOM     26  C   UNL d   1      33.003  19.710 -22.181  0.00  0.00     0.009 A 
ATOM     27  C   UNL d   1      32.909  20.469 -20.954  0.00  0.00     0.002 A 
ATOM     28  C   UNL d   1      32.895  21.189 -20.547  0.00  0.00     0.000 A 
ATOM     29  C   UNL d   1      32.964  21.911 -21.004  0.00  0.00     0.002 A 
ENDBRANCH   1  19
TORSDOF 4
ENDMDL
MODEL 2
REMARK VINA RESULT:      -3.1      0.950      1.574
REMARK  4 active torsions:
REMARK  status: ('A' for Active; 'I' for Inactive)
REMARK    1  A    between atoms: C_2  and  C_1 
REMARK    2  A    between atoms: C_15  and  C_8 
REMARK    3  A    between atoms: C_9  and  C_15 
REMARK    4  A    between atoms: C_18  and  C_10 
ROOT
ATOM      1  C   UNL d   1      33.082  20.352 -22.698  0.00  0.00     0.094 A 
ATOM      2  N   UNL d   1      33.095  19.618 -22.320  0.00  0.00    -0.238 NA
ATOM      3  C   UNL d   1      33.194  19.051 -22.921  0.00  0.00     0.113 A 
ATOM      4  S   UNL d   1      33.241  19.437 -23.666  0.00  0.00    -0.066 SA
ATOM      5  C   UNL d   1      33.170  20.242 -23.511  0.00  0.00     0.056 A 
ENDROOT
BRANCH   3   6
ATOM      6  C   UNL d   1      33.238  18.247 -22.810  0.00  0.00     0.051 C 
BRANCH   6   7
ATOM      7  C   UNL d   1      32.724  17.744 -23.193  0.00  0.00     0.113 A 
ATOM      8  N   UNL d   1      31.893  17.740 -23.251  0.00  0.00    -0.238 NA
ATOM      9  C   UNL d   1      31.669  17.084 -23.720  0.00  0.00     0.088 A 
ATOM     10  C   UNL d   1      32.369  16.704 -23.935  0.00  0.00     0.056 A 
ATOM     11  S   UNL d   1      33.006  17.092 -23.624  0.00  0.00    -0.066 SA
BRANCH   9  12
ATOM     12  C   UNL d   1      30.902  16.879 -23.913  0.00  0.00     0.018 A 
ATOM     13  C   UNL d   1      30.542  16.240 -23.583  0.00  0.00     0.002 A 
ATOM     14  C   UNL d   1      29.771  16.039 -23.780  0.00  0.00     0.000 A 
ATOM     15  C   UNL d   1      29.366  16.498 -24.321  0.00  0.00     0.000 A 
ATOM     16  C   UNL d   1      29.725  17.144 -24.656  0.00  0.00     0.000 A 
ATOM     17  C   UNL d   1      28.578  16.288 -24.519  0.00  0.00     0.000 C 
ATOM     18  C   UNL d   1      30.489  17.336 -24.456  0.00  0.00     0.002 A 
ENDBRANCH   9  12
ENDBRANCH   6   7
ENDBRANCH   3   6
BRANCH   1  19
ATOM     19  C   UNL d   1      32.988  21.043 -22.237  0.00  0.00     0.082 A 
ATOM     20  C   UNL d   1      33.066  21.838 -22.594  0.00  0.00     0.302 A 
ATOM     21  O   UNL d   1      32.970  22.509 -22.121  0.00  0.00    -0.273 OA
ATOM     22  O   UNL d   1      33.241  21.954 -23.430  0.00  0.00    -0.259 OA
ATOM     23  C   UNL d   1      32.798  22.432 -21.303  0.00  0.00     0.103 A 
ATOM     24  C   UNL d   1      32.725  21.683 -20.966  0.00  0.00     0.023 A 
ATOM     25  C   UNL d   1      32.709  23.126 -20.863  0.00  0.00     0.025 A 
ATOM     26  C   UNL d   1      32.819  20.989 -21.429  0.00  0.00     0.009 A 
ATOM     27  C   UNL d   1      32.554  21.611 -20.151  0.00  0.00     0.002 A 
ATOM     28  C   UNL d   1      32.458  22.283 -19.678  0.00  0.00     0.000 A 
ATOM     29  C   UNL d   1      32.539  23.051 -20.050  0.00  0.00     0.002 A 
ENDBRANCH   1  19
TORSDOF 4
ENDMDL
