MODEL 1
REMARK VINA RESULT:      40.7      0.000      0.000
REMARK  6 active torsions:
REMARK  status: ('A' for Active; 'I' for Inactive)
REMARK    1  A    between atoms: N_3  and  S_1 
REMARK    2  A    between atoms: C_9  and  S_1 
REMARK    3  A    between atoms: C_2  and  N_3 
REMARK    4  A    between atoms: N_5  and  C_10 
REMARK    5  A    between atoms: C_19  and  C_8 
REMARK    6  A    between atoms: O_20  and  C_19 
ROOT
ATOM      1  S   UNL d   1     -50.515  26.747  33.366  0.00  0.00     0.287 S 
ATOM      2  O   UNL d   1     -51.111  27.339  33.426  0.00  0.00    -0.198 OA
ATOM      3  O   UNL d   1     -49.913  26.161  33.306  0.00  0.00    -0.198 OA
ENDROOT
BRANCH   1   4
ATOM      4  N   UNL d   1     -49.927  27.362  33.364  0.00  0.00    -0.130 NA
BRANCH   4   5
ATOM      5  C   UNL d   1     -49.646  27.659  34.077  0.00  0.00     0.227 A 
ATOM      6  S   UNL d   1     -48.983  28.130  34.262  0.00  0.00    -0.023 SA
ATOM      7  C   UNL d   1     -48.990  28.253  35.095  0.00  0.00     0.159 A 
ATOM      8  N   UNL d   1     -49.638  27.867  35.399  0.00  0.00    -0.137 NA
ATOM      9  N   UNL d   1     -50.042  27.500  34.767  0.00  0.00    -0.120 NA
BRANCH   7  10
ATOM     10  C   UNL d   1     -48.427  28.694  35.523  0.00  0.00     0.144 C 
BRANCH  10  11
ATOM     11  O   UNL d   1     -47.632  28.751  35.219  0.00  0.00    -0.324 OA
ATOM     12  C   UNL d   1     -47.268  29.506  35.099  0.00  0.00     0.182 C 
ENDBRANCH  10  11
ENDBRANCH   7  10
ENDBRANCH   4   5
ENDBRANCH   1   4
BRANCH   1  13
ATOM     13  C   UNL d   1     -51.098  26.136  33.368  0.00  0.00     0.105 A 
ATOM     14  C   UNL d   1     -50.867  25.375  33.385  0.00  0.00     0.015 A 
ATOM     15  C   UNL d   1     -51.420  24.762  33.388  0.00  0.00     0.024 A 
ATOM     16  C   UNL d   1     -52.223  24.950  33.372  0.00  0.00     0.127 A 
ATOM     17  C   UNL d   1     -52.473  25.742  33.353  0.00  0.00     0.024 A 
ATOM     18  C   UNL d   1     -51.903  26.321  33.352  0.00  0.00     0.015 A 
BRANCH  16  19
ATOM     19  N   UNL d   1     -52.806  24.337  33.374  0.00  0.00    -0.114 N 
ATOM     20  O   UNL d   1     -52.577  23.554  33.331  0.00  0.00    -0.532 OA
ATOM     21  O   UNL d   1     -53.610  24.519  33.418  0.00  0.00    -0.532 OA
ENDBRANCH  16  19
ENDBRANCH   1  13
TORSDOF 6
ENDMDL
MODEL 2
REMARK VINA RESULT:      43.3      1.332      4.801
REMARK  6 active torsions:
REMARK  status: ('A' for Active; 'I' for Inactive)
REMARK    1  A    between atoms: N_3  and  S_1 
REMARK    2  A    between atoms: C_9  and  S_1 
REMARK    3  A    between atoms: C_2  and  N_3 
REMARK    4  A    between atoms: N_5  and  C_10 
REMARK    5  A    between atoms: C_19  and  C_8 
REMARK    6  A    between atoms: O_20  and  C_19 
ROOT
ATOM      1  S   UNL d   1     -51.028  26.551  33.688  0.00  0.00     0.287 S 
ATOM      2  O   UNL d   1     -50.659  25.808  33.831  0.00  0.00    -0.198 OA
ATOM      3  O   UNL d   1     -51.404  27.290  33.540  0.00  0.00    -0.198 OA
ENDROOT
BRANCH   1   4
ATOM      4  N   UNL d   1     -51.669  26.141  33.306  0.00  0.00    -0.130 NA
BRANCH   4   5
ATOM      5  C   UNL d   1     -51.688  25.319  33.313  0.00  0.00     0.227 A 
ATOM      6  S   UNL d   1     -52.321  24.776  33.314  0.00  0.00    -0.023 SA
ATOM      7  C   UNL d   1     -51.987  24.004  33.322  0.00  0.00     0.159 A 
ATOM      8  N   UNL d   1     -51.177  24.082  33.325  0.00  0.00    -0.137 NA
ATOM      9  N   UNL d   1     -50.995  24.898  33.319  0.00  0.00    -0.120 NA
BRANCH   7  10
ATOM     10  C   UNL d   1     -52.418  23.290  33.326  0.00  0.00     0.144 C 
BRANCH  10  11
ATOM     11  O   UNL d   1     -53.035  23.188  33.906  0.00  0.00    -0.324 OA
ATOM     12  C   UNL d   1     -53.754  23.634  33.854  0.00  0.00     0.182 C 
ENDBRANCH  10  11
ENDBRANCH   7  10
ENDBRANCH   4   5
ENDBRANCH   1   4
BRANCH   1  13
ATOM     13  C   UNL d   1     -50.392  26.959  34.067  0.00  0.00     0.105 A 
ATOM     14  C   UNL d   1     -50.314  26.914  34.857  0.00  0.00     0.015 A 
ATOM     15  C   UNL d   1     -49.700  27.305  35.246  0.00  0.00     0.024 A 
ATOM     16  C   UNL d   1     -49.165  27.748  34.802  0.00  0.00     0.127 A 
ATOM     17  C   UNL d   1     -49.239  27.801  33.976  0.00  0.00     0.024 A 
ATOM     18  C   UNL d   1     -49.855  27.403  33.624  0.00  0.00     0.015 A 
BRANCH  16  19
ATOM     19  N   UNL d   1     -48.528  28.157  35.182  0.00  0.00    -0.114 N 
ATOM     20  O   UNL d   1     -47.759  28.036  34.936  0.00  0.00    -0.532 OA
ATOM     21  O   UNL d   1     -48.675  28.681  35.804  0.00  0.00    -0.532 OA
ENDBRANCH  16  19
ENDBRANCH   1  13
TORSDOF 6
ENDMDL
