MODEL 1
REMARK VINA RESULT:      12.4      0.000      0.000
REMARK  3 active torsions:
REMARK  status: ('A' for Active; 'I' for Inactive)
REMARK    1  A    between atoms: C_2  and  N_1 
REMARK    2  A    between atoms: N_6  and  C_5 
REMARK    3  A    between atoms: C_12  and  N_6 
ROOT
ATOM      1  C   UNL d   1      45.720 -16.104  44.461  0.00  0.00     0.128 A 
ATOM      2  C   UNL d   1      44.938 -15.924  44.655  0.00  0.00     0.046 A 
ATOM      3  C   UNL d   1      44.711 -15.138  44.761  0.00  0.00     0.122 A 
ATOM      4  C   UNL d   1      45.264 -14.533  44.673  0.00  0.00     0.101 A 
ATOM      5  C   UNL d   1      46.273 -15.500  44.373  0.00  0.00     0.025 A 
ATOM      6  C   UNL d   1      46.042 -14.717  44.480  0.00  0.00     0.022 A 
ATOM      7  N   UNL d   1      43.929 -14.958  44.955  0.00  0.00    -0.146 N 
ENDROOT
BRANCH   4   8
ATOM      8  N   UNL d   1      45.033 -13.751  44.780  0.00  0.00    -0.244 NA
BRANCH   8   9
ATOM      9  C   UNL d   1      45.188 -13.195  44.190  0.00  0.00     0.081 A 
ATOM     10  C   UNL d   1      45.787 -12.637  44.296  0.00  0.00     0.019 A 
ATOM     11  C   UNL d   1      45.942 -12.081  43.707  0.00  0.00     0.002 A 
ATOM     12  C   UNL d   1      45.498 -12.083  43.011  0.00  0.00     0.000 A 
ATOM     13  C   UNL d   1      44.899 -12.640  42.906  0.00  0.00     0.002 A 
ATOM     14  C   UNL d   1      44.745 -13.196  43.495  0.00  0.00     0.019 A 
ENDBRANCH   8   9
ENDBRANCH   4   8
BRANCH   1  15
ATOM     15  N   UNL d   1      45.947 -16.890  44.355  0.00  0.00    -0.114 N 
ATOM     16  O   UNL d   1      46.308 -17.123  43.650  0.00  0.00    -0.532 OA
ATOM     17  O   UNL d   1      45.813 -17.443  44.953  0.00  0.00    -0.532 OA
ENDBRANCH   1  15
TORSDOF 3
ENDMDL
MODEL 2
REMARK VINA RESULT:      15.1      2.014      3.554
REMARK  3 active torsions:
REMARK  status: ('A' for Active; 'I' for Inactive)
REMARK    1  A    between atoms: C_2  and  N_1 
REMARK    2  A    between atoms: N_6  and  C_5 
REMARK    3  A    between atoms: C_12  and  N_6 
ROOT
ATOM      1  C   UNL d   1      45.579 -13.400  44.253  0.00  0.00     0.128 A 
ATOM      2  C   UNL d   1      44.823 -13.655  44.462  0.00  0.00     0.046 A 
ATOM      3  C   UNL d   1      44.702 -14.437  44.696  0.00  0.00     0.122 A 
ATOM      4  C   UNL d   1      45.336 -14.963  44.721  0.00  0.00     0.101 A 
ATOM      5  C   UNL d   1      46.213 -13.926  44.277  0.00  0.00     0.025 A 
ATOM      6  C   UNL d   1      46.089 -14.704  44.511  0.00  0.00     0.022 A 
ATOM      7  N   UNL d   1      43.946 -14.692  44.905  0.00  0.00    -0.146 N 
ENDROOT
BRANCH   4   8
ATOM      8  N   UNL d   1      45.212 -15.741  44.955  0.00  0.00    -0.244 NA
BRANCH   8   9
ATOM      9  C   UNL d   1      45.548 -16.358  44.521  0.00  0.00     0.081 A 
ATOM     10  C   UNL d   1      46.054 -16.895  44.891  0.00  0.00     0.019 A 
ATOM     11  C   UNL d   1      46.389 -17.510  44.458  0.00  0.00     0.002 A 
ATOM     12  C   UNL d   1      46.219 -17.590  43.654  0.00  0.00     0.000 A 
ATOM     13  C   UNL d   1      45.713 -17.053  43.285  0.00  0.00     0.002 A 
ATOM     14  C   UNL d   1      45.378 -16.438  43.718  0.00  0.00     0.019 A 
ENDBRANCH   8   9
ENDBRANCH   4   8
BRANCH   1  15
ATOM     15  N   UNL d   1      45.700 -12.618  44.019  0.00  0.00    -0.114 N 
ATOM     16  O   UNL d   1      46.092 -12.093  44.522  0.00  0.00    -0.532 OA
ATOM     17  O   UNL d   1      45.430 -12.361  43.283  0.00  0.00    -0.532 OA
ENDBRANCH   1  15
TORSDOF 3
ENDMDL
