MODEL 1
REMARK VINA RESULT:       0.7      0.000      0.000
REMARK  3 active torsions:
REMARK  status: ('A' for Active; 'I' for Inactive)
REMARK    1  A    between atoms: N_9  and  C_2 
REMARK    2  A    between atoms: C_15  and  C_7 
REMARK    3  A    between atoms: C_11  and  C_14 
ROOT
ATOM      1  C   UNL d   1      32.788  20.722 -23.071  0.00  0.00     0.152 A 
ATOM      2  C   UNL d   1      32.674  20.263 -22.388  0.00  0.00     0.174 A 
ATOM      3  C   UNL d   1      32.789  20.361 -23.819  0.00  0.00     0.111 A 
ATOM      4  N   UNL d   1      32.561  19.438 -22.463  0.00  0.00    -0.207 NA
ATOM      5  N   UNL d   1      32.677  19.550 -23.893  0.00  0.00    -0.225 NA
ATOM      6  O   UNL d   1      32.900  21.542 -22.998  0.00  0.00    -0.302 OA
ATOM      7  C   UNL d   1      32.563  19.082 -23.218  0.00  0.00     0.164 A 
ATOM      8  C   UNL d   1      33.015  21.648 -24.424  0.00  0.00     0.043 A 
ATOM      9  C   UNL d   1      33.015  22.008 -23.675  0.00  0.00     0.102 A 
ATOM     10  C   UNL d   1      33.129  22.111 -25.097  0.00  0.00     0.004 A 
ATOM     11  C   UNL d   1      33.125  22.815 -23.600  0.00  0.00     0.025 A 
ATOM     12  C   UNL d   1      33.240  22.922 -25.022  0.00  0.00     0.000 A 
ATOM     13  C   UNL d   1      33.238  23.276 -24.270  0.00  0.00     0.002 A 
ENDROOT
BRANCH   2  14
ATOM     14  N   UNL d   1      32.672  20.613 -21.643  0.00  0.00    -0.287 N 
ATOM     15  C   UNL d   1      33.239  20.398 -21.095  0.00  0.00     0.082 A 
ATOM     16  C   UNL d   1      33.234  20.750 -20.352  0.00  0.00     0.025 A 
ATOM     17  C   UNL d   1      32.662  21.314 -20.165  0.00  0.00     0.067 A 
ATOM     18  C   UNL d   1      32.099  21.524 -20.719  0.00  0.00     0.025 A 
ATOM     19  C   UNL d   1      32.101  21.174 -21.463  0.00  0.00     0.082 A 
BRANCH  17  20
ATOM     20  C   UNL d   1      32.661  21.675 -19.397  0.00  0.00     0.211 C 
ATOM     21  O   UNL d   1      32.193  22.365 -19.254  0.00  0.00    -0.644 OA
ATOM     22  O   UNL d   1      33.127  21.343 -18.776  0.00  0.00    -0.644 OA
ENDBRANCH  17  20
ENDBRANCH   2  14
BRANCH   7  23
ATOM     23  C   UNL d   1      32.453  18.275 -23.294  0.00  0.00     0.036 A 
ATOM     24  C   UNL d   1      31.705  17.972 -23.394  0.00  0.00     0.003 A 
ATOM     25  C   UNL d   1      31.590  17.154 -23.471  0.00  0.00     0.000 A 
ATOM     26  C   UNL d   1      32.238  16.650 -23.446  0.00  0.00     0.000 A 
ATOM     27  C   UNL d   1      33.002  16.960 -23.345  0.00  0.00     0.000 A 
ATOM     28  C   UNL d   1      33.104  17.764 -23.270  0.00  0.00     0.003 A 
ENDBRANCH   7  23
TORSDOF 3
ENDMDL
MODEL 2
REMARK VINA RESULT:       2.8      1.505      4.059
REMARK  3 active torsions:
REMARK  status: ('A' for Active; 'I' for Inactive)
REMARK    1  A    between atoms: N_9  and  C_2 
REMARK    2  A    between atoms: C_15  and  C_7 
REMARK    3  A    between atoms: C_11  and  C_14 
ROOT
ATOM      1  C   UNL d   1      33.168  21.697 -22.288  0.00  0.00     0.152 A 
ATOM      2  C   UNL d   1      33.185  21.065 -21.750  0.00  0.00     0.174 A 
ATOM      3  C   UNL d   1      33.157  22.481 -22.010  0.00  0.00     0.111 A 
ATOM      4  N   UNL d   1      33.192  21.226 -20.929  0.00  0.00    -0.207 NA
ATOM      5  N   UNL d   1      33.164  22.639 -21.203  0.00  0.00    -0.225 NA
ATOM      6  O   UNL d   1      33.161  21.539 -23.104  0.00  0.00    -0.302 OA
ATOM      7  C   UNL d   1      33.181  22.015 -20.657  0.00  0.00     0.164 A 
ATOM      8  C   UNL d   1      33.133  22.948 -23.371  0.00  0.00     0.043 A 
ATOM      9  C   UNL d   1      33.143  22.165 -23.649  0.00  0.00     0.102 A 
ATOM     10  C   UNL d   1      33.115  23.570 -23.913  0.00  0.00     0.004 A 
ATOM     11  C   UNL d   1      33.136  22.006 -24.451  0.00  0.00     0.025 A 
ATOM     12  C   UNL d   1      33.109  23.412 -24.719  0.00  0.00     0.000 A 
ATOM     13  C   UNL d   1      33.119  22.626 -24.990  0.00  0.00     0.002 A 
ENDROOT
BRANCH   2  14
ATOM     14  N   UNL d   1      33.195  20.287 -22.017  0.00  0.00    -0.287 N 
ATOM     15  C   UNL d   1      33.174  19.674 -21.477  0.00  0.00     0.082 A 
ATOM     16  C   UNL d   1      33.184  18.898 -21.748  0.00  0.00     0.025 A 
ATOM     17  C   UNL d   1      33.217  18.743 -22.557  0.00  0.00     0.067 A 
ATOM     18  C   UNL d   1      33.238  19.361 -23.091  0.00  0.00     0.025 A 
ATOM     19  C   UNL d   1      33.227  20.139 -22.824  0.00  0.00     0.082 A 
BRANCH  17  20
ATOM     20  C   UNL d   1      33.227  17.941 -22.833  0.00  0.00     0.211 C 
ATOM     21  O   UNL d   1      33.240  17.302 -22.279  0.00  0.00    -0.644 OA
ATOM     22  O   UNL d   1      33.226  17.782 -23.663  0.00  0.00    -0.644 OA
ENDBRANCH  17  20
ENDBRANCH   2  14
BRANCH   7  23
ATOM     23  C   UNL d   1      33.188  22.175 -19.855  0.00  0.00     0.036 A 
ATOM     24  C   UNL d   1      33.214  21.567 -19.316  0.00  0.00     0.003 A 
ATOM     25  C   UNL d   1      33.221  21.726 -18.503  0.00  0.00     0.000 A 
ATOM     26  C   UNL d   1      33.201  22.504 -18.242  0.00  0.00     0.000 A 
ATOM     27  C   UNL d   1      33.174  23.126 -18.792  0.00  0.00     0.000 A 
ATOM     28  C   UNL d   1      33.168  22.960 -19.589  0.00  0.00     0.003 A 
ENDBRANCH   7  23
TORSDOF 3
ENDMDL
