MODEL 1
REMARK VINA RESULT:      -8.8      0.000      0.000
REMARK  5 active torsions:
REMARK  status: ('A' for Active; 'I' for Inactive)
REMARK    1  A    between atoms: C_7  and  N_1 
REMARK    2  A    between atoms: C_6  and  C_2 
REMARK    3  A    between atoms: C_8  and  C_6 
REMARK    4  A    between atoms: C_12  and  C_7 
REMARK    5  A    between atoms: C_9  and  C_8 
ROOT
ATOM      1  N   UNL d   1      53.048  32.657  53.624  0.00  0.00    -0.289 N 
ATOM      2  C   UNL d   1      52.716  31.981  53.119  0.00  0.00     0.148 A 
ATOM      3  N   UNL d   1      52.082  32.342  52.567  0.00  0.00    -0.227 NA
ATOM      4  C   UNL d   1      52.623  33.452  53.392  0.00  0.00     0.083 A 
ATOM      5  C   UNL d   1      52.016  33.254  52.729  0.00  0.00     0.099 A 
ATOM      6  C   UNL d   1      52.710  34.312  53.695  0.00  0.00     0.019 A 
ATOM      7  C   UNL d   1      51.511  33.921  52.384  0.00  0.00     0.021 A 
ATOM      8  C   UNL d   1      52.193  34.962  53.335  0.00  0.00     0.002 A 
ATOM      9  C   UNL d   1      51.587  34.764  52.672  0.00  0.00     0.002 A 
ENDROOT
BRANCH   2  10
ATOM     10  C   UNL d   1      53.149  31.399  53.411  0.00  0.00     0.037 C 
BRANCH  10  11
ATOM     11  C   UNL d   1      53.092  30.638  53.175  0.00  0.00     0.003 C 
BRANCH  11  12
ATOM     12  C   UNL d   1      53.239  30.007  53.666  0.00  0.00     0.000 A 
ATOM     13  C   UNL d   1      53.951  29.596  53.588  0.00  0.00     0.000 A 
ATOM     14  C   UNL d   1      54.104  28.958  54.081  0.00  0.00     0.000 A 
ATOM     15  C   UNL d   1      53.563  28.726  54.644  0.00  0.00     0.000 A 
ATOM     16  C   UNL d   1      52.851  29.137  54.721  0.00  0.00     0.000 A 
ATOM     17  C   UNL d   1      52.704  29.766  54.233  0.00  0.00     0.000 A 
ENDBRANCH  11  12
ENDBRANCH  10  11
ENDBRANCH   2  10
BRANCH   1  18
ATOM     18  C   UNL d   1      53.382  33.208  54.099  0.00  0.00     0.082 C 
BRANCH  18  19
ATOM     19  C   UNL d   1      54.147  33.060  54.384  0.00  0.00     0.018 C 
ATOM     20  C   UNL d   1      54.260  32.990  55.196  0.00  0.00     0.002 C 
ATOM     21  C   UNL d   1      54.939  32.935  54.247  0.00  0.00     0.002 C 
ENDBRANCH  18  19
ENDBRANCH   1  18
TORSDOF 5
ENDMDL
MODEL 2
REMARK VINA RESULT:      -8.0      1.004      2.245
REMARK  5 active torsions:
REMARK  status: ('A' for Active; 'I' for Inactive)
REMARK    1  A    between atoms: C_7  and  N_1 
REMARK    2  A    between atoms: C_6  and  C_2 
REMARK    3  A    between atoms: C_8  and  C_6 
REMARK    4  A    between atoms: C_12  and  C_7 
REMARK    5  A    between atoms: C_9  and  C_8 
ROOT
ATOM      1  N   UNL d   1      52.851  33.392  53.674  0.00  0.00    -0.289 N 
ATOM      2  C   UNL d   1      53.446  32.794  54.006  0.00  0.00     0.148 A 
ATOM      3  N   UNL d   1      53.972  33.240  54.607  0.00  0.00    -0.227 NA
ATOM      4  C   UNL d   1      53.000  34.223  54.066  0.00  0.00     0.083 A 
ATOM      5  C   UNL d   1      53.704  34.128  54.651  0.00  0.00     0.099 A 
ATOM      6  C   UNL d   1      52.592  35.037  53.965  0.00  0.00     0.019 A 
ATOM      7  C   UNL d   1      53.983  34.849  55.122  0.00  0.00     0.021 A 
ATOM      8  C   UNL d   1      52.889  35.743  54.447  0.00  0.00     0.002 A 
ATOM      9  C   UNL d   1      53.593  35.648  55.032  0.00  0.00     0.002 A 
ENDROOT
BRANCH   2  10
ATOM     10  C   UNL d   1      53.211  32.165  53.603  0.00  0.00     0.037 C 
BRANCH  10  11
ATOM     11  C   UNL d   1      53.670  31.528  53.462  0.00  0.00     0.003 C 
BRANCH  11  12
ATOM     12  C   UNL d   1      53.385  30.767  53.451  0.00  0.00     0.000 A 
ATOM     13  C   UNL d   1      53.469  30.298  54.125  0.00  0.00     0.000 A 
ATOM     14  C   UNL d   1      53.183  29.528  54.119  0.00  0.00     0.000 A 
ATOM     15  C   UNL d   1      52.819  29.223  53.457  0.00  0.00     0.000 A 
ATOM     16  C   UNL d   1      52.735  29.693  52.783  0.00  0.00     0.000 A 
ATOM     17  C   UNL d   1      53.018  30.451  52.793  0.00  0.00     0.000 A 
ENDBRANCH  11  12
ENDBRANCH  10  11
ENDBRANCH   2  10
BRANCH   1  18
ATOM     18  C   UNL d   1      52.301  33.869  53.343  0.00  0.00     0.082 C 
BRANCH  18  19
ATOM     19  C   UNL d   1      51.598  33.521  53.072  0.00  0.00     0.018 C 
ATOM     20  C   UNL d   1      51.375  33.637  52.289  0.00  0.00     0.002 C 
ATOM     21  C   UNL d   1      50.938  33.066  53.210  0.00  0.00     0.002 C 
ENDBRANCH  18  19
ENDBRANCH   1  18
TORSDOF 5
ENDMDL
MODEL 3
REMARK VINA RESULT:      -7.8      1.562      4.278
REMARK  5 active torsions:
REMARK  status: ('A' for Active; 'I' for Inactive)
REMARK    1  A    between atoms: C_7  and  N_1 
REMARK    2  A    between atoms: C_6  and  C_2 
REMARK    3  A    between atoms: C_8  and  C_6 
REMARK    4  A    between atoms: C_12  and  C_7 
REMARK    5  A    between atoms: C_9  and  C_8 
ROOT
ATOM      1  N   UNL d   1      52.820  33.247  53.547  0.00  0.00    -0.289 N 
ATOM      2  C   UNL d   1      52.440  34.069  53.495  0.00  0.00     0.148 A 
ATOM      3  N   UNL d   1      52.899  34.617  54.065  0.00  0.00    -0.227 NA
ATOM      4  C   UNL d   1      53.525  33.274  54.155  0.00  0.00     0.083 A 
ATOM      5  C   UNL d   1      53.575  34.133  54.480  0.00  0.00     0.099 A 
ATOM      6  C   UNL d   1      54.116  32.636  54.446  0.00  0.00     0.019 A 
ATOM      7  C   UNL d   1      54.213  34.335  55.088  0.00  0.00     0.021 A 
ATOM      8  C   UNL d   1      54.745  32.863  55.055  0.00  0.00     0.002 A 
ATOM      9  C   UNL d   1      54.795  33.722  55.380  0.00  0.00     0.002 A 
ENDROOT
BRANCH   2  10
ATOM     10  C   UNL d   1      51.884  33.902  52.969  0.00  0.00     0.037 C 
BRANCH  10  11
ATOM     11  C   UNL d   1      51.552  34.443  52.485  0.00  0.00     0.003 C 
BRANCH  11  12
ATOM     12  C   UNL d   1      50.768  34.429  52.274  0.00  0.00     0.000 A 
ATOM     13  C   UNL d   1      50.566  34.237  51.496  0.00  0.00     0.000 A 
ATOM     14  C   UNL d   1      49.775  34.222  51.276  0.00  0.00     0.000 A 
ATOM     15  C   UNL d   1      49.189  34.393  51.815  0.00  0.00     0.000 A 
ATOM     16  C   UNL d   1      49.391  34.586  52.593  0.00  0.00     0.000 A 
ATOM     17  C   UNL d   1      50.172  34.600  52.805  0.00  0.00     0.000 A 
ENDBRANCH  11  12
ENDBRANCH  10  11
ENDBRANCH   2  10
BRANCH   1  18
ATOM     18  C   UNL d   1      53.110  32.501  53.548  0.00  0.00     0.082 C 
BRANCH  18  19
ATOM     19  C   UNL d   1      52.632  31.900  53.235  0.00  0.00     0.018 C 
ATOM     20  C   UNL d   1      52.927  31.441  52.618  0.00  0.00     0.002 C 
ATOM     21  C   UNL d   1      51.932  31.486  53.230  0.00  0.00     0.002 C 
ENDBRANCH  18  19
ENDBRANCH   1  18
TORSDOF 5
ENDMDL
MODEL 4
REMARK VINA RESULT:      -7.6      0.789      4.014
REMARK  5 active torsions:
REMARK  status: ('A' for Active; 'I' for Inactive)
REMARK    1  A    between atoms: C_7  and  N_1 
REMARK    2  A    between atoms: C_6  and  C_2 
REMARK    3  A    between atoms: C_8  and  C_6 
REMARK    4  A    between atoms: C_12  and  C_7 
REMARK    5  A    between atoms: C_9  and  C_8 
ROOT
ATOM      1  N   UNL d   1      53.138  32.137  53.585  0.00  0.00    -0.289 N 
ATOM      2  C   UNL d   1      52.522  32.316  52.944  0.00  0.00     0.148 A 
ATOM      3  N   UNL d   1      52.284  31.517  52.568  0.00  0.00    -0.227 NA
ATOM      4  C   UNL d   1      53.292  31.219  53.616  0.00  0.00     0.083 A 
ATOM      5  C   UNL d   1      52.756  30.830  52.978  0.00  0.00     0.099 A 
ATOM      6  C   UNL d   1      53.841  30.701  54.135  0.00  0.00     0.019 A 
ATOM      7  C   UNL d   1      52.781  29.932  52.872  0.00  0.00     0.021 A 
ATOM      8  C   UNL d   1      53.849  29.804  54.010  0.00  0.00     0.002 A 
ATOM      9  C   UNL d   1      53.313  29.415  53.372  0.00  0.00     0.002 A 
ENDROOT
BRANCH   2  10
ATOM     10  C   UNL d   1      52.494  33.093  53.029  0.00  0.00     0.037 C 
BRANCH  10  11
ATOM     11  C   UNL d   1      52.175  33.589  52.491  0.00  0.00     0.003 C 
BRANCH  11  12
ATOM     12  C   UNL d   1      51.488  34.003  52.620  0.00  0.00     0.000 A 
ATOM     13  C   UNL d   1      50.897  33.988  52.043  0.00  0.00     0.000 A 
ATOM     14  C   UNL d   1      50.200  34.404  52.167  0.00  0.00     0.000 A 
ATOM     15  C   UNL d   1      50.085  34.830  52.851  0.00  0.00     0.000 A 
ATOM     16  C   UNL d   1      50.676  34.845  53.428  0.00  0.00     0.000 A 
ATOM     17  C   UNL d   1      51.361  34.434  53.302  0.00  0.00     0.000 A 
ENDBRANCH  11  12
ENDBRANCH  10  11
ENDBRANCH   2  10
BRANCH   1  18
ATOM     18  C   UNL d   1      53.684  32.046  54.163  0.00  0.00     0.082 C 
BRANCH  18  19
ATOM     19  C   UNL d   1      54.122  32.713  54.390  0.00  0.00     0.018 C 
ATOM     20  C   UNL d   1      54.083  32.964  55.173  0.00  0.00     0.002 C 
ATOM     21  C   UNL d   1      54.634  33.317  54.205  0.00  0.00     0.002 C 
ENDBRANCH  18  19
ENDBRANCH   1  18
TORSDOF 5
ENDMDL
MODEL 5
REMARK VINA RESULT:      -6.1      1.125      4.379
REMARK  5 active torsions:
REMARK  status: ('A' for Active; 'I' for Inactive)
REMARK    1  A    between atoms: C_7  and  N_1 
REMARK    2  A    between atoms: C_6  and  C_2 
REMARK    3  A    between atoms: C_8  and  C_6 
REMARK    4  A    between atoms: C_12  and  C_7 
REMARK    5  A    between atoms: C_9  and  C_8 
ROOT
ATOM      1  N   UNL d   1      52.829  32.258  53.461  0.00  0.00    -0.289 N 
ATOM      2  C   UNL d   1      53.574  32.545  53.888  0.00  0.00     0.148 A 
ATOM      3  N   UNL d   1      54.095  31.811  54.048  0.00  0.00    -0.227 NA
ATOM      4  C   UNL d   1      52.876  31.335  53.348  0.00  0.00     0.083 A 
ATOM      5  C   UNL d   1      53.671  31.054  53.717  0.00  0.00     0.099 A 
ATOM      6  C   UNL d   1      52.306  30.728  52.964  0.00  0.00     0.019 A 
ATOM      7  C   UNL d   1      53.878  30.174  53.693  0.00  0.00     0.021 A 
ATOM      8  C   UNL d   1      52.536  29.852  52.953  0.00  0.00     0.002 A 
ATOM      9  C   UNL d   1      53.331  29.572  53.322  0.00  0.00     0.002 A 
ENDROOT
BRANCH   2  10
ATOM     10  C   UNL d   1      53.403  33.308  53.913  0.00  0.00     0.037 C 
BRANCH  10  11
ATOM     11  C   UNL d   1      53.851  33.855  54.283  0.00  0.00     0.003 C 
BRANCH  11  12
ATOM     12  C   UNL d   1      53.590  34.605  54.452  0.00  0.00     0.000 A 
ATOM     13  C   UNL d   1      53.284  34.764  55.203  0.00  0.00     0.000 A 
ATOM     14  C   UNL d   1      53.018  35.520  55.380  0.00  0.00     0.000 A 
ATOM     15  C   UNL d   1      53.053  36.115  54.824  0.00  0.00     0.000 A 
ATOM     16  C   UNL d   1      53.359  35.957  54.074  0.00  0.00     0.000 A 
ATOM     17  C   UNL d   1      53.620  35.209  53.904  0.00  0.00     0.000 A 
ENDBRANCH  11  12
ENDBRANCH  10  11
ENDBRANCH   2  10
BRANCH   1  18
ATOM     18  C   UNL d   1      52.149  32.068  53.082  0.00  0.00     0.082 C 
BRANCH  18  19
ATOM     19  C   UNL d   1      51.663  32.689  52.826  0.00  0.00     0.018 C 
ATOM     20  C   UNL d   1      50.938  32.804  53.199  0.00  0.00     0.002 C 
ATOM     21  C   UNL d   1      51.526  33.319  52.330  0.00  0.00     0.002 C 
ENDBRANCH  18  19
ENDBRANCH   1  18
TORSDOF 5
ENDMDL
