MODEL 1
REMARK VINA RESULT:      52.3      0.000      0.000
REMARK  3 active torsions:
REMARK  status: ('A' for Active; 'I' for Inactive)
REMARK    1  A    between atoms: N_3  and  C_1 
REMARK       I    between atoms: C_5  and  N_3 
REMARK    2  A    between atoms: C_14  and  C_4 
REMARK       I    between atoms: N_8  and  C_5 
REMARK    3  A    between atoms: C_11  and  N_8 
ROOT
ATOM      1  N   UNL d   1      14.941  15.195  -1.377  0.00  0.00    -0.166 NA
ATOM      2  C   UNL d   1      15.105  15.526  -0.678  0.00  0.00     0.370 C 
ATOM      3  N   UNL d   1      15.160  15.072  -0.014  0.00  0.00    -0.191 NA
ATOM      4  O   UNL d   1      15.224  16.340  -0.613  0.00  0.00    -0.242 OA
ENDROOT
BRANCH   1   5
ATOM      5  C   UNL d   1      14.886  15.652  -2.041  0.00  0.00     0.199 A 
ATOM      6  N   UNL d   1      14.667  15.390  -2.770  0.00  0.00    -0.221 NA
ATOM      7  C   UNL d   1      14.686  16.031  -3.280  0.00  0.00     0.090 A 
ATOM      8  C   UNL d   1      14.922  16.689  -2.841  0.00  0.00     0.058 A 
ATOM      9  S   UNL d   1      15.042  16.433  -2.071  0.00  0.00    -0.046 SA
BRANCH   7  10
ATOM     10  C   UNL d   1      14.506  16.021  -4.070  0.00  0.00     0.018 A 
ATOM     11  C   UNL d   1      13.846  15.601  -4.351  0.00  0.00     0.002 A 
ATOM     12  C   UNL d   1      13.665  15.592  -5.156  0.00  0.00     0.000 A 
ATOM     13  C   UNL d   1      14.132  15.994  -5.685  0.00  0.00     0.000 A 
ATOM     14  C   UNL d   1      14.795  16.418  -5.417  0.00  0.00     0.000 A 
ATOM     15  C   UNL d   1      14.987  16.434  -4.605  0.00  0.00     0.002 A 
ENDBRANCH   7  10
ENDBRANCH   1   5
BRANCH   3  16
ATOM     16  C   UNL d   1      15.043  14.251  -0.062  0.00  0.00     0.087 A 
ATOM     17  C   UNL d   1      14.308  13.954  -0.026  0.00  0.00     0.032 A 
ATOM     18  C   UNL d   1      14.178  13.162  -0.071  0.00  0.00     0.070 A 
ATOM     19 CL   UNL d   1      13.396  12.855  -0.031  0.00  0.00    -0.081 Cl
ATOM     20  C   UNL d   1      14.781  12.653  -0.152  0.00  0.00     0.068 A 
ATOM     21  C   UNL d   1      15.564  12.941  -0.193  0.00  0.00     0.014 A 
ATOM     22 CL   UNL d   1      14.649  11.852  -0.198  0.00  0.00    -0.082 Cl
ATOM     23  C   UNL d   1      15.694  13.734  -0.148  0.00  0.00     0.020 A 
ENDBRANCH   3  16
TORSDOF 3
ENDMDL
