MODEL 1
REMARK VINA RESULT:      -5.6      0.000      0.000
REMARK  4 active torsions:
REMARK  status: ('A' for Active; 'I' for Inactive)
REMARK    1  A    between atoms: N_2  and  S_1 
REMARK    2  A    between atoms: C_3  and  S_1 
REMARK    3  A    between atoms: N_6  and  N_2 
REMARK    4  A    between atoms: C_9  and  N_6 
ROOT
ATOM      1  S   UNL d   1      56.966  -0.390  31.460  0.00  0.00     0.302 S 
ATOM      2  O   UNL d   1      56.982  -1.204  31.664  0.00  0.00    -0.197 OA
ATOM      3  O   UNL d   1      56.950   0.407  31.262  0.00  0.00    -0.197 OA
ENDROOT
BRANCH   1   4
ATOM      4  N   UNL d   1      57.477  -0.542  30.815  0.00  0.00    -0.054 NA
BRANCH   4   5
ATOM      5  N   UNL d   1      57.983   0.032  30.565  0.00  0.00    -0.137 NA
BRANCH   5   6
ATOM      6  C   UNL d   1      58.601  -0.149  30.027  0.00  0.00     0.104 A 
ATOM      7  C   UNL d   1      58.494  -0.729  29.463  0.00  0.00     0.021 A 
ATOM      8  C   UNL d   1      59.112  -0.895  28.941  0.00  0.00     0.002 A 
ATOM      9  C   UNL d   1      59.813  -0.481  28.997  0.00  0.00     0.000 A 
ATOM     10  C   UNL d   1      59.912   0.095  29.560  0.00  0.00     0.002 A 
ATOM     11  C   UNL d   1      60.437  -0.661  28.455  0.00  0.00     0.000 C 
ATOM     12  C   UNL d   1      59.305   0.269  30.085  0.00  0.00     0.021 A 
ENDBRANCH   5   6
ENDBRANCH   4   5
ENDBRANCH   1   4
BRANCH   1  13
ATOM     13  C   UNL d   1      56.463  -0.242  32.097  0.00  0.00     0.107 A 
ATOM     14  C   UNL d   1      56.294   0.528  32.322  0.00  0.00     0.013 A 
ATOM     15  C   UNL d   1      55.789   0.656  32.961  0.00  0.00     0.001 A 
ATOM     16  C   UNL d   1      55.452   0.016  33.375  0.00  0.00     0.000 A 
ATOM     17  C   UNL d   1      55.623  -0.765  33.149  0.00  0.00     0.001 A 
ATOM     18  C   UNL d   1      54.939   0.155  34.025  0.00  0.00     0.000 C 
ATOM     19  C   UNL d   1      56.130  -0.873  32.507  0.00  0.00     0.013 A 
ENDBRANCH   1  13
TORSDOF 4
ENDMDL
MODEL 2
REMARK VINA RESULT:      -5.6      0.849      4.696
REMARK  4 active torsions:
REMARK  status: ('A' for Active; 'I' for Inactive)
REMARK    1  A    between atoms: N_2  and  S_1 
REMARK    2  A    between atoms: C_3  and  S_1 
REMARK    3  A    between atoms: N_6  and  N_2 
REMARK    4  A    between atoms: C_9  and  N_6 
ROOT
ATOM      1  S   UNL d   1      57.947   0.334  30.606  0.00  0.00     0.302 S 
ATOM      2  O   UNL d   1      57.397   0.264  29.976  0.00  0.00    -0.197 OA
ATOM      3  O   UNL d   1      58.486   0.403  31.221  0.00  0.00    -0.197 OA
ENDROOT
BRANCH   1   4
ATOM      4  N   UNL d   1      57.315   0.405  31.149  0.00  0.00    -0.054 NA
BRANCH   4   5
ATOM      5  N   UNL d   1      57.242  -0.130  31.746  0.00  0.00    -0.137 NA
BRANCH   5   6
ATOM      6  C   UNL d   1      56.602  -0.081  32.287  0.00  0.00     0.104 A 
ATOM      7  C   UNL d   1      56.350   0.647  32.557  0.00  0.00     0.021 A 
ATOM      8  C   UNL d   1      55.720   0.678  33.089  0.00  0.00     0.002 A 
ATOM      9  C   UNL d   1      55.360  -0.013  33.334  0.00  0.00     0.000 A 
ATOM     10  C   UNL d   1      55.616  -0.733  33.061  0.00  0.00     0.002 A 
ATOM     11  C   UNL d   1      54.715   0.033  33.879  0.00  0.00     0.000 C 
ATOM     12  C   UNL d   1      56.242  -0.778  32.532  0.00  0.00     0.021 A 
ENDBRANCH   5   6
ENDBRANCH   4   5
ENDBRANCH   1   4
BRANCH   1  13
ATOM     13  C   UNL d   1      58.568   0.264  30.069  0.00  0.00     0.107 A 
ATOM     14  C   UNL d   1      58.470  -0.161  29.374  0.00  0.00     0.013 A 
ATOM     15  C   UNL d   1      59.103  -0.221  28.848  0.00  0.00     0.001 A 
ATOM     16  C   UNL d   1      59.833   0.143  29.016  0.00  0.00     0.000 A 
ATOM     17  C   UNL d   1      59.935   0.574  29.719  0.00  0.00     0.001 A 
ATOM     18  C   UNL d   1      60.472   0.077  28.476  0.00  0.00     0.000 C 
ATOM     19  C   UNL d   1      59.290   0.622  30.232  0.00  0.00     0.013 A 
ENDBRANCH   1  13
TORSDOF 4
ENDMDL
