MODEL 1
REMARK VINA RESULT:     -11.3      0.000      0.000
REMARK  3 active torsions:
REMARK  status: ('A' for Active; 'I' for Inactive)
REMARK    1  A    between atoms: N_7  and  C_1 
REMARK    2  A    between atoms: C_11  and  N_3 
REMARK       I    between atoms: C_9  and  N_7 
REMARK    3  A    between atoms: C_12  and  C_9 
ROOT
ATOM      1  C   UNL d   1      52.886  33.150  53.764  0.00  0.00     0.169 A 
ATOM      2  C   UNL d   1      53.470  33.244  54.279  0.00  0.00     0.067 A 
ATOM      3  N   UNL d   1      52.609  33.862  53.582  0.00  0.00    -0.212 N 
ATOM      4  C   UNL d   1      53.555  34.019  54.418  0.00  0.00     0.116 A 
ATOM      5  N   UNL d   1      53.023  34.397  53.987  0.00  0.00    -0.163 NA
ATOM      6  S   UNL d   1      54.413  33.389  55.113  0.00  0.00     0.213 S 
ATOM      7  C   UNL d   1      54.137  34.105  54.932  0.00  0.00     0.120 A 
ATOM      8  C   UNL d   1      54.000  32.858  54.709  0.00  0.00     0.103 A 
ATOM      9  O   UNL d   1      54.779  33.976  55.479  0.00  0.00    -0.217 OA
ATOM     10  O   UNL d   1      54.616  32.752  55.236  0.00  0.00    -0.217 OA
ENDROOT
BRANCH   1  11
ATOM     11  N   UNL d   1      52.944  32.440  53.755  0.00  0.00    -0.187 NA
ATOM     12  C   UNL d   1      52.951  31.716  53.044  0.00  0.00     0.303 C 
ATOM     13  O   UNL d   1      52.882  31.884  52.297  0.00  0.00    -0.263 OA
BRANCH  12  14
ATOM     14  C   UNL d   1      53.034  30.924  53.274  0.00  0.00     0.158 A 
ATOM     15  O   UNL d   1      53.761  30.503  53.385  0.00  0.00    -0.300 OA
ATOM     16  C   UNL d   1      53.575  29.720  53.616  0.00  0.00     0.123 A 
ATOM     17  C   UNL d   1      52.739  29.645  53.651  0.00  0.00     0.029 A 
ATOM     18  C   UNL d   1      52.400  30.382  53.442  0.00  0.00     0.032 A 
ENDBRANCH  12  14
ENDBRANCH   1  11
BRANCH   3  19
ATOM     19  C   UNL d   1      51.981  34.026  53.050  0.00  0.00     0.085 A 
ATOM     20  C   UNL d   1      51.186  33.991  53.324  0.00  0.00     0.031 A 
ATOM     21  C   UNL d   1      50.570  34.153  52.801  0.00  0.00     0.059 A 
ATOM     22 CL   UNL d   1      49.773  34.122  53.060  0.00  0.00    -0.082 Cl
ATOM     23  C   UNL d   1      50.737  34.352  51.994  0.00  0.00     0.011 A 
ATOM     24  C   UNL d   1      51.533  34.383  51.737  0.00  0.00     0.002 A 
ATOM     25  C   UNL d   1      52.145  34.220  52.264  0.00  0.00     0.019 A 
ENDBRANCH   3  19
TORSDOF 3
ENDMDL
MODEL 2
REMARK VINA RESULT:     -10.5      1.621      3.412
REMARK  3 active torsions:
REMARK  status: ('A' for Active; 'I' for Inactive)
REMARK    1  A    between atoms: N_7  and  C_1 
REMARK    2  A    between atoms: C_11  and  N_3 
REMARK       I    between atoms: C_9  and  N_7 
REMARK    3  A    between atoms: C_12  and  C_9 
ROOT
ATOM      1  C   UNL d   1      53.206  32.595  53.817  0.00  0.00     0.169 A 
ATOM      2  C   UNL d   1      53.517  33.204  54.200  0.00  0.00     0.067 A 
ATOM      3  N   UNL d   1      53.621  31.955  54.005  0.00  0.00    -0.212 N 
ATOM      4  C   UNL d   1      54.129  32.941  54.628  0.00  0.00     0.116 A 
ATOM      5  N   UNL d   1      54.190  32.171  54.506  0.00  0.00    -0.163 NA
ATOM      6  S   UNL d   1      54.016  34.193  54.817  0.00  0.00     0.213 S 
ATOM      7  C   UNL d   1      54.434  33.553  55.007  0.00  0.00     0.120 A 
ATOM      8  C   UNL d   1      53.450  33.977  54.318  0.00  0.00     0.103 A 
ATOM      9  O   UNL d   1      54.604  34.330  55.315  0.00  0.00    -0.217 OA
ATOM     10  O   UNL d   1      53.626  34.715  54.623  0.00  0.00    -0.217 OA
ENDROOT
BRANCH   1  11
ATOM     11  N   UNL d   1      52.702  32.989  53.503  0.00  0.00    -0.187 NA
ATOM     12  C   UNL d   1      51.702  32.906  53.346  0.00  0.00     0.303 C 
ATOM     13  O   UNL d   1      51.304  32.297  53.592  0.00  0.00    -0.263 OA
BRANCH  12  14
ATOM     14  C   UNL d   1      51.305  33.511  52.941  0.00  0.00     0.158 A 
ATOM     15  O   UNL d   1      51.530  33.856  52.200  0.00  0.00    -0.300 OA
ATOM     16  C   UNL d   1      50.967  34.444  52.006  0.00  0.00     0.123 A 
ATOM     17  C   UNL d   1      50.391  34.471  52.616  0.00  0.00     0.029 A 
ATOM     18  C   UNL d   1      50.592  33.900  53.195  0.00  0.00     0.032 A 
ENDBRANCH  12  14
ENDBRANCH   1  11
BRANCH   3  19
ATOM     19  C   UNL d   1      53.483  31.177  53.722  0.00  0.00     0.085 A 
ATOM     20  C   UNL d   1      53.357  30.553  54.273  0.00  0.00     0.031 A 
ATOM     21  C   UNL d   1      53.222  29.789  53.995  0.00  0.00     0.059 A 
ATOM     22 CL   UNL d   1      53.096  29.157  54.532  0.00  0.00    -0.082 Cl
ATOM     23  C   UNL d   1      53.210  29.635  53.162  0.00  0.00     0.011 A 
ATOM     24  C   UNL d   1      53.337  30.266  52.627  0.00  0.00     0.002 A 
ATOM     25  C   UNL d   1      53.472  31.028  52.911  0.00  0.00     0.019 A 
ENDBRANCH   3  19
TORSDOF 3
ENDMDL
MODEL 3
REMARK VINA RESULT:     -10.5      1.881      3.875
REMARK  3 active torsions:
REMARK  status: ('A' for Active; 'I' for Inactive)
REMARK    1  A    between atoms: N_7  and  C_1 
REMARK    2  A    between atoms: C_11  and  N_3 
REMARK       I    between atoms: C_9  and  N_7 
REMARK    3  A    between atoms: C_12  and  C_9 
ROOT
ATOM      1  C   UNL d   1      53.332  32.324  53.543  0.00  0.00     0.169 A 
ATOM      2  C   UNL d   1      53.051  31.622  53.337  0.00  0.00     0.067 A 
ATOM      3  N   UNL d   1      54.002  32.209  53.937  0.00  0.00    -0.212 N 
ATOM      4  C   UNL d   1      53.550  31.067  53.605  0.00  0.00     0.116 A 
ATOM      5  N   UNL d   1      54.134  31.433  53.974  0.00  0.00    -0.163 NA
ATOM      6  S   UNL d   1      52.592  30.489  53.000  0.00  0.00     0.213 S 
ATOM      7  C   UNL d   1      53.263  30.371  53.395  0.00  0.00     0.120 A 
ATOM      8  C   UNL d   1      52.462  31.262  52.965  0.00  0.00     0.103 A 
ATOM      9  O   UNL d   1      52.790  29.736  53.078  0.00  0.00    -0.217 OA
ATOM     10  O   UNL d   1      52.020  30.642  52.667  0.00  0.00    -0.217 OA
ENDROOT
BRANCH   1  11
ATOM     11  N   UNL d   1      52.795  32.681  53.241  0.00  0.00    -0.187 NA
ATOM     12  C   UNL d   1      52.172  33.435  53.515  0.00  0.00     0.303 C 
ATOM     13  O   UNL d   1      52.220  33.766  54.207  0.00  0.00    -0.263 OA
BRANCH  12  14
ATOM     14  C   UNL d   1      51.597  33.700  52.980  0.00  0.00     0.158 A 
ATOM     15  O   UNL d   1      51.726  33.940  52.178  0.00  0.00    -0.300 OA
ATOM     16  C   UNL d   1      50.989  34.163  51.851  0.00  0.00     0.123 A 
ATOM     17  C   UNL d   1      50.398  34.065  52.440  0.00  0.00     0.029 A 
ATOM     18  C   UNL d   1      50.765  33.780  53.137  0.00  0.00     0.032 A 
ENDBRANCH  12  14
ENDBRANCH   1  11
BRANCH   3  19
ATOM     19  C   UNL d   1      54.492  32.807  54.263  0.00  0.00     0.085 A 
ATOM     20  C   UNL d   1      54.440  32.983  55.084  0.00  0.00     0.031 A 
ATOM     21  C   UNL d   1      54.921  33.571  55.404  0.00  0.00     0.059 A 
ATOM     22 CL   UNL d   1      54.881  33.757  56.221  0.00  0.00    -0.082 Cl
ATOM     23  C   UNL d   1      55.464  33.993  54.909  0.00  0.00     0.011 A 
ATOM     24  C   UNL d   1      55.504  33.807  54.093  0.00  0.00     0.002 A 
ATOM     25  C   UNL d   1      55.020  33.218  53.780  0.00  0.00     0.019 A 
ENDBRANCH   3  19
TORSDOF 3
ENDMDL
MODEL 4
REMARK VINA RESULT:     -10.1      1.154      2.828
REMARK  3 active torsions:
REMARK  status: ('A' for Active; 'I' for Inactive)
REMARK    1  A    between atoms: N_7  and  C_1 
REMARK    2  A    between atoms: C_11  and  N_3 
REMARK       I    between atoms: C_9  and  N_7 
REMARK    3  A    between atoms: C_12  and  C_9 
ROOT
ATOM      1  C   UNL d   1      52.831  32.507  53.298  0.00  0.00     0.169 A 
ATOM      2  C   UNL d   1      53.061  31.759  53.348  0.00  0.00     0.067 A 
ATOM      3  N   UNL d   1      52.164  32.527  52.882  0.00  0.00    -0.212 N 
ATOM      4  C   UNL d   1      52.534  31.312  52.962  0.00  0.00     0.116 A 
ATOM      5  N   UNL d   1      51.983  31.788  52.676  0.00  0.00    -0.163 NA
ATOM      6  S   UNL d   1      53.438  30.552  53.433  0.00  0.00     0.213 S 
ATOM      7  C   UNL d   1      52.769  30.568  53.016  0.00  0.00     0.120 A 
ATOM      8  C   UNL d   1      53.617  31.288  53.638  0.00  0.00     0.103 A 
ATOM      9  O   UNL d   1      53.193  29.849  53.191  0.00  0.00    -0.217 OA
ATOM     10  O   UNL d   1      54.011  30.589  53.797  0.00  0.00    -0.217 OA
ENDROOT
BRANCH   1  11
ATOM     11  N   UNL d   1      53.383  32.752  53.675  0.00  0.00    -0.187 NA
ATOM     12  C   UNL d   1      53.510  33.388  54.457  0.00  0.00     0.303 C 
ATOM     13  O   UNL d   1      52.914  33.740  54.791  0.00  0.00    -0.263 OA
BRANCH  12  14
ATOM     14  C   UNL d   1      54.275  33.530  54.743  0.00  0.00     0.158 A 
ATOM     15  O   UNL d   1      54.962  33.708  54.281  0.00  0.00    -0.300 OA
ATOM     16  C   UNL d   1      55.608  33.808  54.803  0.00  0.00     0.123 A 
ATOM     17  C   UNL d   1      55.334  33.694  55.589  0.00  0.00     0.029 A 
ATOM     18  C   UNL d   1      54.514  33.523  55.559  0.00  0.00     0.032 A 
ENDBRANCH  12  14
ENDBRANCH   1  11
BRANCH   3  19
ATOM     19  C   UNL d   1      51.722  33.213  52.691  0.00  0.00     0.085 A 
ATOM     20  C   UNL d   1      50.995  33.362  53.090  0.00  0.00     0.031 A 
ATOM     21  C   UNL d   1      50.561  34.036  52.902  0.00  0.00     0.059 A 
ATOM     22 CL   UNL d   1      49.836  34.198  53.290  0.00  0.00    -0.082 Cl
ATOM     23  C   UNL d   1      50.844  34.575  52.311  0.00  0.00     0.011 A 
ATOM     24  C   UNL d   1      51.568  34.413  51.923  0.00  0.00     0.002 A 
ATOM     25  C   UNL d   1      51.998  33.737  52.116  0.00  0.00     0.019 A 
ENDBRANCH   3  19
TORSDOF 3
ENDMDL
MODEL 5
REMARK VINA RESULT:      -9.7      1.842      3.701
REMARK  3 active torsions:
REMARK  status: ('A' for Active; 'I' for Inactive)
REMARK    1  A    between atoms: N_7  and  C_1 
REMARK    2  A    between atoms: C_11  and  N_3 
REMARK       I    between atoms: C_9  and  N_7 
REMARK    3  A    between atoms: C_12  and  C_9 
ROOT
ATOM      1  C   UNL d   1      52.887  32.438  53.500  0.00  0.00     0.169 A 
ATOM      2  C   UNL d   1      52.496  33.100  53.346  0.00  0.00     0.067 A 
ATOM      3  N   UNL d   1      52.537  31.854  53.108  0.00  0.00    -0.212 N 
ATOM      4  C   UNL d   1      51.900  32.926  52.854  0.00  0.00     0.116 A 
ATOM      5  N   UNL d   1      51.928  32.158  52.710  0.00  0.00    -0.163 NA
ATOM      6  S   UNL d   1      51.868  34.173  53.100  0.00  0.00     0.213 S 
ATOM      7  C   UNL d   1      51.515  33.590  52.705  0.00  0.00     0.120 A 
ATOM      8  C   UNL d   1      52.474  33.869  53.495  0.00  0.00     0.103 A 
ATOM      9  O   UNL d   1      51.249  34.400  52.678  0.00  0.00    -0.217 OA
ATOM     10  O   UNL d   1      52.206  34.641  53.458  0.00  0.00    -0.217 OA
ENDROOT
BRANCH   1  11
ATOM     11  N   UNL d   1      53.358  32.759  53.927  0.00  0.00    -0.187 NA
ATOM     12  C   UNL d   1      54.370  32.808  53.994  0.00  0.00     0.303 C 
ATOM     13  O   UNL d   1      54.825  32.435  53.500  0.00  0.00    -0.263 OA
BRANCH  12  14
ATOM     14  C   UNL d   1      54.713  33.262  54.597  0.00  0.00     0.158 A 
ATOM     15  O   UNL d   1      54.520  33.237  55.422  0.00  0.00    -0.300 OA
ATOM     16  C   UNL d   1      55.007  33.790  55.819  0.00  0.00     0.123 A 
ATOM     17  C   UNL d   1      55.504  34.161  55.254  0.00  0.00     0.029 A 
ATOM     18  C   UNL d   1      55.329  33.841  54.499  0.00  0.00     0.032 A 
ENDBRANCH  12  14
ENDBRANCH   1  11
BRANCH   3  19
ATOM     19  C   UNL d   1      52.770  31.048  53.110  0.00  0.00     0.085 A 
ATOM     20  C   UNL d   1      52.765  30.619  53.834  0.00  0.00     0.031 A 
ATOM     21  C   UNL d   1      52.994  29.827  53.837  0.00  0.00     0.059 A 
ATOM     22 CL   UNL d   1      52.995  29.386  54.550  0.00  0.00    -0.082 Cl
ATOM     23  C   UNL d   1      53.231  29.450  53.115  0.00  0.00     0.011 A 
ATOM     24  C   UNL d   1      53.230  29.890  52.403  0.00  0.00     0.002 A 
ATOM     25  C   UNL d   1      53.001  30.682  52.408  0.00  0.00     0.019 A 
ENDBRANCH   3  19
TORSDOF 3
ENDMDL
MODEL 6
REMARK VINA RESULT:      -8.8      1.857      3.171
REMARK  3 active torsions:
REMARK  status: ('A' for Active; 'I' for Inactive)
REMARK    1  A    between atoms: N_7  and  C_1 
REMARK    2  A    between atoms: C_11  and  N_3 
REMARK       I    between atoms: C_9  and  N_7 
REMARK    3  A    between atoms: C_12  and  C_9 
ROOT
ATOM      1  C   UNL d   1      52.820  32.999  53.847  0.00  0.00     0.169 A 
ATOM      2  C   UNL d   1      52.178  33.219  53.455  0.00  0.00     0.067 A 
ATOM      3  N   UNL d   1      53.126  33.638  54.186  0.00  0.00    -0.212 N 
ATOM      4  C   UNL d   1      52.084  33.999  53.551  0.00  0.00     0.116 A 
ATOM      5  N   UNL d   1      52.670  34.255  54.002  0.00  0.00    -0.163 NA
ATOM      6  S   UNL d   1      51.138  33.568  52.820  0.00  0.00     0.213 S 
ATOM      7  C   UNL d   1      51.442  34.211  53.158  0.00  0.00     0.120 A 
ATOM      8  C   UNL d   1      51.593  32.956  53.004  0.00  0.00     0.103 A 
ATOM      9  O   UNL d   1      50.735  34.225  52.681  0.00  0.00    -0.217 OA
ATOM     10  O   UNL d   1      50.914  32.986  52.549  0.00  0.00    -0.217 OA
ENDROOT
BRANCH   1  11
ATOM     11  N   UNL d   1      52.756  32.314  53.663  0.00  0.00    -0.187 NA
ATOM     12  C   UNL d   1      53.378  31.586  53.326  0.00  0.00     0.303 C 
ATOM     13  O   UNL d   1      54.127  31.717  53.210  0.00  0.00    -0.263 OA
BRANCH  12  14
ATOM     14  C   UNL d   1      53.072  30.831  53.172  0.00  0.00     0.158 A 
ATOM     15  O   UNL d   1      52.851  30.520  52.416  0.00  0.00    -0.300 OA
ATOM     16  C   UNL d   1      52.571  29.739  52.528  0.00  0.00     0.123 A 
ATOM     17  C   UNL d   1      52.614  29.557  53.346  0.00  0.00     0.029 A 
ATOM     18  C   UNL d   1      52.921  30.224  53.749  0.00  0.00     0.032 A 
ENDBRANCH  12  14
ENDBRANCH   1  11
BRANCH   3  19
ATOM     19  C   UNL d   1      53.817  33.663  54.660  0.00  0.00     0.085 A 
ATOM     20  C   UNL d   1      54.537  33.949  54.330  0.00  0.00     0.031 A 
ATOM     21  C   UNL d   1      55.215  33.973  54.796  0.00  0.00     0.059 A 
ATOM     22 CL   UNL d   1      55.939  34.256  54.481  0.00  0.00    -0.082 Cl
ATOM     23  C   UNL d   1      55.188  33.712  55.602  0.00  0.00     0.011 A 
ATOM     24  C   UNL d   1      54.465  33.429  55.917  0.00  0.00     0.002 A 
ATOM     25  C   UNL d   1      53.790  33.408  55.445  0.00  0.00     0.019 A 
ENDBRANCH   3  19
TORSDOF 3
ENDMDL
