MODEL 1
REMARK VINA RESULT:      -6.2      0.000      0.000
REMARK  4 active torsions:
REMARK  status: ('A' for Active; 'I' for Inactive)
REMARK    1  A    between atoms: C_8  and  N_2 
REMARK    2  A    between atoms: C_7  and  O_14 
REMARK    3  A    between atoms: C_15  and  C_8 
REMARK    4  A    between atoms: O_14  and  C_15 
ROOT
ATOM      1  C   UNL d   1     -48.634  13.502  23.306  0.00  0.00     0.108 C 
ENDROOT
BRANCH   1   2
ATOM      2  N   UNL d   1     -49.328  13.672  22.881  0.00  0.00    -0.285 N 
ATOM      3  C   UNL d   1     -49.669  13.225  22.206  0.00  0.00     0.183 A 
ATOM      4  N   UNL d   1     -50.400  13.666  21.988  0.00  0.00    -0.224 NA
ATOM      5  C   UNL d   1     -50.506  14.327  22.482  0.00  0.00     0.099 A 
ATOM      6  C   UNL d   1     -49.858  14.359  23.046  0.00  0.00     0.083 A 
ATOM      7  C   UNL d   1     -51.064  14.875  22.501  0.00  0.00     0.021 A 
ATOM      8  C   UNL d   1     -49.819  14.937  23.586  0.00  0.00     0.019 A 
ATOM      9  C   UNL d   1     -50.443  15.535  23.596  0.00  0.00     0.002 A 
ATOM     10  C   UNL d   1     -51.064  15.504  23.055  0.00  0.00     0.002 A 
ENDBRANCH   1   2
BRANCH   1  11
ATOM     11  C   UNL d   1     -47.962  13.240  22.931  0.00  0.00     0.142 C 
BRANCH  11  12
ATOM     12  O   UNL d   1     -47.265  13.138  23.364  0.00  0.00    -0.304 OA
BRANCH  12  13
ATOM     13  C   UNL d   1     -46.532  13.076  22.978  0.00  0.00     0.100 A 
ATOM     14  C   UNL d   1     -46.126  12.359  22.993  0.00  0.00     0.026 A 
ATOM     15  C   UNL d   1     -45.404  12.266  22.624  0.00  0.00     0.013 A 
ATOM     16  C   UNL d   1     -45.050  12.913  22.211  0.00  0.00     0.058 A 
ATOM     17  C   UNL d   1     -45.471  13.638  22.201  0.00  0.00     0.013 A 
ATOM     18 CL   UNL d   1     -44.302  12.807  21.831  0.00  0.00    -0.082 Cl
ATOM     19  C   UNL d   1     -46.195  13.714  22.578  0.00  0.00     0.026 A 
ENDBRANCH  12  13
ENDBRANCH  11  12
ENDBRANCH   1  11
TORSDOF 4
ENDMDL
MODEL 2
REMARK VINA RESULT:      -6.0      0.758      1.319
REMARK  4 active torsions:
REMARK  status: ('A' for Active; 'I' for Inactive)
REMARK    1  A    between atoms: C_8  and  N_2 
REMARK    2  A    between atoms: C_7  and  O_14 
REMARK    3  A    between atoms: C_15  and  C_8 
REMARK    4  A    between atoms: O_14  and  C_15 
ROOT
ATOM      1  C   UNL d   1     -48.523  13.862  23.224  0.00  0.00     0.108 C 
ENDROOT
BRANCH   1   2
ATOM      2  N   UNL d   1     -49.158  14.283  22.891  0.00  0.00    -0.285 N 
ATOM      3  C   UNL d   1     -49.351  15.134  22.990  0.00  0.00     0.183 A 
ATOM      4  N   UNL d   1     -50.079  15.259  22.510  0.00  0.00    -0.224 NA
ATOM      5  C   UNL d   1     -50.319  14.551  22.145  0.00  0.00     0.099 A 
ATOM      6  C   UNL d   1     -49.769  13.926  22.361  0.00  0.00     0.083 A 
ATOM      7  C   UNL d   1     -50.922  14.390  21.673  0.00  0.00     0.021 A 
ATOM      8  C   UNL d   1     -49.866  13.190  22.089  0.00  0.00     0.019 A 
ATOM      9  C   UNL d   1     -50.538  13.026  21.569  0.00  0.00     0.002 A 
ATOM     10  C   UNL d   1     -51.064  13.625  21.362  0.00  0.00     0.002 A 
ENDBRANCH   1   2
BRANCH   1  11
ATOM     11  C   UNL d   1     -47.757  13.996  22.989  0.00  0.00     0.142 C 
BRANCH  11  12
ATOM     12  O   UNL d   1     -47.135  13.644  23.402  0.00  0.00    -0.304 OA
BRANCH  12  13
ATOM     13  C   UNL d   1     -46.435  13.427  23.010  0.00  0.00     0.100 A 
ATOM     14  C   UNL d   1     -46.179  12.644  23.041  0.00  0.00     0.026 A 
ATOM     15  C   UNL d   1     -45.496  12.399  22.667  0.00  0.00     0.013 A 
ATOM     16  C   UNL d   1     -45.028  12.952  22.231  0.00  0.00     0.058 A 
ATOM     17  C   UNL d   1     -45.297  13.746  22.205  0.00  0.00     0.013 A 
ATOM     18 CL   UNL d   1     -44.322  12.690  21.846  0.00  0.00    -0.082 Cl
ATOM     19  C   UNL d   1     -45.985  13.975  22.587  0.00  0.00     0.026 A 
ENDBRANCH  12  13
ENDBRANCH  11  12
ENDBRANCH   1  11
TORSDOF 4
ENDMDL
MODEL 3
REMARK VINA RESULT:      -5.9      2.204      4.927
REMARK  4 active torsions:
REMARK  status: ('A' for Active; 'I' for Inactive)
REMARK    1  A    between atoms: C_8  and  N_2 
REMARK    2  A    between atoms: C_7  and  O_14 
REMARK    3  A    between atoms: C_15  and  C_8 
REMARK    4  A    between atoms: O_14  and  C_15 
ROOT
ATOM      1  C   UNL d   1     -47.112  13.730  22.468  0.00  0.00     0.108 C 
ENDROOT
BRANCH   1   2
ATOM      2  N   UNL d   1     -46.637  13.123  22.778  0.00  0.00    -0.285 N 
ATOM      3  C   UNL d   1     -46.832  12.566  23.428  0.00  0.00     0.183 A 
ATOM      4  N   UNL d   1     -46.122  12.052  23.510  0.00  0.00    -0.224 NA
ATOM      5  C   UNL d   1     -45.535  12.269  22.961  0.00  0.00     0.099 A 
ATOM      6  C   UNL d   1     -45.824  12.929  22.492  0.00  0.00     0.083 A 
ATOM      7  C   UNL d   1     -44.821  11.980  22.824  0.00  0.00     0.021 A 
ATOM      8  C   UNL d   1     -45.375  13.249  21.923  0.00  0.00     0.019 A 
ATOM      9  C   UNL d   1     -44.588  12.919  21.784  0.00  0.00     0.002 A 
ATOM     10  C   UNL d   1     -44.311  12.286  22.233  0.00  0.00     0.002 A 
ENDBRANCH   1   2
BRANCH   1  11
ATOM     11  C   UNL d   1     -47.858  13.872  22.755  0.00  0.00     0.142 C 
BRANCH  11  12
ATOM     12  O   UNL d   1     -48.400  14.294  22.295  0.00  0.00    -0.304 OA
BRANCH  12  13
ATOM     13  C   UNL d   1     -49.071  14.642  22.642  0.00  0.00     0.100 A 
ATOM     14  C   UNL d   1     -49.061  15.445  22.825  0.00  0.00     0.026 A 
ATOM     15  C   UNL d   1     -49.703  15.816  23.167  0.00  0.00     0.013 A 
ATOM     16  C   UNL d   1     -50.404  15.378  23.344  0.00  0.00     0.058 A 
ATOM     17  C   UNL d   1     -50.403  14.561  23.153  0.00  0.00     0.013 A 
ATOM     18 CL   UNL d   1     -51.064  15.770  23.697  0.00  0.00    -0.082 Cl
ATOM     19  C   UNL d   1     -49.750  14.204  22.811  0.00  0.00     0.026 A 
ENDBRANCH  12  13
ENDBRANCH  11  12
ENDBRANCH   1  11
TORSDOF 4
ENDMDL
MODEL 4
REMARK VINA RESULT:      -5.8      2.612      5.325
REMARK  4 active torsions:
REMARK  status: ('A' for Active; 'I' for Inactive)
REMARK    1  A    between atoms: C_8  and  N_2 
REMARK    2  A    between atoms: C_7  and  O_14 
REMARK    3  A    between atoms: C_15  and  C_8 
REMARK    4  A    between atoms: O_14  and  C_15 
ROOT
ATOM      1  C   UNL d   1     -47.008  11.420  23.501  0.00  0.00     0.108 C 
ENDROOT
BRANCH   1   2
ATOM      2  N   UNL d   1     -46.220  11.607  23.313  0.00  0.00    -0.285 N 
ATOM      3  C   UNL d   1     -45.908  12.362  22.992  0.00  0.00     0.183 A 
ATOM      4  N   UNL d   1     -45.041  12.233  22.908  0.00  0.00    -0.224 NA
ATOM      5  C   UNL d   1     -44.831  11.466  23.153  0.00  0.00     0.099 A 
ATOM      6  C   UNL d   1     -45.539  11.052  23.411  0.00  0.00     0.083 A 
ATOM      7  C   UNL d   1     -44.139  11.102  23.180  0.00  0.00     0.021 A 
ATOM      8  C   UNL d   1     -45.500  10.307  23.674  0.00  0.00     0.019 A 
ATOM      9  C   UNL d   1     -44.728   9.917  23.698  0.00  0.00     0.002 A 
ATOM     10  C   UNL d   1     -44.049  10.314  23.451  0.00  0.00     0.002 A 
ENDBRANCH   1   2
BRANCH   1  11
ATOM     11  C   UNL d   1     -47.630  11.832  23.178  0.00  0.00     0.142 C 
BRANCH  11  12
ATOM     12  O   UNL d   1     -48.400  11.682  23.437  0.00  0.00    -0.304 OA
BRANCH  12  13
ATOM     13  C   UNL d   1     -49.051  12.019  23.047  0.00  0.00     0.100 A 
ATOM     14  C   UNL d   1     -49.582  12.483  23.474  0.00  0.00     0.026 A 
ATOM     15  C   UNL d   1     -50.232  12.829  23.120  0.00  0.00     0.013 A 
ATOM     16  C   UNL d   1     -50.378  12.716  22.295  0.00  0.00     0.058 A 
ATOM     17  C   UNL d   1     -49.832  12.242  21.870  0.00  0.00     0.013 A 
ATOM     18 CL   UNL d   1     -51.054  13.077  21.938  0.00  0.00    -0.082 Cl
ATOM     19  C   UNL d   1     -49.184  11.903  22.241  0.00  0.00     0.026 A 
ENDBRANCH  12  13
ENDBRANCH  11  12
ENDBRANCH   1  11
TORSDOF 4
ENDMDL
MODEL 5
REMARK VINA RESULT:      -5.8      1.212      1.656
REMARK  4 active torsions:
REMARK  status: ('A' for Active; 'I' for Inactive)
REMARK    1  A    between atoms: C_8  and  N_2 
REMARK    2  A    between atoms: C_7  and  O_14 
REMARK    3  A    between atoms: C_15  and  C_8 
REMARK    4  A    between atoms: O_14  and  C_15 
ROOT
ATOM      1  C   UNL d   1     -48.000  12.606  23.585  0.00  0.00     0.108 C 
ENDROOT
BRANCH   1   2
ATOM      2  N   UNL d   1     -48.722  12.273  23.342  0.00  0.00    -0.285 N 
ATOM      3  C   UNL d   1     -48.875  11.446  23.089  0.00  0.00     0.183 A 
ATOM      4  N   UNL d   1     -49.734  11.421  22.900  0.00  0.00    -0.224 NA
ATOM      5  C   UNL d   1     -50.087  12.164  23.023  0.00  0.00     0.099 A 
ATOM      6  C   UNL d   1     -49.486  12.715  23.298  0.00  0.00     0.083 A 
ATOM      7  C   UNL d   1     -50.824  12.410  22.933  0.00  0.00     0.021 A 
ATOM      8  C   UNL d   1     -49.670  13.467  23.461  0.00  0.00     0.019 A 
ATOM      9  C   UNL d   1     -50.489  13.725  23.355  0.00  0.00     0.002 A 
ATOM     10  C   UNL d   1     -51.064  13.197  23.092  0.00  0.00     0.002 A 
ENDBRANCH   1   2
BRANCH   1  11
ATOM     11  C   UNL d   1     -47.306  12.444  23.195  0.00  0.00     0.142 C 
BRANCH  11  12
ATOM     12  O   UNL d   1     -46.602  12.791  23.451  0.00  0.00    -0.304 OA
BRANCH  12  13
ATOM     13  C   UNL d   1     -45.930  12.796  22.961  0.00  0.00     0.100 A 
ATOM     14  C   UNL d   1     -45.778  13.455  22.489  0.00  0.00     0.026 A 
ATOM     15  C   UNL d   1     -45.127  13.491  21.998  0.00  0.00     0.013 A 
ATOM     16  C   UNL d   1     -44.585  12.844  21.961  0.00  0.00     0.058 A 
ATOM     17  C   UNL d   1     -44.748  12.179  22.446  0.00  0.00     0.013 A 
ATOM     18 CL   UNL d   1     -43.913  12.890  21.450  0.00  0.00    -0.082 Cl
ATOM     19  C   UNL d   1     -45.407  12.159  22.933  0.00  0.00     0.026 A 
ENDBRANCH  12  13
ENDBRANCH  11  12
ENDBRANCH   1  11
TORSDOF 4
ENDMDL
MODEL 6
REMARK VINA RESULT:      -5.4      1.593      2.135
REMARK  4 active torsions:
REMARK  status: ('A' for Active; 'I' for Inactive)
REMARK    1  A    between atoms: C_8  and  N_2 
REMARK    2  A    between atoms: C_7  and  O_14 
REMARK    3  A    between atoms: C_15  and  C_8 
REMARK    4  A    between atoms: O_14  and  C_15 
ROOT
ATOM      1  C   UNL d   1     -46.991  13.107  22.822  0.00  0.00     0.108 C 
ENDROOT
BRANCH   1   2
ATOM      2  N   UNL d   1     -47.689  13.165  22.375  0.00  0.00    -0.285 N 
ATOM      3  C   UNL d   1     -47.997  12.595  21.782  0.00  0.00     0.183 A 
ATOM      4  N   UNL d   1     -48.750  12.951  21.495  0.00  0.00    -0.224 NA
ATOM      5  C   UNL d   1     -48.899  13.676  21.874  0.00  0.00     0.099 A 
ATOM      6  C   UNL d   1     -48.259  13.838  22.426  0.00  0.00     0.083 A 
ATOM      7  C   UNL d   1     -49.487  14.187  21.804  0.00  0.00     0.021 A 
ATOM      8  C   UNL d   1     -48.259  14.497  22.865  0.00  0.00     0.019 A 
ATOM      9  C   UNL d   1     -48.917  15.052  22.777  0.00  0.00     0.002 A 
ATOM     10  C   UNL d   1     -49.529  14.897  22.248  0.00  0.00     0.002 A 
ENDBRANCH   1   2
BRANCH   1  11
ATOM     11  C   UNL d   1     -46.548  12.425  22.830  0.00  0.00     0.142 C 
BRANCH  11  12
ATOM     12  O   UNL d   1     -45.885  12.373  23.320  0.00  0.00    -0.304 OA
BRANCH  12  13
ATOM     13  C   UNL d   1     -45.419  11.685  23.330  0.00  0.00     0.100 A 
ATOM     14  C   UNL d   1     -45.720  10.997  23.671  0.00  0.00     0.026 A 
ATOM     15  C   UNL d   1     -45.289  10.305  23.698  0.00  0.00     0.013 A 
ATOM     16  C   UNL d   1     -44.510  10.276  23.370  0.00  0.00     0.058 A 
ATOM     17  C   UNL d   1     -44.212  10.981  23.026  0.00  0.00     0.013 A 
ATOM     18 CL   UNL d   1     -44.069   9.555  23.402  0.00  0.00    -0.082 Cl
ATOM     19  C   UNL d   1     -44.660  11.668  23.008  0.00  0.00     0.026 A 
ENDBRANCH  12  13
ENDBRANCH  11  12
ENDBRANCH   1  11
TORSDOF 4
ENDMDL
MODEL 7
REMARK VINA RESULT:      -5.4      8.664     10.321
REMARK  4 active torsions:
REMARK  status: ('A' for Active; 'I' for Inactive)
REMARK    1  A    between atoms: C_8  and  N_2 
REMARK    2  A    between atoms: C_7  and  O_14 
REMARK    3  A    between atoms: C_15  and  C_8 
REMARK    4  A    between atoms: O_14  and  C_15 
ROOT
ATOM      1  C   UNL d   1     -40.110  14.188  18.368  0.00  0.00     0.108 C 
ENDROOT
BRANCH   1   2
ATOM      2  N   UNL d   1     -39.771  14.419  17.645  0.00  0.00    -0.285 N 
ATOM      3  C   UNL d   1     -39.971  15.121  17.157  0.00  0.00     0.183 A 
ATOM      4  N   UNL d   1     -39.432  15.075  16.461  0.00  0.00    -0.224 NA
ATOM      5  C   UNL d   1     -38.941  14.406  16.511  0.00  0.00     0.099 A 
ATOM      6  C   UNL d   1     -39.126  13.978  17.233  0.00  0.00     0.083 A 
ATOM      7  C   UNL d   1     -38.383  14.136  16.033  0.00  0.00     0.021 A 
ATOM      8  C   UNL d   1     -38.738  13.314  17.421  0.00  0.00     0.019 A 
ATOM      9  C   UNL d   1     -38.124  13.027  16.883  0.00  0.00     0.002 A 
ATOM     10  C   UNL d   1     -37.947  13.437  16.191  0.00  0.00     0.002 A 
ENDBRANCH   1   2
BRANCH   1  11
ATOM     11  C   UNL d   1     -40.215  14.718  18.975  0.00  0.00     0.142 C 
BRANCH  11  12
ATOM     12  O   UNL d   1     -40.496  14.453  19.706  0.00  0.00    -0.304 OA
BRANCH  12  13
ATOM     13  C   UNL d   1     -40.270  14.833  20.409  0.00  0.00     0.100 A 
ATOM     14  C   UNL d   1     -39.690  14.491  20.885  0.00  0.00     0.026 A 
ATOM     15  C   UNL d   1     -39.445  14.839  21.582  0.00  0.00     0.013 A 
ATOM     16  C   UNL d   1     -39.787  15.569  21.836  0.00  0.00     0.058 A 
ATOM     17  C   UNL d   1     -40.376  15.908  21.345  0.00  0.00     0.013 A 
ATOM     18 CL   UNL d   1     -39.528  15.922  22.560  0.00  0.00    -0.082 Cl
ATOM     19  C   UNL d   1     -40.610  15.545  20.648  0.00  0.00     0.026 A 
ENDBRANCH  12  13
ENDBRANCH  11  12
ENDBRANCH   1  11
TORSDOF 4
ENDMDL
MODEL 8
REMARK VINA RESULT:      -5.3      8.825      9.360
REMARK  4 active torsions:
REMARK  status: ('A' for Active; 'I' for Inactive)
REMARK    1  A    between atoms: C_8  and  N_2 
REMARK    2  A    between atoms: C_7  and  O_14 
REMARK    3  A    between atoms: C_15  and  C_8 
REMARK    4  A    between atoms: O_14  and  C_15 
ROOT
ATOM      1  C   UNL d   1     -40.486  14.487  19.441  0.00  0.00     0.108 C 
ENDROOT
BRANCH   1   2
ATOM      2  N   UNL d   1     -40.211  14.478  18.657  0.00  0.00    -0.285 N 
ATOM      3  C   UNL d   1     -39.565  13.989  18.318  0.00  0.00     0.183 A 
ATOM      4  N   UNL d   1     -39.525  14.219  17.469  0.00  0.00    -0.224 NA
ATOM      5  C   UNL d   1     -40.095  14.799  17.293  0.00  0.00     0.099 A 
ATOM      6  C   UNL d   1     -40.536  14.982  18.008  0.00  0.00     0.083 A 
ATOM      7  C   UNL d   1     -40.269  15.169  16.625  0.00  0.00     0.021 A 
ATOM      8  C   UNL d   1     -41.117  15.520  17.999  0.00  0.00     0.019 A 
ATOM      9  C   UNL d   1     -41.298  15.920  17.254  0.00  0.00     0.002 A 
ATOM     10  C   UNL d   1     -40.875  15.745  16.569  0.00  0.00     0.002 A 
ENDBRANCH   1   2
BRANCH   1  11
ATOM     11  C   UNL d   1     -39.974  14.443  20.070  0.00  0.00     0.142 C 
BRANCH  11  12
ATOM     12  O   UNL d   1     -40.272  14.439  20.841  0.00  0.00    -0.304 OA
BRANCH  12  13
ATOM     13  C   UNL d   1     -39.758  14.438  21.494  0.00  0.00     0.100 A 
ATOM     14  C   UNL d   1     -39.523  13.719  21.821  0.00  0.00     0.026 A 
ATOM     15  C   UNL d   1     -39.019  13.683  22.463  0.00  0.00     0.013 A 
ATOM     16  C   UNL d   1     -38.722  14.393  22.811  0.00  0.00     0.058 A 
ATOM     17  C   UNL d   1     -38.967  15.120  22.470  0.00  0.00     0.013 A 
ATOM     18 CL   UNL d   1     -38.200  14.347  23.475  0.00  0.00    -0.082 Cl
ATOM     19  C   UNL d   1     -39.474  15.137  21.826  0.00  0.00     0.026 A 
ENDBRANCH  12  13
ENDBRANCH  11  12
ENDBRANCH   1  11
TORSDOF 4
ENDMDL
MODEL 9
REMARK VINA RESULT:      -5.1      8.869      9.637
REMARK  4 active torsions:
REMARK  status: ('A' for Active; 'I' for Inactive)
REMARK    1  A    between atoms: C_8  and  N_2 
REMARK    2  A    between atoms: C_7  and  O_14 
REMARK    3  A    between atoms: C_15  and  C_8 
REMARK    4  A    between atoms: O_14  and  C_15 
ROOT
ATOM      1  C   UNL d   1     -39.951  14.383  21.013  0.00  0.00     0.108 C 
ENDROOT
BRANCH   1   2
ATOM      2  N   UNL d   1     -39.542  14.749  21.638  0.00  0.00    -0.285 N 
ATOM      3  C   UNL d   1     -39.408  15.608  21.764  0.00  0.00     0.183 A 
ATOM      4  N   UNL d   1     -38.945  15.659  22.510  0.00  0.00    -0.224 NA
ATOM      5  C   UNL d   1     -38.802  14.901  22.823  0.00  0.00     0.099 A 
ATOM      6  C   UNL d   1     -39.159  14.315  22.305  0.00  0.00     0.083 A 
ATOM      7  C   UNL d   1     -38.421  14.669  23.466  0.00  0.00     0.021 A 
ATOM      8  C   UNL d   1     -39.107  13.543  22.471  0.00  0.00     0.019 A 
ATOM      9  C   UNL d   1     -38.683  13.301  23.185  0.00  0.00     0.002 A 
ATOM     10  C   UNL d   1     -38.341  13.863  23.681  0.00  0.00     0.002 A 
ENDBRANCH   1   2
BRANCH   1  11
ATOM     11  C   UNL d   1     -40.058  14.758  20.300  0.00  0.00     0.142 C 
BRANCH  11  12
ATOM     12  O   UNL d   1     -40.521  14.402  19.716  0.00  0.00    -0.304 OA
BRANCH  12  13
ATOM     13  C   UNL d   1     -40.491  14.670  18.929  0.00  0.00     0.100 A 
ATOM     14  C   UNL d   1     -40.217  14.163  18.340  0.00  0.00     0.026 A 
ATOM     15  C   UNL d   1     -40.175  14.395  17.558  0.00  0.00     0.013 A 
ATOM     16  C   UNL d   1     -40.415  15.174  17.332  0.00  0.00     0.058 A 
ATOM     17  C   UNL d   1     -40.691  15.682  17.940  0.00  0.00     0.013 A 
ATOM     18 CL   UNL d   1     -40.368  15.406  16.521  0.00  0.00    -0.082 Cl
ATOM     19  C   UNL d   1     -40.727  15.432  18.720  0.00  0.00     0.026 A 
ENDBRANCH  12  13
ENDBRANCH  11  12
ENDBRANCH   1  11
TORSDOF 4
ENDMDL
