MODEL 1
REMARK VINA RESULT:       6.4      0.000      0.000
REMARK  4 active torsions:
REMARK  status: ('A' for Active; 'I' for Inactive)
REMARK    1  A    between atoms: C_8  and  N_2 
REMARK    2  A    between atoms: C_7  and  O_14 
REMARK    3  A    between atoms: C_15  and  C_8 
REMARK    4  A    between atoms: O_14  and  C_15 
ROOT
ATOM      1  C   UNL d   1      46.022 -17.261  43.962  0.00  0.00     0.108 C 
ENDROOT
BRANCH   1   2
ATOM      2  N   UNL d   1      46.193 -18.062  44.102  0.00  0.00    -0.285 N 
ATOM      3  C   UNL d   1      46.267 -18.469  44.877  0.00  0.00     0.183 A 
ATOM      4  N   UNL d   1      46.451 -19.306  44.678  0.00  0.00    -0.224 NA
ATOM      5  C   UNL d   1      46.490 -19.413  43.854  0.00  0.00     0.099 A 
ATOM      6  C   UNL d   1      46.334 -18.661  43.468  0.00  0.00     0.083 A 
ATOM      7  C   UNL d   1      46.635 -20.048  43.420  0.00  0.00     0.021 A 
ATOM      8  C   UNL d   1      46.336 -18.603  42.679  0.00  0.00     0.019 A 
ATOM      9  C   UNL d   1      46.498 -19.312  42.212  0.00  0.00     0.002 A 
ATOM     10  C   UNL d   1      46.647 -20.033  42.582  0.00  0.00     0.002 A 
ENDBRANCH   1   2
BRANCH   1  11
ATOM     11  C   UNL d   1      45.930 -16.734  44.573  0.00  0.00     0.142 C 
BRANCH  11  12
ATOM     12  O   UNL d   1      45.316 -16.182  44.549  0.00  0.00    -0.304 OA
BRANCH  12  13
ATOM     13  C   UNL d   1      45.470 -15.372  44.653  0.00  0.00     0.100 A 
ATOM     14  C   UNL d   1      44.856 -14.829  44.564  0.00  0.00     0.026 A 
ATOM     15  C   UNL d   1      44.974 -14.027  44.660  0.00  0.00     0.013 A 
ATOM     16  C   UNL d   1      45.741 -13.730  44.856  0.00  0.00     0.058 A 
ATOM     17  C   UNL d   1      46.358 -14.291  44.945  0.00  0.00     0.013 A 
ATOM     18 CL   UNL d   1      45.855 -12.898  44.954  0.00  0.00    -0.082 Cl
ATOM     19  C   UNL d   1      46.222 -15.093  44.845  0.00  0.00     0.026 A 
ENDBRANCH  12  13
ENDBRANCH  11  12
ENDBRANCH   1  11
TORSDOF 4
ENDMDL
