MODEL 1
REMARK VINA RESULT:      -4.1      0.000      0.000
REMARK  12 active torsions:
REMARK  status: ('A' for Active; 'I' for Inactive)
REMARK    1  A    between atoms: C_23  and  N_1 
REMARK    2  A    between atoms: S_8  and  C_2 
REMARK    3  A    between atoms: C_7  and  C_11 
REMARK       I    between atoms: N_12  and  C_7 
REMARK    4  A    between atoms: C_24  and  S_8 
REMARK    5  A    between atoms: C_25  and  N_12 
REMARK    6  A    between atoms: C_13  and  C_25 
REMARK    7  A    between atoms: C_15  and  C_24 
REMARK    8  A    between atoms: O_26  and  C_15 
REMARK    9  A    between atoms: C_28  and  C_23 
REMARK   10  A    between atoms: C_27  and  O_26 
REMARK   11  A    between atoms: C_30  and  C_28 
REMARK   12  A    between atoms: C_29  and  C_30 
ROOT
ATOM      1  N   UNL d   1     -45.540  13.259  22.688  0.00  0.00    -0.253 N 
ATOM      2  C   UNL d   1     -46.034  12.728  23.062  0.00  0.00     0.182 A 
ATOM      3  C   UNL d   1     -45.820  13.997  22.460  0.00  0.00     0.268 A 
ATOM      4  N   UNL d   1     -46.812  12.937  23.209  0.00  0.00    -0.222 NA
ATOM      5  C   UNL d   1     -46.595  14.208  22.605  0.00  0.00     0.074 A 
ATOM      6  C   UNL d   1     -47.103  13.673  22.986  0.00  0.00     0.088 A 
ATOM      7  C   UNL d   1     -47.892  13.880  23.137  0.00  0.00     0.024 A 
ATOM      8  C   UNL d   1     -46.888  14.947  22.381  0.00  0.00     0.006 A 
ATOM      9  C   UNL d   1     -48.173  14.622  22.908  0.00  0.00     0.059 A 
ATOM     10  O   UNL d   1     -45.313  14.532  22.079  0.00  0.00    -0.267 OA
ATOM     11  C   UNL d   1     -47.666  15.157  22.528  0.00  0.00     0.005 A 
ENDROOT
BRANCH   9  12
ATOM     12  C   UNL d   1     -48.964  14.833  23.058  0.00  0.00     0.279 C 
ATOM     13  N   UNL d   1     -49.557  14.437  22.671  0.00  0.00    -0.204 NA
ATOM     14  O   UNL d   1     -49.120  15.436  23.595  0.00  0.00    -0.265 OA
BRANCH  13  15
ATOM     15  C   UNL d   1     -49.381  13.837  22.138  0.00  0.00     0.127 C 
BRANCH  15  16
ATOM     16  C   UNL d   1     -49.990  13.443  21.743  0.00  0.00     0.119 A 
ATOM     17  O   UNL d   1     -50.397  13.599  21.060  0.00  0.00    -0.304 OA
ATOM     18  C   UNL d   1     -50.953  13.010  20.928  0.00  0.00     0.123 A 
ATOM     19  C   UNL d   1     -50.876  12.476  21.560  0.00  0.00     0.029 A 
ATOM     20  C   UNL d   1     -50.292  12.734  22.058  0.00  0.00     0.028 A 
ENDBRANCH  15  16
ENDBRANCH  13  15
ENDBRANCH   9  12
BRANCH   2  21
ATOM     21  S   UNL d   1     -45.752  11.986  23.291  0.00  0.00    -0.044 SA
BRANCH  21  22
ATOM     22  C   UNL d   1     -46.268  11.353  23.364  0.00  0.00     0.107 C 
BRANCH  22  23
ATOM     23  C   UNL d   1     -45.974  10.613  23.585  0.00  0.00     0.307 C 
ATOM     24  O   UNL d   1     -46.487   9.970  23.697  0.00  0.00    -0.258 OA
BRANCH  23  25
ATOM     25  O   UNL d   1     -45.156  10.521  23.694  0.00  0.00    -0.271 OA
BRANCH  25  26
ATOM     26  C   UNL d   1     -44.838   9.759  23.688  0.00  0.00     0.126 C 
ATOM     27  C   UNL d   1     -44.035   9.675  23.592  0.00  0.00     0.029 C 
ENDBRANCH  25  26
ENDBRANCH  23  25
ENDBRANCH  22  23
ENDBRANCH  21  22
ENDBRANCH   2  21
BRANCH   1  28
ATOM     28  C   UNL d   1     -44.747  13.041  22.539  0.00  0.00     0.085 C 
BRANCH  28  29
ATOM     29  C   UNL d   1     -44.402  13.198  21.807  0.00  0.00     0.019 C 
BRANCH  29  30
ATOM     30  C   UNL d   1     -43.663  12.915  21.618  0.00  0.00     0.002 C 
BRANCH  30  31
ATOM     31  C   UNL d   1     -43.260  13.183  20.952  0.00  0.00     0.000 C 
ATOM     32  C   UNL d   1     -42.460  13.266  20.959  0.00  0.00     0.000 C 
ENDBRANCH  30  31
ENDBRANCH  29  30
ENDBRANCH  28  29
ENDBRANCH   1  28
TORSDOF 12
ENDMDL
MODEL 2
REMARK VINA RESULT:      -3.5      1.543      4.943
REMARK  12 active torsions:
REMARK  status: ('A' for Active; 'I' for Inactive)
REMARK    1  A    between atoms: C_23  and  N_1 
REMARK    2  A    between atoms: S_8  and  C_2 
REMARK    3  A    between atoms: C_7  and  C_11 
REMARK       I    between atoms: N_12  and  C_7 
REMARK    4  A    between atoms: C_24  and  S_8 
REMARK    5  A    between atoms: C_25  and  N_12 
REMARK    6  A    between atoms: C_13  and  C_25 
REMARK    7  A    between atoms: C_15  and  C_24 
REMARK    8  A    between atoms: O_26  and  C_15 
REMARK    9  A    between atoms: C_28  and  C_23 
REMARK   10  A    between atoms: C_27  and  O_26 
REMARK   11  A    between atoms: C_30  and  C_28 
REMARK   12  A    between atoms: C_29  and  C_30 
ROOT
ATOM      1  N   UNL d   1     -47.289  13.917  23.056  0.00  0.00    -0.253 N 
ATOM      2  C   UNL d   1     -47.317  13.102  23.045  0.00  0.00     0.182 A 
ATOM      3  C   UNL d   1     -46.629  14.315  22.769  0.00  0.00     0.268 A 
ATOM      4  N   UNL d   1     -46.680  12.682  22.745  0.00  0.00    -0.222 NA
ATOM      5  C   UNL d   1     -45.994  13.898  22.470  0.00  0.00     0.074 A 
ATOM      6  C   UNL d   1     -46.015  13.069  22.456  0.00  0.00     0.088 A 
ATOM      7  C   UNL d   1     -45.374  12.639  22.153  0.00  0.00     0.024 A 
ATOM      8  C   UNL d   1     -45.326  14.287  22.179  0.00  0.00     0.006 A 
ATOM      9  C   UNL d   1     -44.711  13.038  21.865  0.00  0.00     0.059 A 
ATOM     10  O   UNL d   1     -46.608  15.144  22.784  0.00  0.00    -0.267 OA
ATOM     11  C   UNL d   1     -44.689  13.867  21.879  0.00  0.00     0.005 A 
ENDROOT
BRANCH   9  12
ATOM     12  C   UNL d   1     -44.065  12.610  21.561  0.00  0.00     0.279 C 
ATOM     13  N   UNL d   1     -43.800  11.959  21.966  0.00  0.00    -0.204 NA
ATOM     14  O   UNL d   1     -43.717  12.860  20.860  0.00  0.00    -0.265 OA
BRANCH  13  15
ATOM     15  C   UNL d   1     -44.162  11.724  22.666  0.00  0.00     0.127 C 
BRANCH  15  16
ATOM     16  C   UNL d   1     -43.984  10.990  22.997  0.00  0.00     0.119 A 
ATOM     17  O   UNL d   1     -43.319  10.525  22.987  0.00  0.00    -0.304 OA
ATOM     18  C   UNL d   1     -43.454   9.840  23.416  0.00  0.00     0.123 A 
ATOM     19  C   UNL d   1     -44.233   9.894  23.698  0.00  0.00     0.029 A 
ATOM     20  C   UNL d   1     -44.560  10.591  23.446  0.00  0.00     0.028 A 
ENDBRANCH  15  16
ENDBRANCH  13  15
ENDBRANCH   9  12
BRANCH   2  21
ATOM     21  S   UNL d   1     -47.980  12.702  23.333  0.00  0.00    -0.044 SA
BRANCH  21  22
ATOM     22  C   UNL d   1     -48.181  11.965  23.036  0.00  0.00     0.107 C 
BRANCH  22  23
ATOM     23  C   UNL d   1     -48.693  11.479  23.465  0.00  0.00     0.307 C 
ATOM     24  O   UNL d   1     -48.474  10.703  23.661  0.00  0.00    -0.258 OA
BRANCH  23  25
ATOM     25  O   UNL d   1     -49.431  11.779  23.698  0.00  0.00    -0.271 OA
BRANCH  25  26
ATOM     26  C   UNL d   1     -50.111  11.351  23.507  0.00  0.00     0.126 C 
ATOM     27  C   UNL d   1     -50.771  11.761  23.265  0.00  0.00     0.029 C 
ENDBRANCH  25  26
ENDBRANCH  23  25
ENDBRANCH  22  23
ENDBRANCH  21  22
ENDBRANCH   2  21
BRANCH   1  28
ATOM     28  C   UNL d   1     -47.941  14.342  23.363  0.00  0.00     0.085 C 
BRANCH  28  29
ATOM     29  C   UNL d   1     -48.443  14.756  22.858  0.00  0.00     0.019 C 
BRANCH  29  30
ATOM     30  C   UNL d   1     -49.101  15.143  23.138  0.00  0.00     0.002 C 
BRANCH  30  31
ATOM     31  C   UNL d   1     -49.766  15.256  22.666  0.00  0.00     0.000 C 
ATOM     32  C   UNL d   1     -50.226  15.910  22.749  0.00  0.00     0.000 C 
ENDBRANCH  30  31
ENDBRANCH  29  30
ENDBRANCH  28  29
ENDBRANCH   1  28
TORSDOF 12
ENDMDL
MODEL 3
REMARK VINA RESULT:      -3.0      1.367      5.628
REMARK  12 active torsions:
REMARK  status: ('A' for Active; 'I' for Inactive)
REMARK    1  A    between atoms: C_23  and  N_1 
REMARK    2  A    between atoms: S_8  and  C_2 
REMARK    3  A    between atoms: C_7  and  C_11 
REMARK       I    between atoms: N_12  and  C_7 
REMARK    4  A    between atoms: C_24  and  S_8 
REMARK    5  A    between atoms: C_25  and  N_12 
REMARK    6  A    between atoms: C_13  and  C_25 
REMARK    7  A    between atoms: C_15  and  C_24 
REMARK    8  A    between atoms: O_26  and  C_15 
REMARK    9  A    between atoms: C_28  and  C_23 
REMARK   10  A    between atoms: C_27  and  O_26 
REMARK   11  A    between atoms: C_30  and  C_28 
REMARK   12  A    between atoms: C_29  and  C_30 
ROOT
ATOM      1  N   UNL d   1     -47.549  12.034  23.476  0.00  0.00    -0.253 N 
ATOM      2  C   UNL d   1     -47.087  12.691  23.327  0.00  0.00     0.182 A 
ATOM      3  C   UNL d   1     -47.204  11.291  23.547  0.00  0.00     0.268 A 
ATOM      4  N   UNL d   1     -46.276  12.603  23.249  0.00  0.00    -0.222 NA
ATOM      5  C   UNL d   1     -46.396  11.201  23.469  0.00  0.00     0.074 A 
ATOM      6  C   UNL d   1     -45.921  11.865  23.318  0.00  0.00     0.088 A 
ATOM      7  C   UNL d   1     -45.100  11.781  23.239  0.00  0.00     0.024 A 
ATOM      8  C   UNL d   1     -46.039  10.460  23.539  0.00  0.00     0.006 A 
ATOM      9  C   UNL d   1     -44.753  11.035  23.310  0.00  0.00     0.059 A 
ATOM     10  O   UNL d   1     -47.679  10.628  23.698  0.00  0.00    -0.267 OA
ATOM     11  C   UNL d   1     -45.228  10.372  23.461  0.00  0.00     0.005 A 
ENDROOT
BRANCH   9  12
ATOM     12  C   UNL d   1     -43.930  10.948  23.230  0.00  0.00     0.279 C 
ATOM     13  N   UNL d   1     -43.535  11.412  22.694  0.00  0.00    -0.204 NA
ATOM     14  O   UNL d   1     -43.541  10.394  23.697  0.00  0.00    -0.265 OA
BRANCH  13  15
ATOM     15  C   UNL d   1     -43.941  11.961  22.236  0.00  0.00     0.127 C 
BRANCH  15  16
ATOM     16  C   UNL d   1     -43.525  12.512  21.784  0.00  0.00     0.119 A 
ATOM     17  O   UNL d   1     -43.706  13.254  21.513  0.00  0.00    -0.304 OA
ATOM     18  C   UNL d   1     -43.075  13.554  21.084  0.00  0.00     0.123 A 
ATOM     19  C   UNL d   1     -42.488  12.966  21.097  0.00  0.00     0.029 A 
ATOM     20  C   UNL d   1     -42.757  12.330  21.522  0.00  0.00     0.028 A 
ENDBRANCH  15  16
ENDBRANCH  13  15
ENDBRANCH   9  12
BRANCH   2  21
ATOM     21  S   UNL d   1     -47.434  13.437  23.256  0.00  0.00    -0.044 SA
BRANCH  21  22
ATOM     22  C   UNL d   1     -47.108  13.998  22.755  0.00  0.00     0.107 C 
BRANCH  22  23
ATOM     23  C   UNL d   1     -47.445  14.751  22.714  0.00  0.00     0.307 C 
ATOM     24  O   UNL d   1     -46.969  15.430  22.757  0.00  0.00    -0.258 OA
BRANCH  23  25
ATOM     25  O   UNL d   1     -48.268  14.820  22.630  0.00  0.00    -0.271 OA
BRANCH  25  26
ATOM     26  C   UNL d   1     -48.593  15.571  22.516  0.00  0.00     0.126 C 
ATOM     27  C   UNL d   1     -49.255  15.639  22.048  0.00  0.00     0.029 C 
ENDBRANCH  25  26
ENDBRANCH  23  25
ENDBRANCH  22  23
ENDBRANCH  21  22
ENDBRANCH   2  21
BRANCH   1  28
ATOM     28  C   UNL d   1     -48.376  12.128  23.555  0.00  0.00     0.085 C 
BRANCH  28  29
ATOM     29  C   UNL d   1     -48.886  11.814  22.989  0.00  0.00     0.019 C 
BRANCH  29  30
ATOM     30  C   UNL d   1     -49.692  11.806  23.103  0.00  0.00     0.002 C 
BRANCH  30  31
ATOM     31  C   UNL d   1     -50.209  12.075  22.523  0.00  0.00     0.000 C 
ATOM     32  C   UNL d   1     -50.980  12.226  22.694  0.00  0.00     0.000 C 
ENDBRANCH  30  31
ENDBRANCH  29  30
ENDBRANCH  28  29
ENDBRANCH   1  28
TORSDOF 12
ENDMDL
