MODEL 1
REMARK VINA RESULT:      -3.3      0.000      0.000
REMARK  4 active torsions:
REMARK  status: ('A' for Active; 'I' for Inactive)
REMARK    1  A    between atoms: S_6  and  C_1 
REMARK    2  A    between atoms: C_19  and  S_6 
REMARK    3  A    between atoms: C_7  and  C_19 
REMARK       I    between atoms: N_10  and  C_7 
REMARK    4  A    between atoms: C_14  and  N_10 
ROOT
ATOM      1  C   UNL d   1      32.936  19.072 -23.031  0.00  0.00     0.286 C 
ATOM      2  N   UNL d   1      32.657  18.703 -23.708  0.00  0.00    -0.207 NA
ATOM      3  O   UNL d   1      33.085  18.621 -22.354  0.00  0.00    -0.265 OA
ENDROOT
BRANCH   1   4
ATOM      4  C   UNL d   1      33.067  19.881 -23.023  0.00  0.00     0.099 C 
BRANCH   4   5
ATOM      5  S   UNL d   1      32.896  20.320 -22.354  0.00  0.00    -0.062 SA
BRANCH   5   6
ATOM      6  C   UNL d   1      32.943  21.144 -22.372  0.00  0.00     0.114 A 
ATOM      7  C   UNL d   1      32.741  21.585 -21.708  0.00  0.00     0.042 A 
ATOM      8  C   UNL d   1      32.788  22.411 -21.727  0.00  0.00     0.085 A 
ATOM      9  C   UNL d   1      32.491  21.200 -21.023  0.00  0.00     0.004 A 
ATOM     10  C   UNL d   1      32.585  22.851 -21.059  0.00  0.00     0.019 A 
ATOM     11  N   UNL d   1      33.037  22.795 -22.408  0.00  0.00    -0.224 NA
ATOM     12  C   UNL d   1      32.335  22.466 -20.373  0.00  0.00     0.002 A 
ATOM     13  C   UNL d   1      32.288  21.641 -20.355  0.00  0.00     0.000 A 
ATOM     14  C   UNL d   1      33.240  22.355 -23.076  0.00  0.00     0.200 A 
ATOM     15  N   UNL d   1      33.193  21.530 -23.058  0.00  0.00    -0.217 NA
ENDBRANCH   5   6
ENDBRANCH   4   5
ENDBRANCH   1   4
BRANCH   2  16
ATOM     16  C   UNL d   1      32.525  17.890 -23.718  0.00  0.00     0.087 A 
ATOM     17  C   UNL d   1      31.761  17.603 -23.632  0.00  0.00     0.045 A 
ATOM     18  C   UNL d   1      31.627  16.788 -23.642  0.00  0.00     0.121 A 
ATOM     19  O   UNL d   1      30.931  16.346 -23.569  0.00  0.00    -0.299 OA
ATOM     20  C   UNL d   1      32.257  16.270 -23.739  0.00  0.00     0.119 A 
ATOM     21  C   UNL d   1      31.141  15.554 -23.622  0.00  0.00     0.304 A 
ATOM     22  O   UNL d   1      31.959  15.501 -23.726  0.00  0.00    -0.300 OA
ATOM     23  C   UNL d   1      33.020  16.569 -23.825  0.00  0.00     0.028 A 
ATOM     24  C   UNL d   1      33.156  17.372 -23.815  0.00  0.00     0.021 A 
ENDBRANCH   2  16
TORSDOF 4
ENDMDL
MODEL 2
REMARK VINA RESULT:      -3.0      1.927      5.360
REMARK  4 active torsions:
REMARK  status: ('A' for Active; 'I' for Inactive)
REMARK    1  A    between atoms: S_6  and  C_1 
REMARK    2  A    between atoms: C_19  and  S_6 
REMARK    3  A    between atoms: C_7  and  C_19 
REMARK       I    between atoms: N_10  and  C_7 
REMARK    4  A    between atoms: C_14  and  N_10 
ROOT
ATOM      1  C   UNL d   1      33.000  19.943 -22.196  0.00  0.00     0.286 C 
ATOM      2  N   UNL d   1      32.737  20.126 -21.440  0.00  0.00    -0.207 NA
ATOM      3  O   UNL d   1      33.240  20.553 -22.701  0.00  0.00    -0.265 OA
ENDROOT
BRANCH   1   4
ATOM      4  C   UNL d   1      33.026  19.165 -22.450  0.00  0.00     0.099 C 
BRANCH   4   5
ATOM      5  S   UNL d   1      32.687  18.952 -23.163  0.00  0.00    -0.062 SA
BRANCH   5   6
ATOM      6  C   UNL d   1      32.622  18.156 -23.374  0.00  0.00     0.114 A 
ATOM      7  C   UNL d   1      32.064  17.918 -23.928  0.00  0.00     0.042 A 
ATOM      8  C   UNL d   1      31.999  17.121 -24.139  0.00  0.00     0.085 A 
ATOM      9  C   UNL d   1      31.568  18.480 -24.274  0.00  0.00     0.004 A 
ATOM     10  C   UNL d   1      31.437  16.886 -24.696  0.00  0.00     0.019 A 
ATOM     11  N   UNL d   1      32.492  16.562 -23.795  0.00  0.00    -0.224 NA
ATOM     12  C   UNL d   1      30.941  17.446 -25.042  0.00  0.00     0.002 A 
ATOM     13  C   UNL d   1      31.006  18.244 -24.831  0.00  0.00     0.000 A 
ATOM     14  C   UNL d   1      33.053  16.797 -23.239  0.00  0.00     0.200 A 
ATOM     15  N   UNL d   1      33.118  17.594 -23.028  0.00  0.00    -0.217 NA
ENDBRANCH   5   6
ENDBRANCH   4   5
ENDBRANCH   1   4
BRANCH   2  16
ATOM     16  C   UNL d   1      32.710  20.907 -21.183  0.00  0.00     0.087 A 
ATOM     17  C   UNL d   1      32.150  21.418 -21.498  0.00  0.00     0.045 A 
ATOM     18  C   UNL d   1      32.122  22.202 -21.241  0.00  0.00     0.121 A 
ATOM     19  O   UNL d   1      31.628  22.832 -21.454  0.00  0.00    -0.299 OA
ATOM     20  C   UNL d   1      32.653  22.467 -20.672  0.00  0.00     0.119 A 
ATOM     21  C   UNL d   1      31.862  23.483 -21.011  0.00  0.00     0.304 A 
ATOM     22  O   UNL d   1      32.494  23.264 -20.527  0.00  0.00    -0.300 OA
ATOM     23  C   UNL d   1      33.211  21.946 -20.362  0.00  0.00     0.028 A 
ATOM     24  C   UNL d   1      33.241  21.171 -20.614  0.00  0.00     0.021 A 
ENDBRANCH   2  16
TORSDOF 4
ENDMDL
