MODEL 1
REMARK VINA RESULT:      55.1      0.000      0.000
REMARK  6 active torsions:
REMARK  status: ('A' for Active; 'I' for Inactive)
REMARK    1  A    between atoms: N_2  and  S_1 
REMARK    2  A    between atoms: C_6  and  S_1 
REMARK    3  A    between atoms: S_7  and  C_3 
REMARK    4  A    between atoms: N_4  and  C_10 
REMARK    5  A    between atoms: C_21  and  S_7 
REMARK    6  A    between atoms: C_20  and  C_21 
ROOT
ATOM      1  N   UNL d   1     -55.337 -99.296 -44.666  0.00  0.00    -0.208 N 
ATOM      2  C   UNL d   1     -54.963-100.016 -44.846  0.00  0.00     0.189 A 
ATOM      3  N   UNL d   1     -54.884-100.067 -45.669  0.00  0.00    -0.219 NA
ATOM      4  C   UNL d   1     -55.490 -98.900 -45.382  0.00  0.00     0.114 A 
ATOM      5  C   UNL d   1     -55.209 -99.378 -45.995  0.00  0.00     0.121 A 
ENDROOT
BRANCH   1   6
ATOM      6  S   UNL d   1     -55.524 -99.024 -43.904  0.00  0.00     0.273 S 
ATOM      7  O   UNL d   1     -54.725 -99.067 -43.733  0.00  0.00    -0.200 OA
ATOM      8  O   UNL d   1     -55.459 -98.775 -43.117  0.00  0.00    -0.200 OA
BRANCH   6   9
ATOM      9  C   UNL d   1     -56.334 -98.975 -44.059  0.00  0.00     0.104 A 
ATOM     10  C   UNL d   1     -56.606 -99.097 -44.825  0.00  0.00     0.015 A 
ATOM     11  C   UNL d   1     -57.417 -99.048 -44.985  0.00  0.00     0.024 A 
ATOM     12  C   UNL d   1     -57.939 -98.877 -44.368  0.00  0.00     0.127 A 
ATOM     13  C   UNL d   1     -57.659 -98.756 -43.603  0.00  0.00     0.024 A 
ATOM     14  C   UNL d   1     -56.852 -98.804 -43.443  0.00  0.00     0.015 A 
BRANCH  12  15
ATOM     15  N   UNL d   1     -58.757 -98.828 -44.527  0.00  0.00    -0.114 N 
ATOM     16  O   UNL d   1     -59.019 -98.769 -45.311  0.00  0.00    -0.532 OA
ATOM     17  O   UNL d   1     -59.299 -98.836 -43.906  0.00  0.00    -0.532 OA
ENDBRANCH  12  15
ENDBRANCH   6   9
ENDBRANCH   1   6
BRANCH   2  18
ATOM     18  S   UNL d   1     -54.712-100.587 -44.294  0.00  0.00    -0.049 SA
BRANCH  18  19
ATOM     19  C   UNL d   1     -54.917-101.379 -44.402  0.00  0.00     0.040 C 
BRANCH  19  20
ATOM     20  C   UNL d   1     -55.167-101.829 -43.759  0.00  0.00     0.026 A 
ATOM     21  C   UNL d   1     -54.712-101.841 -43.053  0.00  0.00     0.099 A 
ATOM     22  N   UNL d   1     -54.947-102.285 -42.403  0.00  0.00    -0.242 NA
ATOM     23  C   UNL d   1     -55.645-102.723 -42.456  0.00  0.00     0.099 A 
ATOM     24  C   UNL d   1     -56.095-102.715 -43.146  0.00  0.00     0.021 A 
ATOM     25  C   UNL d   1     -55.855-102.267 -43.796  0.00  0.00     0.004 A 
ENDBRANCH  19  20
ENDBRANCH  18  19
ENDBRANCH   2  18
TORSDOF 6
ENDMDL
