MODEL 1
REMARK VINA RESULT:      25.0      0.000      0.000
REMARK  3 active torsions:
REMARK  status: ('A' for Active; 'I' for Inactive)
REMARK    1  A    between atoms: C_10  and  N_4 
REMARK    2  A    between atoms: C_11  and  N_6 
REMARK    3  A    between atoms: C_16  and  C_11 
ROOT
ATOM      1  C   UNL d   1      45.804 -15.947  44.025  0.00  0.00     0.172 A 
ATOM      2  C   UNL d   1      45.354 -15.448  44.503  0.00  0.00     0.113 A 
ATOM      3  N   UNL d   1      46.369 -15.635  43.519  0.00  0.00    -0.206 NA
ATOM      4  N   UNL d   1      45.559 -16.725  44.179  0.00  0.00    -0.212 N 
ATOM      5  C   UNL d   1      45.469 -14.637  44.475  0.00  0.00     0.270 A 
ATOM      6  N   UNL d   1      46.038 -14.317  43.966  0.00  0.00    -0.254 N 
ATOM      7  N   UNL d   1      44.968 -16.694  44.744  0.00  0.00    -0.162 NA
ATOM      8  C   UNL d   1      46.488 -14.816  43.488  0.00  0.00     0.187 A 
ATOM      9  C   UNL d   1      44.839 -15.927  44.944  0.00  0.00     0.129 A 
ATOM     10  O   UNL d   1      45.019 -14.137  44.953  0.00  0.00    -0.266 OA
ENDROOT
BRANCH   4  11
ATOM     11  C   UNL d   1      45.830 -17.419  43.851  0.00  0.00     0.085 A 
ATOM     12  C   UNL d   1      46.289 -17.945  44.307  0.00  0.00     0.021 A 
ATOM     13  C   UNL d   1      46.558 -18.641  43.971  0.00  0.00     0.031 A 
ATOM     14  C   UNL d   1      46.374 -18.827  43.171  0.00  0.00     0.140 A 
ATOM     15  C   UNL d   1      45.927 -18.305  42.737  0.00  0.00     0.031 A 
ATOM     16  F   UNL d   1      46.646 -19.538  42.818  0.00  0.00    -0.204 F 
ATOM     17  C   UNL d   1      45.652 -17.603  43.066  0.00  0.00     0.021 A 
ENDBRANCH   4  11
BRANCH   6  18
ATOM     18  C   UNL d   1      46.161 -13.492  43.932  0.00  0.00     0.104 C 
BRANCH  18  19
ATOM     19  C   UNL d   1      45.701 -13.023  43.423  0.00  0.00     0.099 A 
ATOM     20  N   UNL d   1      45.907 -12.976  42.626  0.00  0.00    -0.242 NA
ATOM     21  C   UNL d   1      45.445 -12.504  42.109  0.00  0.00     0.099 A 
ATOM     22  C   UNL d   1      44.803 -12.105  42.419  0.00  0.00     0.021 A 
ATOM     23  C   UNL d   1      44.598 -12.154  43.224  0.00  0.00     0.003 A 
ATOM     24  C   UNL d   1      45.056 -12.617  43.718  0.00  0.00     0.021 A 
ENDBRANCH  18  19
ENDBRANCH   6  18
TORSDOF 3
ENDMDL
