MODEL 1
REMARK VINA RESULT:      49.2      0.000      0.000
REMARK  3 active torsions:
REMARK  status: ('A' for Active; 'I' for Inactive)
REMARK    1  A    between atoms: C_10  and  C_2 
REMARK    2  A    between atoms: C_13  and  C_6 
REMARK    3  A    between atoms: O_17  and  C_10 
ROOT
ATOM      1  C   UNL d   1     -57.259 -99.087 -44.335  0.00  0.00     0.081 A 
ATOM      2  C   UNL d   1     -58.399 -98.934 -43.501  0.00  0.00     0.106 A 
ATOM      3  C   UNL d   1     -57.918 -99.004 -42.830  0.00  0.00     0.208 A 
ATOM      4  C   UNL d   1     -56.780 -99.157 -43.674  0.00  0.00     0.108 A 
ATOM      5  C   UNL d   1     -56.923 -99.130 -45.098  0.00  0.00     0.281 A 
ATOM      6  C   UNL d   1     -58.066 -98.976 -44.252  0.00  0.00     0.015 A 
ATOM      7  O   UNL d   1     -57.110 -99.115 -42.922  0.00  0.00    -0.288 OA
ATOM      8  N   UNL d   1     -56.109 -99.242 -45.187  0.00  0.00    -0.208 NA
ATOM      9  C   UNL d   1     -55.966 -99.269 -43.762  0.00  0.00     0.044 A 
ATOM     10  C   UNL d   1     -55.629 -99.311 -44.511  0.00  0.00     0.087 A 
ATOM     11  O   UNL d   1     -57.409 -99.059 -45.763  0.00  0.00    -0.265 OA
ATOM     12  N   UNL d   1     -58.258 -98.961 -42.082  0.00  0.00    -0.121 N 
ATOM     13  C   UNL d   1     -54.822 -99.422 -44.603  0.00  0.00     0.021 C 
ENDROOT
BRANCH   6  14
ATOM     14  C   UNL d   1     -58.550 -98.906 -44.920  0.00  0.00     0.004 A 
ATOM     15  C   UNL d   1     -58.202 -98.872 -45.673  0.00  0.00     0.021 A 
ATOM     16  C   UNL d   1     -58.682 -98.802 -46.340  0.00  0.00     0.099 A 
ATOM     17  N   UNL d   1     -59.507 -98.766 -46.257  0.00  0.00    -0.242 NA
ATOM     18  C   UNL d   1     -59.849 -98.801 -45.496  0.00  0.00     0.099 A 
ATOM     19  C   UNL d   1     -59.364 -98.871 -44.831  0.00  0.00     0.021 A 
ENDBRANCH   6  14
BRANCH   2  20
ATOM     20  C   UNL d   1     -59.212 -98.822 -43.416  0.00  0.00     0.299 C 
ATOM     21  O   UNL d   1     -59.700 -98.771 -44.080  0.00  0.00    -0.259 OA
BRANCH  20  22
ATOM     22  O   UNL d   1     -59.545 -98.760 -42.653  0.00  0.00    -0.296 OA
ATOM     23  C   UNL d   1     -59.956 -99.398 -42.342  0.00  0.00     0.185 C 
ENDBRANCH  20  22
ENDBRANCH   2  20
TORSDOF 3
ENDMDL
MODEL 2
REMARK VINA RESULT:      51.3      0.687      3.370
REMARK  3 active torsions:
REMARK  status: ('A' for Active; 'I' for Inactive)
REMARK    1  A    between atoms: C_10  and  C_2 
REMARK    2  A    between atoms: C_13  and  C_6 
REMARK    3  A    between atoms: O_17  and  C_10 
ROOT
ATOM      1  C   UNL d   1     -58.737 -98.923 -43.620  0.00  0.00     0.081 A 
ATOM      2  C   UNL d   1     -58.738 -98.923 -45.042  0.00  0.00     0.106 A 
ATOM      3  C   UNL d   1     -59.560 -98.810 -45.041  0.00  0.00     0.208 A 
ATOM      4  C   UNL d   1     -59.549 -98.812 -43.616  0.00  0.00     0.108 A 
ATOM      5  C   UNL d   1     -58.320 -98.980 -42.899  0.00  0.00     0.281 A 
ATOM      6  C   UNL d   1     -58.330 -98.979 -44.329  0.00  0.00     0.015 A 
ATOM      7  O   UNL d   1     -59.959 -98.756 -44.326  0.00  0.00    -0.288 OA
ATOM      8  N   UNL d   1     -58.727 -98.925 -42.181  0.00  0.00    -0.208 NA
ATOM      9  C   UNL d   1     -59.955 -98.757 -42.898  0.00  0.00     0.044 A 
ATOM     10  C   UNL d   1     -59.551 -98.812 -42.184  0.00  0.00     0.087 A 
ATOM     11  O   UNL d   1     -57.502 -99.092 -42.907  0.00  0.00    -0.265 OA
ATOM     12  N   UNL d   1     -59.961 -98.755 -45.757  0.00  0.00    -0.121 N 
ATOM     13  C   UNL d   1     -59.950 -98.758 -41.470  0.00  0.00     0.021 C 
ENDROOT
BRANCH   6  14
ATOM     14  C   UNL d   1     -57.511 -99.091 -44.334  0.00  0.00     0.004 A 
ATOM     15  C   UNL d   1     -57.158 -99.544 -43.734  0.00  0.00     0.021 A 
ATOM     16  C   UNL d   1     -56.341 -99.658 -43.737  0.00  0.00     0.099 A 
ATOM     17  N   UNL d   1     -55.877 -99.320 -44.336  0.00  0.00    -0.242 NA
ATOM     18  C   UNL d   1     -56.238 -98.866 -44.936  0.00  0.00     0.099 A 
ATOM     19  C   UNL d   1     -57.057 -98.755 -44.928  0.00  0.00     0.021 A 
ENDBRANCH   6  14
BRANCH   2  20
ATOM     20  C   UNL d   1     -58.330 -98.978 -45.756  0.00  0.00     0.299 C 
ATOM     21  O   UNL d   1     -58.710 -99.253 -46.436  0.00  0.00    -0.259 OA
BRANCH  20  22
ATOM     22  O   UNL d   1     -57.526 -98.755 -45.794  0.00  0.00    -0.296 OA
ATOM     23  C   UNL d   1     -57.141 -98.765 -46.518  0.00  0.00     0.185 C 
ENDBRANCH  20  22
ENDBRANCH   2  20
TORSDOF 3
ENDMDL
