MODEL 1
REMARK VINA RESULT:      -8.1      0.000      0.000
REMARK  4 active torsions:
REMARK  status: ('A' for Active; 'I' for Inactive)
REMARK    1  A    between atoms: C_8  and  N_1 
REMARK    2  A    between atoms: C_6  and  C_5 
REMARK    3  A    between atoms: C_7  and  C_6 
REMARK       I    between atoms: N_10  and  C_7 
REMARK    4  A    between atoms: C_13  and  N_10 
ROOT
ATOM      1  N   UNL d   1      52.984  33.977  53.845  0.00  0.00    -0.236 N 
ATOM      2  C   UNL d   1      52.745  34.744  53.662  0.00  0.00     0.298 A 
ATOM      3  C   UNL d   1      52.420  33.456  53.564  0.00  0.00     0.274 A 
ATOM      4  S   UNL d   1      52.023  34.692  53.263  0.00  0.00    -0.022 SA
ATOM      5  C   UNL d   1      51.822  33.894  53.201  0.00  0.00     0.095 A 
ATOM      6  O   UNL d   1      53.148  35.443  53.842  0.00  0.00    -0.259 OA
ATOM      7  O   UNL d   1      52.438  32.635  53.627  0.00  0.00    -0.266 OA
ENDROOT
BRANCH   5   8
ATOM      8  C   UNL d   1      51.142  33.592  52.841  0.00  0.00     0.074 C 
BRANCH   8   9
ATOM      9  C   UNL d   1      50.590  34.104  52.521  0.00  0.00     0.280 C 
ATOM     10  N   UNL d   1      49.822  34.126  52.822  0.00  0.00    -0.208 NA
ATOM     11  O   UNL d   1      50.802  34.599  51.894  0.00  0.00    -0.265 OA
BRANCH  10  12
ATOM     12  C   UNL d   1      49.264  34.642  52.501  0.00  0.00     0.085 A 
ATOM     13  C   UNL d   1      48.998  34.533  51.728  0.00  0.00     0.019 A 
ATOM     14  C   UNL d   1      48.438  35.049  51.406  0.00  0.00     0.002 A 
ATOM     15  C   UNL d   1      48.143  35.675  51.852  0.00  0.00     0.000 A 
ATOM     16  C   UNL d   1      48.420  35.777  52.635  0.00  0.00     0.002 A 
ATOM     17  C   UNL d   1      48.971  35.265  52.947  0.00  0.00     0.019 A 
ENDBRANCH  10  12
ENDBRANCH   8   9
ENDBRANCH   5   8
BRANCH   1  18
ATOM     18  C   UNL d   1      53.675  33.767  54.244  0.00  0.00     0.070 A 
ATOM     19  C   UNL d   1      53.697  33.778  55.071  0.00  0.00     0.018 A 
ATOM     20  C   UNL d   1      54.389  33.567  55.465  0.00  0.00     0.002 A 
ATOM     21  C   UNL d   1      55.056  33.349  55.043  0.00  0.00     0.000 A 
ATOM     22  C   UNL d   1      55.036  33.338  54.212  0.00  0.00     0.002 A 
ATOM     23  C   UNL d   1      54.346  33.548  53.817  0.00  0.00     0.018 A 
ENDBRANCH   1  18
TORSDOF 4
ENDMDL
MODEL 2
REMARK VINA RESULT:      -7.8      2.812      4.874
REMARK  4 active torsions:
REMARK  status: ('A' for Active; 'I' for Inactive)
REMARK    1  A    between atoms: C_8  and  N_1 
REMARK    2  A    between atoms: C_6  and  C_5 
REMARK    3  A    between atoms: C_7  and  C_6 
REMARK       I    between atoms: N_10  and  C_7 
REMARK    4  A    between atoms: C_13  and  N_10 
ROOT
ATOM      1  N   UNL d   1      52.596  33.323  53.452  0.00  0.00    -0.236 N 
ATOM      2  C   UNL d   1      51.843  33.013  53.323  0.00  0.00     0.298 A 
ATOM      3  C   UNL d   1      53.148  32.750  53.263  0.00  0.00     0.274 A 
ATOM      4  S   UNL d   1      51.936  32.238  53.050  0.00  0.00    -0.022 SA
ATOM      5  C   UNL d   1      52.745  32.075  53.012  0.00  0.00     0.095 A 
ATOM      6  O   UNL d   1      51.123  33.400  53.441  0.00  0.00    -0.259 OA
ATOM      7  O   UNL d   1      53.967  32.826  53.311  0.00  0.00    -0.266 OA
ENDROOT
BRANCH   5   8
ATOM      8  C   UNL d   1      53.085  31.363  52.768  0.00  0.00     0.074 C 
BRANCH   8   9
ATOM      9  C   UNL d   1      52.984  30.688  53.220  0.00  0.00     0.280 C 
ATOM     10  N   UNL d   1      53.602  30.409  53.690  0.00  0.00    -0.208 NA
ATOM     11  O   UNL d   1      52.263  30.286  53.206  0.00  0.00    -0.265 OA
BRANCH  10  12
ATOM     12  C   UNL d   1      53.503  29.730  54.147  0.00  0.00     0.085 A 
ATOM     13  C   UNL d   1      53.246  29.790  54.928  0.00  0.00     0.019 A 
ATOM     14  C   UNL d   1      53.147  29.109  55.386  0.00  0.00     0.002 A 
ATOM     15  C   UNL d   1      53.303  28.366  55.067  0.00  0.00     0.000 A 
ATOM     16  C   UNL d   1      53.564  28.315  54.273  0.00  0.00     0.002 A 
ATOM     17  C   UNL d   1      53.660  28.989  53.827  0.00  0.00     0.019 A 
ENDBRANCH  10  12
ENDBRANCH   8   9
ENDBRANCH   5   8
BRANCH   1  18
ATOM     18  C   UNL d   1      52.766  34.082  53.726  0.00  0.00     0.070 A 
ATOM     19  C   UNL d   1      52.777  34.721  53.201  0.00  0.00     0.018 A 
ATOM     20  C   UNL d   1      52.948  35.477  53.481  0.00  0.00     0.002 A 
ATOM     21  C   UNL d   1      53.106  35.600  54.275  0.00  0.00     0.000 A 
ATOM     22  C   UNL d   1      53.095  34.960  54.804  0.00  0.00     0.002 A 
ATOM     23  C   UNL d   1      52.925  34.203  54.527  0.00  0.00     0.018 A 
ENDBRANCH   1  18
TORSDOF 4
ENDMDL
MODEL 3
REMARK VINA RESULT:      -7.5      0.852      5.035
REMARK  4 active torsions:
REMARK  status: ('A' for Active; 'I' for Inactive)
REMARK    1  A    between atoms: C_8  and  N_1 
REMARK    2  A    between atoms: C_6  and  C_5 
REMARK    3  A    between atoms: C_7  and  C_6 
REMARK       I    between atoms: N_10  and  C_7 
REMARK    4  A    between atoms: C_13  and  N_10 
ROOT
ATOM      1  N   UNL d   1      50.588  34.139  52.423  0.00  0.00    -0.236 N 
ATOM      2  C   UNL d   1      51.280  34.229  51.985  0.00  0.00     0.298 A 
ATOM      3  C   UNL d   1      50.754  33.673  53.074  0.00  0.00     0.274 A 
ATOM      4  S   UNL d   1      51.878  33.812  52.373  0.00  0.00    -0.022 SA
ATOM      5  C   UNL d   1      51.552  33.467  53.049  0.00  0.00     0.095 A 
ATOM      6  O   UNL d   1      51.367  34.658  51.284  0.00  0.00    -0.259 OA
ATOM      7  O   UNL d   1      50.220  33.443  53.659  0.00  0.00    -0.266 OA
ENDROOT
BRANCH   5   8
ATOM      8  C   UNL d   1      51.956  33.000  53.598  0.00  0.00     0.074 C 
BRANCH   8   9
ATOM      9  C   UNL d   1      52.641  33.282  53.946  0.00  0.00     0.280 C 
ATOM     10  N   UNL d   1      53.282  32.778  54.066  0.00  0.00    -0.208 NA
ATOM     11  O   UNL d   1      52.689  34.074  54.178  0.00  0.00    -0.265 OA
BRANCH  10  12
ATOM     12  C   UNL d   1      53.973  33.060  54.416  0.00  0.00     0.085 A 
ATOM     13  C   UNL d   1      54.012  33.160  55.234  0.00  0.00     0.019 A 
ATOM     14  C   UNL d   1      54.704  33.443  55.585  0.00  0.00     0.002 A 
ATOM     15  C   UNL d   1      55.361  33.627  55.123  0.00  0.00     0.000 A 
ATOM     16  C   UNL d   1      55.312  33.523  54.295  0.00  0.00     0.002 A 
ATOM     17  C   UNL d   1      54.627  33.244  53.954  0.00  0.00     0.019 A 
ENDBRANCH  10  12
ENDBRANCH   8   9
ENDBRANCH   5   8
BRANCH   1  18
ATOM     18  C   UNL d   1      49.852  34.463  52.238  0.00  0.00     0.070 A 
ATOM     19  C   UNL d   1      49.454  34.225  51.554  0.00  0.00     0.018 A 
ATOM     20  C   UNL d   1      48.719  34.552  51.374  0.00  0.00     0.002 A 
ATOM     21  C   UNL d   1      48.381  35.110  51.869  0.00  0.00     0.000 A 
ATOM     22  C   UNL d   1      48.780  35.350  52.557  0.00  0.00     0.002 A 
ATOM     23  C   UNL d   1      49.514  35.025  52.739  0.00  0.00     0.018 A 
ENDBRANCH   1  18
TORSDOF 4
ENDMDL
