MODEL 1
REMARK VINA RESULT:      45.4      0.000      0.000
REMARK  4 active torsions:
REMARK  status: ('A' for Active; 'I' for Inactive)
REMARK    1  A    between atoms: C_4  and  C_1 
REMARK       I    between atoms: N_6  and  C_4 
REMARK    2  A    between atoms: C_9  and  N_6 
REMARK    3  A    between atoms: C_12  and  N_6 
REMARK    4  A    between atoms: C_17  and  C_12 
ROOT
ATOM      1  C   UNL d   1      14.921  13.790  -2.131  0.00  0.00     0.272 C 
ATOM      2  N   UNL d   1      15.013  13.736  -1.314  0.00  0.00    -0.258 N 
ATOM      3  O   UNL d   1      15.314  14.370  -2.552  0.00  0.00    -0.266 OA
ENDROOT
BRANCH   2   4
ATOM      4  C   UNL d   1      14.614  13.144  -0.876  0.00  0.00     0.150 A 
ATOM      5  N   UNL d   1      14.928  12.371  -0.865  0.00  0.00    -0.227 NA
ATOM      6  C   UNL d   1      14.530  11.783  -0.428  0.00  0.00     0.101 A 
ATOM      7  C   UNL d   1      13.839  11.968  -0.016  0.00  0.00     0.021 A 
ATOM      8  C   UNL d   1      13.533  12.738  -0.032  0.00  0.00     0.005 A 
ATOM      9  C   UNL d   1      13.920  13.326  -0.461  0.00  0.00     0.037 A 
ENDBRANCH   2   4
BRANCH   2  10
ATOM     10  C   UNL d   1      15.507  14.272  -0.909  0.00  0.00     0.084 C 
BRANCH  10  11
ATOM     11  C   UNL d   1      15.292  15.062  -0.837  0.00  0.00     0.018 A 
ATOM     12  C   UNL d   1      15.356  15.568  -1.486  0.00  0.00     0.002 A 
ATOM     13  C   UNL d   1      15.140  16.358  -1.411  0.00  0.00     0.000 A 
ATOM     14  C   UNL d   1      14.861  16.645  -0.694  0.00  0.00     0.000 A 
ATOM     15  C   UNL d   1      14.797  16.132  -0.036  0.00  0.00     0.000 A 
ATOM     16  C   UNL d   1      15.014  15.345  -0.119  0.00  0.00     0.002 A 
ENDBRANCH  10  11
ENDBRANCH   2  10
BRANCH   1  17
ATOM     17  C   UNL d   1      14.426  13.249  -2.519  0.00  0.00     0.132 A 
ATOM     18  C   UNL d   1      14.082  13.463  -3.240  0.00  0.00     0.272 A 
ATOM     19  N   UNL d   1      13.584  12.931  -3.639  0.00  0.00    -0.265 N 
ATOM     20  O   UNL d   1      14.228  14.204  -3.571  0.00  0.00    -0.266 OA
ATOM     21  C   UNL d   1      13.173  12.983  -4.345  0.00  0.00     0.123 A 
ATOM     22  C   UNL d   1      13.438  12.189  -3.308  0.00  0.00     0.181 A 
ATOM     23  C   UNL d   1      12.769  12.280  -4.461  0.00  0.00     0.043 A 
ATOM     24  S   UNL d   1      12.931  11.780  -3.815  0.00  0.00    -0.049 SA
ATOM     25  N   UNL d   1      13.780  11.976  -2.590  0.00  0.00    -0.220 NA
ATOM     26  C   UNL d   1      14.276  12.506  -2.194  0.00  0.00     0.111 A 
ENDBRANCH   1  17
TORSDOF 4
ENDMDL
MODEL 2
REMARK VINA RESULT:      46.3      1.461      3.601
REMARK  4 active torsions:
REMARK  status: ('A' for Active; 'I' for Inactive)
REMARK    1  A    between atoms: C_4  and  C_1 
REMARK       I    between atoms: N_6  and  C_4 
REMARK    2  A    between atoms: C_9  and  N_6 
REMARK    3  A    between atoms: C_12  and  N_6 
REMARK    4  A    between atoms: C_17  and  C_12 
ROOT
ATOM      1  C   UNL d   1      13.783  13.426  -1.974  0.00  0.00     0.272 C 
ATOM      2  N   UNL d   1      13.913  12.619  -1.880  0.00  0.00    -0.258 N 
ATOM      3  O   UNL d   1      13.245  13.696  -2.527  0.00  0.00    -0.266 OA
ENDROOT
BRANCH   2   4
ATOM      4  C   UNL d   1      14.463  12.335  -1.315  0.00  0.00     0.150 A 
ATOM      5  N   UNL d   1      15.274  12.332  -1.510  0.00  0.00    -0.227 NA
ATOM      6  C   UNL d   1      15.820  12.049  -0.947  0.00  0.00     0.101 A 
ATOM      7  C   UNL d   1      15.557  11.779  -0.212  0.00  0.00     0.021 A 
ATOM      8  C   UNL d   1      14.749  11.786  -0.025  0.00  0.00     0.005 A 
ATOM      9  C   UNL d   1      14.202  12.063  -0.577  0.00  0.00     0.037 A 
ENDBRANCH   2   4
BRANCH   2  10
ATOM     10  C   UNL d   1      13.497  12.067  -2.348  0.00  0.00     0.084 C 
BRANCH  10  11
ATOM     11  C   UNL d   1      13.426  12.181  -3.159  0.00  0.00     0.018 A 
ATOM     12  C   UNL d   1      13.927  11.782  -3.678  0.00  0.00     0.002 A 
ATOM     13  C   UNL d   1      13.854  11.898  -4.489  0.00  0.00     0.000 A 
ATOM     14  C   UNL d   1      13.283  12.409  -4.784  0.00  0.00     0.000 A 
ATOM     15  C   UNL d   1      12.774  12.815  -4.257  0.00  0.00     0.000 A 
ATOM     16  C   UNL d   1      12.855  12.693  -3.450  0.00  0.00     0.002 A 
ENDBRANCH  10  11
ENDBRANCH   2  10
BRANCH   1  17
ATOM     17  C   UNL d   1      14.205  13.961  -1.501  0.00  0.00     0.132 A 
ATOM     18  C   UNL d   1      14.443  14.685  -1.823  0.00  0.00     0.272 A 
ATOM     19  N   UNL d   1      14.866  15.230  -1.361  0.00  0.00    -0.265 N 
ATOM     20  O   UNL d   1      14.264  14.874  -2.606  0.00  0.00    -0.266 OA
ATOM     21  C   UNL d   1      15.169  15.973  -1.522  0.00  0.00     0.123 A 
ATOM     22  C   UNL d   1      15.045  15.040  -0.578  0.00  0.00     0.181 A 
ATOM     23  C   UNL d   1      15.538  16.253  -0.846  0.00  0.00     0.043 A 
ATOM     24  S   UNL d   1      15.464  15.674  -0.253  0.00  0.00    -0.049 SA
ATOM     25  N   UNL d   1      14.809  14.321  -0.256  0.00  0.00    -0.220 NA
ATOM     26  C   UNL d   1      14.388  13.779  -0.717  0.00  0.00     0.111 A 
ENDBRANCH   1  17
TORSDOF 4
ENDMDL
MODEL 3
REMARK VINA RESULT:      46.5      2.100      3.589
REMARK  4 active torsions:
REMARK  status: ('A' for Active; 'I' for Inactive)
REMARK    1  A    between atoms: C_4  and  C_1 
REMARK       I    between atoms: N_6  and  C_4 
REMARK    2  A    between atoms: C_9  and  N_6 
REMARK    3  A    between atoms: C_12  and  N_6 
REMARK    4  A    between atoms: C_17  and  C_12 
ROOT
ATOM      1  C   UNL d   1      13.327  13.249  -2.873  0.00  0.00     0.272 C 
ATOM      2  N   UNL d   1      13.351  12.454  -3.087  0.00  0.00    -0.258 N 
ATOM      3  O   UNL d   1      13.242  13.463  -2.090  0.00  0.00    -0.266 OA
ENDROOT
BRANCH   2   4
ATOM      4  C   UNL d   1      13.438  12.227  -3.888  0.00  0.00     0.150 A 
ATOM      5  N   UNL d   1      14.206  12.112  -4.192  0.00  0.00    -0.227 NA
ATOM      6  C   UNL d   1      14.292  11.885  -4.990  0.00  0.00     0.101 A 
ATOM      7  C   UNL d   1      13.625  11.779  -5.465  0.00  0.00     0.021 A 
ATOM      8  C   UNL d   1      12.865  11.896  -5.156  0.00  0.00     0.005 A 
ATOM      9  C   UNL d   1      12.771  12.119  -4.368  0.00  0.00     0.037 A 
ENDBRANCH   2   4
BRANCH   2  10
ATOM     10  C   UNL d   1      13.288  11.860  -2.505  0.00  0.00     0.084 C 
BRANCH  10  11
ATOM     11  C   UNL d   1      13.790  11.861  -1.853  0.00  0.00     0.018 A 
ATOM     12  C   UNL d   1      14.605  11.798  -1.960  0.00  0.00     0.002 A 
ATOM     13  C   UNL d   1      15.104  11.800  -1.306  0.00  0.00     0.000 A 
ATOM     14  C   UNL d   1      14.794  11.865  -0.549  0.00  0.00     0.000 A 
ATOM     15  C   UNL d   1      13.967  11.929  -0.441  0.00  0.00     0.000 A 
ATOM     16  C   UNL d   1      13.476  11.926  -1.098  0.00  0.00     0.002 A 
ENDBRANCH  10  11
ENDBRANCH   2  10
BRANCH   1  17
ATOM     17  C   UNL d   1      13.391  13.828  -3.464  0.00  0.00     0.132 A 
ATOM     18  C   UNL d   1      13.855  14.498  -3.324  0.00  0.00     0.272 A 
ATOM     19  N   UNL d   1      13.928  15.086  -3.907  0.00  0.00    -0.265 N 
ATOM     20  O   UNL d   1      14.250  14.591  -2.606  0.00  0.00    -0.266 OA
ATOM     21  C   UNL d   1      14.338  15.794  -3.929  0.00  0.00     0.123 A 
ATOM     22  C   UNL d   1      13.532  14.992  -4.625  0.00  0.00     0.181 A 
ATOM     23  C   UNL d   1      14.203  16.147  -4.656  0.00  0.00     0.043 A 
ATOM     24  S   UNL d   1      13.700  15.650  -5.095  0.00  0.00    -0.049 SA
ATOM     25  N   UNL d   1      13.070  14.326  -4.765  0.00  0.00    -0.220 NA
ATOM     26  C   UNL d   1      12.998  13.742  -4.184  0.00  0.00     0.111 A 
ENDBRANCH   1  17
TORSDOF 4
ENDMDL
