MODEL 1
REMARK VINA RESULT:      -5.5      0.000      0.000
REMARK  4 active torsions:
REMARK  status: ('A' for Active; 'I' for Inactive)
REMARK    1  A    between atoms: C_6  and  C_1 
REMARK       I    between atoms: N_7  and  C_1 
REMARK    2  A    between atoms: N_3  and  C_5 
REMARK    3  A    between atoms: C_19  and  N_7 
REMARK    4  A    between atoms: C_8  and  C_10 
ROOT
ATOM      1  C   UNL d   1     -47.317  12.555  22.909  0.00  0.00     0.019 A 
ATOM      2  C   UNL d   1     -48.871  12.374  23.434  0.00  0.00     0.085 A 
ATOM      3  C   UNL d   1     -47.701  13.172  23.285  0.00  0.00     0.003 A 
ATOM      4  C   UNL d   1     -47.711  11.839  22.793  0.00  0.00     0.003 A 
ATOM      5  C   UNL d   1     -48.478  13.081  23.547  0.00  0.00     0.019 A 
ATOM      6  C   UNL d   1     -48.488  11.748  23.056  0.00  0.00     0.019 A 
ENDROOT
BRANCH   1   7
ATOM      7  C   UNL d   1     -46.540  12.646  22.647  0.00  0.00     0.103 A 
ATOM      8  N   UNL d   1     -45.925  12.272  23.043  0.00  0.00    -0.147 NA
ATOM      9  N   UNL d   1     -45.148  12.362  22.780  0.00  0.00    -0.130 NA
ATOM     10  C   UNL d   1     -44.987  12.827  22.121  0.00  0.00     0.169 A 
ATOM     11  C   UNL d   1     -45.604  13.203  21.722  0.00  0.00     0.041 A 
ATOM     12  C   UNL d   1     -46.381  13.113  21.985  0.00  0.00     0.024 A 
BRANCH  10  13
ATOM     13  N   UNL d   1     -44.210  12.918  21.859  0.00  0.00    -0.288 N 
ATOM     14  C   UNL d   1     -43.933  13.660  21.641  0.00  0.00     0.082 A 
ATOM     15  C   UNL d   1     -43.156  13.751  21.378  0.00  0.00     0.019 A 
ATOM     16  C   UNL d   1     -42.656  13.099  21.333  0.00  0.00     0.003 A 
ATOM     17  C   UNL d   1     -42.934  12.353  21.552  0.00  0.00     0.019 A 
ATOM     18  C   UNL d   1     -41.881  13.198  21.070  0.00  0.00     0.000 C 
ATOM     19  C   UNL d   1     -43.711  12.262  21.815  0.00  0.00     0.082 A 
ENDBRANCH  10  13
ENDBRANCH   1   7
BRANCH   2  20
ATOM     20  N   UNL d   1     -49.648  12.283  23.697  0.00  0.00    -0.206 NA
ATOM     21  C   UNL d   1     -50.276  12.481  23.205  0.00  0.00     0.302 C 
ATOM     22  O   UNL d   1     -51.056  12.390  23.468  0.00  0.00    -0.263 OA
BRANCH  21  23
ATOM     23  C   UNL d   1     -50.127  12.770  22.446  0.00  0.00     0.158 A 
ATOM     24  O   UNL d   1     -50.160  13.582  22.300  0.00  0.00    -0.300 OA
ATOM     25  C   UNL d   1     -49.989  13.707  21.497  0.00  0.00     0.123 A 
ATOM     26  C   UNL d   1     -49.851  12.971  21.153  0.00  0.00     0.029 A 
ATOM     27  C   UNL d   1     -49.937  12.400  21.737  0.00  0.00     0.032 A 
ENDBRANCH  21  23
ENDBRANCH   2  20
TORSDOF 4
ENDMDL
MODEL 2
REMARK VINA RESULT:      -5.4      8.471      9.810
REMARK  4 active torsions:
REMARK  status: ('A' for Active; 'I' for Inactive)
REMARK    1  A    between atoms: C_6  and  C_1 
REMARK       I    between atoms: N_7  and  C_1 
REMARK    2  A    between atoms: N_3  and  C_5 
REMARK    3  A    between atoms: C_19  and  N_7 
REMARK    4  A    between atoms: C_8  and  C_10 
ROOT
ATOM      1  C   UNL d   1     -38.677  15.277  19.941  0.00  0.00     0.019 A 
ATOM      2  C   UNL d   1     -38.887  15.706  21.520  0.00  0.00     0.085 A 
ATOM      3  C   UNL d   1     -38.042  15.537  20.386  0.00  0.00     0.003 A 
ATOM      4  C   UNL d   1     -39.426  15.230  20.285  0.00  0.00     0.003 A 
ATOM      5  C   UNL d   1     -38.147  15.752  21.175  0.00  0.00     0.019 A 
ATOM      6  C   UNL d   1     -39.531  15.445  21.075  0.00  0.00     0.019 A 
ENDROOT
BRANCH   1   7
ATOM      7  C   UNL d   1     -38.572  15.063  19.151  0.00  0.00     0.103 A 
ATOM      8  N   UNL d   1     -38.930  15.500  18.554  0.00  0.00    -0.147 NA
ATOM      9  N   UNL d   1     -38.825  15.285  17.764  0.00  0.00    -0.130 NA
ATOM     10  C   UNL d   1     -38.362  14.634  17.572  0.00  0.00     0.169 A 
ATOM     11  C   UNL d   1     -38.002  14.193  18.170  0.00  0.00     0.041 A 
ATOM     12  C   UNL d   1     -38.107  14.408  18.960  0.00  0.00     0.024 A 
BRANCH  10  13
ATOM     13  N   UNL d   1     -38.257  14.419  16.782  0.00  0.00    -0.288 N 
ATOM     14  C   UNL d   1     -38.336  13.633  16.554  0.00  0.00     0.082 A 
ATOM     15  C   UNL d   1     -38.231  13.419  15.765  0.00  0.00     0.019 A 
ATOM     16  C   UNL d   1     -38.047  13.990  15.203  0.00  0.00     0.003 A 
ATOM     17  C   UNL d   1     -37.968  14.780  15.430  0.00  0.00     0.019 A 
ATOM     18  C   UNL d   1     -37.944  13.767  14.415  0.00  0.00     0.000 C 
ATOM     19  C   UNL d   1     -38.073  14.994  16.220  0.00  0.00     0.082 A 
ENDBRANCH  10  13
ENDBRANCH   1   7
BRANCH   2  20
ATOM     20  N   UNL d   1     -38.992  15.921  22.309  0.00  0.00    -0.206 NA
ATOM     21  C   UNL d   1     -38.917  15.358  22.904  0.00  0.00     0.302 C 
ATOM     22  O   UNL d   1     -39.022  15.574  23.697  0.00  0.00    -0.263 OA
BRANCH  21  23
ATOM     23  C   UNL d   1     -38.736  14.576  22.709  0.00  0.00     0.158 A 
ATOM     24  O   UNL d   1     -37.960  14.302  22.780  0.00  0.00    -0.300 OA
ATOM     25  C   UNL d   1     -37.946  13.505  22.548  0.00  0.00     0.123 A 
ATOM     26  C   UNL d   1     -38.715  13.293  22.335  0.00  0.00     0.029 A 
ATOM     27  C   UNL d   1     -39.194  13.952  22.435  0.00  0.00     0.032 A 
ENDBRANCH  21  23
ENDBRANCH   2  20
TORSDOF 4
ENDMDL
MODEL 3
REMARK VINA RESULT:      -5.0      7.474      9.784
REMARK  4 active torsions:
REMARK  status: ('A' for Active; 'I' for Inactive)
REMARK    1  A    between atoms: C_6  and  C_1 
REMARK       I    between atoms: N_7  and  C_1 
REMARK    2  A    between atoms: N_3  and  C_5 
REMARK    3  A    between atoms: C_19  and  N_7 
REMARK    4  A    between atoms: C_8  and  C_10 
ROOT
ATOM      1  C   UNL d   1     -38.352  14.936  19.201  0.00  0.00     0.019 A 
ATOM      2  C   UNL d   1     -38.469  15.322  20.801  0.00  0.00     0.085 A 
ATOM      3  C   UNL d   1     -38.311  14.351  19.771  0.00  0.00     0.003 A 
ATOM      4  C   UNL d   1     -38.452  15.723  19.429  0.00  0.00     0.003 A 
ATOM      5  C   UNL d   1     -38.370  14.544  20.571  0.00  0.00     0.019 A 
ATOM      6  C   UNL d   1     -38.511  15.916  20.229  0.00  0.00     0.019 A 
ENDROOT
BRANCH   1   7
ATOM      7  C   UNL d   1     -38.293  14.742  18.401  0.00  0.00     0.103 A 
ATOM      8  N   UNL d   1     -38.121  15.325  17.848  0.00  0.00    -0.147 NA
ATOM      9  N   UNL d   1     -38.063  15.131  17.048  0.00  0.00    -0.130 NA
ATOM     10  C   UNL d   1     -38.175  14.355  16.801  0.00  0.00     0.169 A 
ATOM     11  C   UNL d   1     -38.348  13.769  17.357  0.00  0.00     0.041 A 
ATOM     12  C   UNL d   1     -38.406  13.962  18.156  0.00  0.00     0.024 A 
BRANCH  10  13
ATOM     13  N   UNL d   1     -38.116  14.162  16.002  0.00  0.00    -0.288 N 
ATOM     14  C   UNL d   1     -38.072  13.374  15.770  0.00  0.00     0.082 A 
ATOM     15  C   UNL d   1     -38.013  13.181  14.970  0.00  0.00     0.019 A 
ATOM     16  C   UNL d   1     -37.999  13.775  14.402  0.00  0.00     0.003 A 
ATOM     17  C   UNL d   1     -38.044  14.566  14.633  0.00  0.00     0.019 A 
ATOM     18  C   UNL d   1     -37.940  13.573  13.604  0.00  0.00     0.000 C 
ATOM     19  C   UNL d   1     -38.103  14.760  15.433  0.00  0.00     0.082 A 
ENDBRANCH  10  13
ENDBRANCH   1   7
BRANCH   2  20
ATOM     20  N   UNL d   1     -38.528  15.516  21.601  0.00  0.00    -0.206 NA
ATOM     21  C   UNL d   1     -39.259  15.502  21.976  0.00  0.00     0.302 C 
ATOM     22  O   UNL d   1     -39.318  15.696  22.780  0.00  0.00    -0.263 OA
BRANCH  21  23
ATOM     23  C   UNL d   1     -39.936  15.293  21.551  0.00  0.00     0.158 A 
ATOM     24  O   UNL d   1     -40.416  15.881  21.226  0.00  0.00    -0.300 OA
ATOM     25  C   UNL d   1     -41.048  15.510  20.834  0.00  0.00     0.123 A 
ATOM     26  C   UNL d   1     -40.952  14.695  20.921  0.00  0.00     0.029 A 
ATOM     27  C   UNL d   1     -40.270  14.567  21.360  0.00  0.00     0.032 A 
ENDBRANCH  21  23
ENDBRANCH   2  20
TORSDOF 4
ENDMDL
MODEL 4
REMARK VINA RESULT:      -4.2      1.737      2.437
REMARK  4 active torsions:
REMARK  status: ('A' for Active; 'I' for Inactive)
REMARK    1  A    between atoms: C_6  and  C_1 
REMARK       I    between atoms: N_7  and  C_1 
REMARK    2  A    between atoms: N_3  and  C_5 
REMARK    3  A    between atoms: C_19  and  N_7 
REMARK    4  A    between atoms: C_8  and  C_10 
ROOT
ATOM      1  C   UNL d   1     -47.850  13.624  22.855  0.00  0.00     0.019 A 
ATOM      2  C   UNL d   1     -49.074  14.715  22.667  0.00  0.00     0.085 A 
ATOM      3  C   UNL d   1     -48.303  13.852  23.498  0.00  0.00     0.003 A 
ATOM      4  C   UNL d   1     -48.008  13.943  22.110  0.00  0.00     0.003 A 
ATOM      5  C   UNL d   1     -48.914  14.398  23.404  0.00  0.00     0.019 A 
ATOM      6  C   UNL d   1     -48.620  14.488  22.016  0.00  0.00     0.019 A 
ENDROOT
BRANCH   1   7
ATOM      7  C   UNL d   1     -47.239  13.079  22.949  0.00  0.00     0.103 A 
ATOM      8  N   UNL d   1     -46.460  13.337  22.995  0.00  0.00    -0.147 NA
ATOM      9  N   UNL d   1     -45.848  12.791  23.089  0.00  0.00    -0.130 NA
ATOM     10  C   UNL d   1     -46.015  11.988  23.138  0.00  0.00     0.169 A 
ATOM     11  C   UNL d   1     -46.797  11.727  23.092  0.00  0.00     0.041 A 
ATOM     12  C   UNL d   1     -47.409  12.273  22.998  0.00  0.00     0.024 A 
BRANCH  10  13
ATOM     13  N   UNL d   1     -45.404  11.442  23.232  0.00  0.00    -0.288 N 
ATOM     14  C   UNL d   1     -45.546  10.723  23.604  0.00  0.00     0.082 A 
ATOM     15  C   UNL d   1     -44.934  10.178  23.698  0.00  0.00     0.019 A 
ATOM     16  C   UNL d   1     -44.180  10.351  23.420  0.00  0.00     0.003 A 
ATOM     17  C   UNL d   1     -44.036  11.073  23.045  0.00  0.00     0.019 A 
ATOM     18  C   UNL d   1     -43.574   9.800  23.518  0.00  0.00     0.000 C 
ATOM     19  C   UNL d   1     -44.648  11.618  22.951  0.00  0.00     0.082 A 
ENDBRANCH  10  13
ENDBRANCH   1   7
BRANCH   2  20
ATOM     20  N   UNL d   1     -49.685  15.261  22.573  0.00  0.00    -0.206 NA
ATOM     21  C   UNL d   1     -50.448  15.002  22.406  0.00  0.00     0.302 C 
ATOM     22  O   UNL d   1     -51.062  15.550  22.311  0.00  0.00    -0.263 OA
BRANCH  21  23
ATOM     23  C   UNL d   1     -50.600  14.194  22.332  0.00  0.00     0.158 A 
ATOM     24  O   UNL d   1     -50.937  13.778  22.961  0.00  0.00    -0.300 OA
ATOM     25  C   UNL d   1     -51.025  12.985  22.728  0.00  0.00     0.123 A 
ATOM     26  C   UNL d   1     -50.740  12.918  21.957  0.00  0.00     0.029 A 
ATOM     27  C   UNL d   1     -50.481  13.660  21.719  0.00  0.00     0.032 A 
ENDBRANCH  21  23
ENDBRANCH   2  20
TORSDOF 4
ENDMDL
MODEL 5
REMARK VINA RESULT:      -2.7      4.742      8.417
REMARK  4 active torsions:
REMARK  status: ('A' for Active; 'I' for Inactive)
REMARK    1  A    between atoms: C_6  and  C_1 
REMARK       I    between atoms: N_7  and  C_1 
REMARK    2  A    between atoms: N_3  and  C_5 
REMARK    3  A    between atoms: C_19  and  N_7 
REMARK    4  A    between atoms: C_8  and  C_10 
ROOT
ATOM      1  C   UNL d   1     -40.473  14.440  19.837  0.00  0.00     0.019 A 
ATOM      2  C   UNL d   1     -39.208  15.152  19.052  0.00  0.00     0.085 A 
ATOM      3  C   UNL d   1     -39.826  13.995  19.608  0.00  0.00     0.003 A 
ATOM      4  C   UNL d   1     -40.491  15.249  19.673  0.00  0.00     0.003 A 
ATOM      5  C   UNL d   1     -39.193  14.352  19.215  0.00  0.00     0.019 A 
ATOM      6  C   UNL d   1     -39.859  15.605  19.281  0.00  0.00     0.019 A 
ENDROOT
BRANCH   1   7
ATOM      7  C   UNL d   1     -41.105  14.084  20.229  0.00  0.00     0.103 A 
ATOM      8  N   UNL d   1     -41.659  13.647  19.806  0.00  0.00    -0.147 NA
ATOM      9  N   UNL d   1     -42.291  13.291  20.199  0.00  0.00    -0.130 NA
ATOM     10  C   UNL d   1     -42.370  13.371  21.013  0.00  0.00     0.169 A 
ATOM     11  C   UNL d   1     -41.814  13.809  21.439  0.00  0.00     0.041 A 
ATOM     12  C   UNL d   1     -41.182  14.166  21.046  0.00  0.00     0.024 A 
BRANCH  10  13
ATOM     13  N   UNL d   1     -43.002  13.015  21.405  0.00  0.00    -0.288 N 
ATOM     14  C   UNL d   1     -43.756  13.338  21.351  0.00  0.00     0.082 A 
ATOM     15  C   UNL d   1     -44.388  12.982  21.743  0.00  0.00     0.019 A 
ATOM     16  C   UNL d   1     -44.267  12.302  22.190  0.00  0.00     0.003 A 
ATOM     17  C   UNL d   1     -43.510  11.977  22.246  0.00  0.00     0.019 A 
ATOM     18  C   UNL d   1     -44.905  11.952  22.579  0.00  0.00     0.000 C 
ATOM     19  C   UNL d   1     -42.878  12.333  21.853  0.00  0.00     0.082 A 
ENDBRANCH  10  13
ENDBRANCH   1   7
BRANCH   2  20
ATOM     20  N   UNL d   1     -38.576  15.509  18.660  0.00  0.00    -0.206 NA
ATOM     21  C   UNL d   1     -38.577  15.564  17.840  0.00  0.00     0.302 C 
ATOM     22  O   UNL d   1     -37.941  15.922  17.446  0.00  0.00    -0.263 OA
BRANCH  21  23
ATOM     23  C   UNL d   1     -39.213  15.262  17.408  0.00  0.00     0.158 A 
ATOM     24  O   UNL d   1     -39.815  15.766  17.154  0.00  0.00    -0.300 OA
ATOM     25  C   UNL d   1     -40.373  15.311  16.739  0.00  0.00     0.123 A 
ATOM     26  C   UNL d   1     -40.110  14.529  16.741  0.00  0.00     0.029 A 
ATOM     27  C   UNL d   1     -39.399  14.504  17.152  0.00  0.00     0.032 A 
ENDBRANCH  21  23
ENDBRANCH   2  20
TORSDOF 4
ENDMDL
