MODEL 1
REMARK VINA RESULT:      -2.5      0.000      0.000
REMARK  5 active torsions:
REMARK  status: ('A' for Active; 'I' for Inactive)
REMARK    1  A    between atoms: N_2  and  S_1 
REMARK    2  A    between atoms: C_3  and  S_1 
REMARK    3  A    between atoms: C_15  and  C_11 
REMARK    4  A    between atoms: O_17  and  C_12 
REMARK    5  A    between atoms: C_21  and  O_17 
ROOT
ATOM      1  C   UNL d   1      58.798  -0.816  29.672  0.00  0.00     0.128 A 
ATOM      2  C   UNL d   1      58.199  -0.826  30.237  0.00  0.00     0.015 A 
ATOM      3  C   UNL d   1      57.906  -0.116  30.540  0.00  0.00     0.001 A 
ATOM      4  C   UNL d   1      59.104  -0.098  29.411  0.00  0.00     0.112 A 
ATOM      5  C   UNL d   1      58.212   0.602  30.279  0.00  0.00     0.002 A 
ATOM      6  C   UNL d   1      58.811   0.611  29.715  0.00  0.00     0.025 A 
ENDROOT
BRANCH   1   7
ATOM      7  S   UNL d   1      59.091  -1.525  29.369  0.00  0.00     0.288 S 
ATOM      8  O   UNL d   1      59.477  -1.671  30.084  0.00  0.00    -0.198 OA
ATOM      9  O   UNL d   1      58.705  -1.379  28.655  0.00  0.00    -0.198 OA
BRANCH   7  10
ATOM     10  N   UNL d   1      59.384  -2.234  29.066  0.00  0.00    -0.152 N 
ATOM     11  N   UNL d   1      60.161  -2.500  29.114  0.00  0.00    -0.155 NA
ATOM     12  C   UNL d   1      60.211  -3.232  28.740  0.00  0.00     0.104 A 
ATOM     13  C   UNL d   1      60.892  -3.693  28.661  0.00  0.00     0.022 C 
ATOM     14  C   UNL d   1      59.460  -3.422  28.458  0.00  0.00     0.041 A 
ATOM     15  C   UNL d   1      58.950  -2.806  28.659  0.00  0.00     0.096 A 
ATOM     16  C   UNL d   1      58.145  -2.768  28.485  0.00  0.00     0.022 C 
ENDBRANCH   7  10
ENDBRANCH   1   7
BRANCH   4  17
ATOM     17  O   UNL d   1      59.706  -0.087  28.845  0.00  0.00    -0.304 OA
BRANCH  17  18
ATOM     18  C   UNL d   1      60.038   0.629  28.609  0.00  0.00     0.123 C 
ATOM     19  C   UNL d   1      60.852   0.682  28.456  0.00  0.00     0.029 C 
ENDBRANCH  17  18
ENDBRANCH   4  17
BRANCH   3  20
ATOM     20  C   UNL d   1      57.306  -0.125  31.104  0.00  0.00     0.000 C 
ATOM     21  C   UNL d   1      57.050  -0.845  31.429  0.00  0.00     0.000 C 
ATOM     22  C   UNL d   1      56.959   0.582  31.349  0.00  0.00     0.000 C 
ENDBRANCH   3  20
TORSDOF 5
ENDMDL
MODEL 2
REMARK VINA RESULT:      -2.0      1.621      2.434
REMARK  5 active torsions:
REMARK  status: ('A' for Active; 'I' for Inactive)
REMARK    1  A    between atoms: N_2  and  S_1 
REMARK    2  A    between atoms: C_3  and  S_1 
REMARK    3  A    between atoms: C_15  and  C_11 
REMARK    4  A    between atoms: O_17  and  C_12 
REMARK    5  A    between atoms: C_21  and  O_17 
ROOT
ATOM      1  C   UNL d   1      57.808  -0.114  31.243  0.00  0.00     0.128 A 
ATOM      2  C   UNL d   1      57.041  -0.218  31.523  0.00  0.00     0.015 A 
ATOM      3  C   UNL d   1      56.822   0.095  32.254  0.00  0.00     0.001 A 
ATOM      4  C   UNL d   1      58.357   0.301  31.695  0.00  0.00     0.112 A 
ATOM      5  C   UNL d   1      57.370   0.511  32.706  0.00  0.00     0.002 A 
ATOM      6  C   UNL d   1      58.137   0.614  32.426  0.00  0.00     0.025 A 
ENDROOT
BRANCH   1   7
ATOM      7  S   UNL d   1      58.027  -0.427  30.512  0.00  0.00     0.288 S 
ATOM      8  O   UNL d   1      57.784   0.269  30.142  0.00  0.00    -0.198 OA
ATOM      9  O   UNL d   1      58.271  -1.123  30.883  0.00  0.00    -0.198 OA
BRANCH   7  10
ATOM     10  N   UNL d   1      58.247  -0.740  29.781  0.00  0.00    -0.152 N 
ATOM     11  N   UNL d   1      58.516  -1.504  29.639  0.00  0.00    -0.155 NA
ATOM     12  C   UNL d   1      58.672  -1.582  28.835  0.00  0.00     0.104 A 
ATOM     13  C   UNL d   1      58.952  -2.261  28.456  0.00  0.00     0.022 C 
ATOM     14  C   UNL d   1      58.497  -0.861  28.474  0.00  0.00     0.041 A 
ATOM     15  C   UNL d   1      58.235  -0.342  29.058  0.00  0.00     0.096 A 
ATOM     16  C   UNL d   1      58.001   0.439  28.940  0.00  0.00     0.022 C 
ENDBRANCH   7  10
ENDBRANCH   1   7
BRANCH   4  17
ATOM     17  O   UNL d   1      59.128   0.406  31.416  0.00  0.00    -0.304 OA
BRANCH  17  18
ATOM     18  C   UNL d   1      59.716   0.682  31.923  0.00  0.00     0.123 C 
ATOM     19  C   UNL d   1      60.509   0.681  31.681  0.00  0.00     0.029 C 
ENDBRANCH  17  18
ENDBRANCH   4  17
BRANCH   3  20
ATOM     20  C   UNL d   1      56.054  -0.008  32.534  0.00  0.00     0.000 C 
ATOM     21  C   UNL d   1      55.794  -0.762  32.767  0.00  0.00     0.000 C 
ATOM     22  C   UNL d   1      55.542   0.637  32.585  0.00  0.00     0.000 C 
ENDBRANCH   3  20
TORSDOF 5
ENDMDL
MODEL 3
REMARK VINA RESULT:      -1.1      1.290      3.432
REMARK  5 active torsions:
REMARK  status: ('A' for Active; 'I' for Inactive)
REMARK    1  A    between atoms: N_2  and  S_1 
REMARK    2  A    between atoms: C_3  and  S_1 
REMARK    3  A    between atoms: C_15  and  C_11 
REMARK    4  A    between atoms: O_17  and  C_12 
REMARK    5  A    between atoms: C_21  and  O_17 
ROOT
ATOM      1  C   UNL d   1      58.900  -1.354  29.463  0.00  0.00     0.128 A 
ATOM      2  C   UNL d   1      58.637  -2.114  29.288  0.00  0.00     0.015 A 
ATOM      3  C   UNL d   1      59.116  -2.627  28.854  0.00  0.00     0.001 A 
ATOM      4  C   UNL d   1      59.641  -1.106  29.205  0.00  0.00     0.112 A 
ATOM      5  C   UNL d   1      59.858  -2.379  28.595  0.00  0.00     0.002 A 
ATOM      6  C   UNL d   1      60.120  -1.619  28.771  0.00  0.00     0.025 A 
ENDROOT
BRANCH   1   7
ATOM      7  S   UNL d   1      58.421  -0.841  29.898  0.00  0.00     0.288 S 
ATOM      8  O   UNL d   1      58.700  -1.174  30.599  0.00  0.00    -0.198 OA
ATOM      9  O   UNL d   1      58.142  -0.508  29.196  0.00  0.00    -0.198 OA
BRANCH   7  10
ATOM     10  N   UNL d   1      57.942  -0.329  30.332  0.00  0.00    -0.152 N 
ATOM     11  N   UNL d   1      57.775  -0.382  31.135  0.00  0.00    -0.155 NA
ATOM     12  C   UNL d   1      57.276   0.239  31.341  0.00  0.00     0.104 A 
ATOM     13  C   UNL d   1      56.974   0.393  32.095  0.00  0.00     0.022 C 
ATOM     14  C   UNL d   1      57.132   0.682  30.660  0.00  0.00     0.041 A 
ATOM     15  C   UNL d   1      57.543   0.331  30.038  0.00  0.00     0.096 A 
ATOM     16  C   UNL d   1      57.554   0.594  29.257  0.00  0.00     0.022 C 
ENDBRANCH   7  10
ENDBRANCH   1   7
BRANCH   4  17
ATOM     17  O   UNL d   1      59.907  -0.343  29.381  0.00  0.00    -0.304 OA
BRANCH  17  18
ATOM     18  C   UNL d   1      60.623  -0.075  29.075  0.00  0.00     0.123 C 
ATOM     19  C   UNL d   1      61.051   0.514  29.472  0.00  0.00     0.029 C 
ENDBRANCH  17  18
ENDBRANCH   4  17
BRANCH   3  20
ATOM     20  C   UNL d   1      58.854  -3.387  28.678  0.00  0.00     0.000 C 
ATOM     21  C   UNL d   1      58.064  -3.514  28.455  0.00  0.00     0.000 C 
ATOM     22  C   UNL d   1      59.375  -4.025  28.721  0.00  0.00     0.000 C 
ENDBRANCH   3  20
TORSDOF 5
ENDMDL
MODEL 4
REMARK VINA RESULT:      -0.0      1.543      2.822
REMARK  5 active torsions:
REMARK  status: ('A' for Active; 'I' for Inactive)
REMARK    1  A    between atoms: N_2  and  S_1 
REMARK    2  A    between atoms: C_3  and  S_1 
REMARK    3  A    between atoms: C_15  and  C_11 
REMARK    4  A    between atoms: O_17  and  C_12 
REMARK    5  A    between atoms: C_21  and  O_17 
ROOT
ATOM      1  C   UNL d   1      57.913  -0.348  30.636  0.00  0.00     0.128 A 
ATOM      2  C   UNL d   1      57.633   0.158  31.222  0.00  0.00     0.015 A 
ATOM      3  C   UNL d   1      57.066  -0.107  31.760  0.00  0.00     0.001 A 
ATOM      4  C   UNL d   1      57.626  -1.117  30.586  0.00  0.00     0.112 A 
ATOM      5  C   UNL d   1      56.779  -0.878  31.710  0.00  0.00     0.002 A 
ATOM      6  C   UNL d   1      57.059  -1.382  31.123  0.00  0.00     0.025 A 
ENDROOT
BRANCH   1   7
ATOM      7  S   UNL d   1      58.480  -0.083  30.098  0.00  0.00     0.288 S 
ATOM      8  O   UNL d   1      59.069  -0.467  30.530  0.00  0.00    -0.198 OA
ATOM      9  O   UNL d   1      57.891   0.302  29.667  0.00  0.00    -0.198 OA
BRANCH   7  10
ATOM     10  N   UNL d   1      59.047   0.182  29.561  0.00  0.00    -0.152 N 
ATOM     11  N   UNL d   1      59.861   0.194  29.679  0.00  0.00    -0.155 NA
ATOM     12  C   UNL d   1      60.220   0.501  29.004  0.00  0.00     0.104 A 
ATOM     13  C   UNL d   1      61.030   0.609  28.889  0.00  0.00     0.022 C 
ATOM     14  C   UNL d   1      59.623   0.680  28.463  0.00  0.00     0.041 A 
ATOM     15  C   UNL d   1      58.901   0.483  28.807  0.00  0.00     0.096 A 
ATOM     16  C   UNL d   1      58.159   0.572  28.458  0.00  0.00     0.022 C 
ENDBRANCH   7  10
ENDBRANCH   1   7
BRANCH   4  17
ATOM     17  O   UNL d   1      57.905  -1.626  29.997  0.00  0.00    -0.304 OA
BRANCH  17  18
ATOM     18  C   UNL d   1      57.891  -2.441  30.115  0.00  0.00     0.123 C 
ATOM     19  C   UNL d   1      57.990  -2.957  29.474  0.00  0.00     0.029 C 
ENDBRANCH  17  18
ENDBRANCH   4  17
BRANCH   3  20
ATOM     20  C   UNL d   1      56.786   0.397  32.347  0.00  0.00     0.000 C 
ATOM     21  C   UNL d   1      57.290   0.643  32.960  0.00  0.00     0.000 C 
ATOM     22  C   UNL d   1      56.004   0.661  32.328  0.00  0.00     0.000 C 
ENDBRANCH   3  20
TORSDOF 5
ENDMDL
