MODEL 1
REMARK VINA RESULT:      60.3      0.000      0.000
REMARK  7 active torsions:
REMARK  status: ('A' for Active; 'I' for Inactive)
REMARK    1  A    between atoms: C_3  and  S_1 
REMARK    2  A    between atoms: N_4  and  S_1 
REMARK    3  A    between atoms: C_2  and  C_11 
REMARK       I    between atoms: N_5  and  C_2 
REMARK    4  A    between atoms: C_18  and  N_4 
REMARK    5  A    between atoms: C_12  and  N_5 
REMARK    6  A    between atoms: C_22  and  C_18 
REMARK    7  A    between atoms: O_26  and  C_19 
ROOT
ATOM      1  C   UNL d   1      14.015  17.407  -5.616  0.00  0.00     0.058 A 
ATOM      2  C   UNL d   1      13.646  16.883  -6.146  0.00  0.00     0.005 A 
ATOM      3  C   UNL d   1      14.343  17.120  -4.916  0.00  0.00     0.005 A 
ATOM      4  C   UNL d   1      13.935  15.794  -5.279  0.00  0.00     0.020 A 
ATOM      5  C   UNL d   1      13.607  16.083  -5.978  0.00  0.00     0.002 A 
ATOM      6  C   UNL d   1      14.303  16.306  -4.747  0.00  0.00     0.002 A 
ENDROOT
BRANCH   4   7
ATOM      7  C   UNL d   1      13.899  14.983  -5.103  0.00  0.00     0.112 C 
BRANCH   7   8
ATOM      8  N   UNL d   1      13.225  14.669  -4.730  0.00  0.00    -0.157 NA
BRANCH   8   9
ATOM      9  S   UNL d   1      13.272  13.948  -4.316  0.00  0.00     0.285 S 
ATOM     10  O   UNL d   1      13.499  14.352  -3.623  0.00  0.00    -0.198 OA
ATOM     11  O   UNL d   1      13.044  13.533  -5.010  0.00  0.00    -0.198 OA
BRANCH   9  12
ATOM     12  C   UNL d   1      13.318  13.220  -3.904  0.00  0.00     0.107 A 
ATOM     13  C   UNL d   1      13.823  13.139  -3.257  0.00  0.00     0.037 A 
ATOM     14  C   UNL d   1      13.869  12.425  -2.852  0.00  0.00     0.095 A 
ATOM     15  C   UNL d   1      13.411  11.787  -3.090  0.00  0.00     0.024 A 
ATOM     16  C   UNL d   1      12.901  11.863  -3.741  0.00  0.00     0.003 A 
ATOM     17  C   UNL d   1      12.855  12.576  -4.146  0.00  0.00     0.013 A 
BRANCH  14  18
ATOM     18  O   UNL d   1      14.378  12.340  -2.197  0.00  0.00    -0.328 OA
ATOM     19  C   UNL d   1      14.059  12.256  -1.447  0.00  0.00     0.181 C 
ENDBRANCH  14  18
ENDBRANCH   9  12
ENDBRANCH   8   9
ENDBRANCH   7   8
ENDBRANCH   4   7
BRANCH   1  20
ATOM     20  C   UNL d   1      14.058  18.214  -5.778  0.00  0.00     0.279 C 
ATOM     21  N   UNL d   1      14.551  18.698  -5.332  0.00  0.00    -0.208 NA
ATOM     22  O   UNL d   1      13.607  18.542  -6.388  0.00  0.00    -0.265 OA
BRANCH  21  23
ATOM     23  C   UNL d   1      14.593  19.513  -5.497  0.00  0.00     0.086 A 
ATOM     24  C   UNL d   1      15.327  19.846  -5.705  0.00  0.00     0.032 A 
ATOM     25  C   UNL d   1      15.365  20.660  -5.868  0.00  0.00     0.070 A 
ATOM     26 CL   UNL d   1      16.090  20.992  -6.075  0.00  0.00    -0.081 Cl
ATOM     27  C   UNL d   1      14.684  21.122  -5.824  0.00  0.00     0.068 A 
ATOM     28  C   UNL d   1      13.960  20.778  -5.615  0.00  0.00     0.014 A 
ATOM     29 CL   UNL d   1      14.731  21.933  -5.989  0.00  0.00    -0.082 Cl
ATOM     30  C   UNL d   1      13.921  19.972  -5.453  0.00  0.00     0.020 A 
ENDBRANCH  21  23
ENDBRANCH   1  20
TORSDOF 7
ENDMDL
MODEL 2
REMARK VINA RESULT:      61.2      3.378      6.982
REMARK  7 active torsions:
REMARK  status: ('A' for Active; 'I' for Inactive)
REMARK    1  A    between atoms: C_3  and  S_1 
REMARK    2  A    between atoms: N_4  and  S_1 
REMARK    3  A    between atoms: C_2  and  C_11 
REMARK       I    between atoms: N_5  and  C_2 
REMARK    4  A    between atoms: C_18  and  N_4 
REMARK    5  A    between atoms: C_12  and  N_5 
REMARK    6  A    between atoms: C_22  and  C_18 
REMARK    7  A    between atoms: O_26  and  C_19 
ROOT
ATOM      1  C   UNL d   1      14.705  15.584  -2.857  0.00  0.00     0.058 A 
ATOM      2  C   UNL d   1      14.462  15.433  -3.639  0.00  0.00     0.005 A 
ATOM      3  C   UNL d   1      15.067  16.301  -2.670  0.00  0.00     0.005 A 
ATOM      4  C   UNL d   1      14.943  16.711  -4.039  0.00  0.00     0.020 A 
ATOM      5  C   UNL d   1      14.581  15.994  -4.224  0.00  0.00     0.002 A 
ATOM      6  C   UNL d   1      15.187  16.869  -3.267  0.00  0.00     0.002 A 
ENDROOT
BRANCH   4   7
ATOM      7  C   UNL d   1      15.066  17.282  -4.628  0.00  0.00     0.112 C 
BRANCH   7   8
ATOM      8  N   UNL d   1      14.443  17.494  -5.138  0.00  0.00    -0.157 NA
BRANCH   8   9
ATOM      9  S   UNL d   1      14.365  18.279  -5.402  0.00  0.00     0.285 S 
ATOM     10  O   UNL d   1      15.169  18.424  -5.234  0.00  0.00    -0.198 OA
ATOM     11  O   UNL d   1      13.554  18.142  -5.575  0.00  0.00    -0.198 OA
BRANCH   9  12
ATOM     12  C   UNL d   1      14.281  19.069  -5.670  0.00  0.00     0.107 A 
ATOM     13  C   UNL d   1      14.853  19.634  -5.485  0.00  0.00     0.037 A 
ATOM     14  C   UNL d   1      14.772  20.409  -5.746  0.00  0.00     0.095 A 
ATOM     15  C   UNL d   1      14.120  20.626  -6.195  0.00  0.00     0.024 A 
ATOM     16  C   UNL d   1      13.541  20.061  -6.384  0.00  0.00     0.003 A 
ATOM     17  C   UNL d   1      13.622  19.286  -6.123  0.00  0.00     0.013 A 
BRANCH  14  18
ATOM     18  O   UNL d   1      15.348  20.982  -5.561  0.00  0.00    -0.328 OA
ATOM     19  C   UNL d   1      15.144  21.776  -5.569  0.00  0.00     0.181 C 
ENDBRANCH  14  18
ENDBRANCH   9  12
ENDBRANCH   8   9
ENDBRANCH   7   8
ENDBRANCH   4   7
BRANCH   1  20
ATOM     20  C   UNL d   1      14.589  15.025  -2.262  0.00  0.00     0.279 C 
ATOM     21  N   UNL d   1      14.774  14.235  -2.398  0.00  0.00    -0.208 NA
ATOM     22  O   UNL d   1      14.287  15.254  -1.528  0.00  0.00    -0.265 OA
BRANCH  21  23
ATOM     23  C   UNL d   1      14.656  13.672  -1.797  0.00  0.00     0.086 A 
ATOM     24  C   UNL d   1      14.187  13.003  -1.955  0.00  0.00     0.032 A 
ATOM     25  C   UNL d   1      14.073  12.443  -1.351  0.00  0.00     0.070 A 
ATOM     26 CL   UNL d   1      13.608  11.780  -1.505  0.00  0.00    -0.081 Cl
ATOM     27  C   UNL d   1      14.420  12.555  -0.612  0.00  0.00     0.068 A 
ATOM     28  C   UNL d   1      14.885  13.226  -0.468  0.00  0.00     0.014 A 
ATOM     29 CL   UNL d   1      14.300  11.992  -0.016  0.00  0.00    -0.082 Cl
ATOM     30  C   UNL d   1      14.999  13.781  -1.065  0.00  0.00     0.020 A 
ENDBRANCH  21  23
ENDBRANCH   1  20
TORSDOF 7
ENDMDL
