MODEL 1
REMARK VINA RESULT:      -5.2      0.000      0.000
REMARK  6 active torsions:
REMARK  status: ('A' for Active; 'I' for Inactive)
REMARK       I    between atoms: C_2  and  N_1 
REMARK    1  A    between atoms: C_15  and  C_2 
REMARK    2  A    between atoms: C_3  and  C_4 
REMARK    3  A    between atoms: C_9  and  O_14 
REMARK    4  A    between atoms: O_14  and  C_21 
REMARK    5  A    between atoms: C_22  and  C_15 
REMARK    6  A    between atoms: C_21  and  C_22 
ROOT
ATOM      1  O   UNL d   1     -42.132-123.152 -50.975  0.00  0.00    -0.305 OA
ENDROOT
BRANCH   1   2
ATOM      2  C   UNL d   1     -42.108-123.153 -50.154  0.00  0.00     0.100 A 
ATOM      3  C   UNL d   1     -41.572-123.641 -49.751  0.00  0.00     0.024 A 
ATOM      4  C   UNL d   1     -41.539-123.650 -48.933  0.00  0.00    -0.002 A 
ATOM      5  C   UNL d   1     -42.054-123.158 -48.493  0.00  0.00    -0.023 A 
ATOM      6  C   UNL d   1     -42.587-122.672 -48.884  0.00  0.00    -0.002 A 
ATOM      7  C   UNL d   1     -42.623-122.661 -49.714  0.00  0.00     0.024 A 
BRANCH   5   8
ATOM      8  C   UNL d   1     -42.022-123.165 -47.672  0.00  0.00     0.019 C 
ATOM      9  C   UNL d   1     -42.486-123.689 -47.243  0.00  0.00     0.004 C 
ATOM     10  C   UNL d   1     -41.519-122.640 -47.275  0.00  0.00     0.004 C 
ATOM     11  C   UNL d   1     -42.572-123.751 -47.869  0.00  0.00     0.004 C 
ENDBRANCH   5   8
ENDBRANCH   1   2
BRANCH   1  12
ATOM     12  C   UNL d   1     -41.659-122.618 -51.397  0.00  0.00     0.123 C 
BRANCH  12  13
ATOM     13  C   UNL d   1     -41.341-122.841 -52.124  0.00  0.00     0.032 C 
BRANCH  13  14
ATOM     14  C   UNL d   1     -41.556-122.432 -52.805  0.00  0.00     0.063 C 
BRANCH  14  15
ATOM     15  C   UNL d   1     -41.494-122.806 -53.539  0.00  0.00     0.265 C 
ATOM     16  N   UNL d   1     -41.805-122.442 -54.216  0.00  0.00    -0.268 N 
ATOM     17  C   UNL d   1     -41.749-122.805 -54.954  0.00  0.00     0.110 A 
ATOM     18  C   UNL d   1     -42.179-121.697 -54.148  0.00  0.00     0.110 A 
ATOM     19  C   UNL d   1     -42.057-122.442 -55.617  0.00  0.00     0.142 A 
ATOM     20  O   UNL d   1     -42.432-121.696 -55.550  0.00  0.00    -0.300 OA
ATOM     21  C   UNL d   1     -42.485-121.340 -54.820  0.00  0.00     0.142 A 
ATOM     22  O   UNL d   1     -41.123-123.544 -53.607  0.00  0.00    -0.267 OA
ENDBRANCH  14  15
ENDBRANCH  13  14
ENDBRANCH  12  13
ENDBRANCH   1  12
TORSDOF 6
ENDMDL
MODEL 2
REMARK VINA RESULT:      -4.8      1.528      5.832
REMARK  6 active torsions:
REMARK  status: ('A' for Active; 'I' for Inactive)
REMARK       I    between atoms: C_2  and  N_1 
REMARK    1  A    between atoms: C_15  and  C_2 
REMARK    2  A    between atoms: C_3  and  C_4 
REMARK    3  A    between atoms: C_9  and  O_14 
REMARK    4  A    between atoms: O_14  and  C_21 
REMARK    5  A    between atoms: C_22  and  C_15 
REMARK    6  A    between atoms: C_21  and  C_22 
ROOT
ATOM      1  O   UNL d   1     -41.196-122.262 -52.359  0.00  0.00    -0.305 OA
ENDROOT
BRANCH   1   2
ATOM      2  C   UNL d   1     -41.473-122.243 -53.132  0.00  0.00     0.100 A 
ATOM      3  C   UNL d   1     -41.203-122.795 -53.688  0.00  0.00     0.024 A 
ATOM      4  C   UNL d   1     -41.472-122.786 -54.461  0.00  0.00    -0.002 A 
ATOM      5  C   UNL d   1     -42.030-122.208 -54.698  0.00  0.00    -0.023 A 
ATOM      6  C   UNL d   1     -42.302-121.657 -54.153  0.00  0.00    -0.002 A 
ATOM      7  C   UNL d   1     -42.030-121.665 -53.368  0.00  0.00     0.024 A 
BRANCH   5   8
ATOM      8  C   UNL d   1     -42.302-122.196 -55.473  0.00  0.00     0.019 C 
ATOM      9  C   UNL d   1     -41.893-121.778 -56.049  0.00  0.00     0.004 C 
ATOM     10  C   UNL d   1     -42.992-122.607 -55.673  0.00  0.00     0.004 C 
ATOM     11  C   UNL d   1     -41.615-121.735 -55.480  0.00  0.00     0.004 C 
ENDBRANCH   5   8
ENDBRANCH   1   2
BRANCH   1  12
ATOM     12  C   UNL d   1     -41.728-122.399 -51.739  0.00  0.00     0.123 C 
BRANCH  12  13
ATOM     13  C   UNL d   1     -41.525-122.178 -50.971  0.00  0.00     0.032 C 
BRANCH  13  14
ATOM     14  C   UNL d   1     -41.524-122.741 -50.372  0.00  0.00     0.063 C 
BRANCH  14  15
ATOM     15  C   UNL d   1     -42.108-122.715 -49.788  0.00  0.00     0.265 C 
ATOM     16  N   UNL d   1     -41.977-123.074 -49.054  0.00  0.00    -0.268 N 
ATOM     17  C   UNL d   1     -42.552-123.054 -48.464  0.00  0.00     0.110 A 
ATOM     18  C   UNL d   1     -41.249-123.463 -48.909  0.00  0.00     0.110 A 
ATOM     19  C   UNL d   1     -42.416-123.411 -47.742  0.00  0.00     0.142 A 
ATOM     20  O   UNL d   1     -41.689-123.799 -47.597  0.00  0.00    -0.300 OA
ATOM     21  C   UNL d   1     -41.123-123.817 -48.181  0.00  0.00     0.142 A 
ATOM     22  O   UNL d   1     -42.829-122.330 -49.931  0.00  0.00    -0.267 OA
ENDBRANCH  14  15
ENDBRANCH  13  14
ENDBRANCH  12  13
ENDBRANCH   1  12
TORSDOF 6
ENDMDL
