MODEL 1
REMARK VINA RESULT:      -4.2      0.000      0.000
REMARK  6 active torsions:
REMARK  status: ('A' for Active; 'I' for Inactive)
REMARK    1  A    between atoms: C_5  and  N_1 
REMARK    2  A    between atoms: N_2  and  C_5 
REMARK    3  A    between atoms: C_12  and  C_9 
REMARK    4  A    between atoms: C_14  and  C_10 
REMARK    5  A    between atoms: O_29  and  C_20 
REMARK    6  A    between atoms: O_28  and  C_21 
ROOT
ATOM      1  N   UNL d   1     -40.417  14.678  20.644  0.00  0.00    -0.211 N 
ATOM      2  N   UNL d   1     -40.955  14.344  21.154  0.00  0.00    -0.164 NA
ATOM      3  C   UNL d   1     -41.568  14.031  20.695  0.00  0.00     0.103 A 
ATOM      4  C   UNL d   1     -40.688  14.575  19.882  0.00  0.00     0.086 A 
ATOM      5  C   UNL d   1     -41.403  14.172  19.935  0.00  0.00     0.040 A 
ENDROOT
BRANCH   1   6
ATOM      6  C   UNL d   1     -39.700  15.070  20.774  0.00  0.00     0.186 C 
BRANCH   6   7
ATOM      7  N   UNL d   1     -39.386  15.095  21.533  0.00  0.00    -0.254 N 
ATOM      8  C   UNL d   1     -39.468  15.676  22.118  0.00  0.00     0.305 A 
ATOM      9  C   UNL d   1     -39.065  15.483  22.795  0.00  0.00     0.253 A 
ATOM     10  O   UNL d   1     -39.890  15.915  21.463  0.00  0.00    -0.263 OA
ATOM     11  O   UNL d   1     -39.018  15.922  23.490  0.00  0.00    -0.281 OA
ATOM     12  C   UNL d   1     -38.705  14.747  22.644  0.00  0.00     0.060 A 
ATOM     13  C   UNL d   1     -38.901  14.510  21.875  0.00  0.00     0.072 A 
ATOM     14  C   UNL d   1     -38.218  14.262  23.122  0.00  0.00     0.005 A 
ATOM     15  C   UNL d   1     -38.613  13.784  21.572  0.00  0.00     0.018 A 
ATOM     16  C   UNL d   1     -38.136  13.314  22.048  0.00  0.00     0.002 A 
ATOM     17  C   UNL d   1     -37.940  13.551  22.818  0.00  0.00     0.000 A 
ENDBRANCH   6   7
ENDBRANCH   1   6
BRANCH   4  18
ATOM     18  C   UNL d   1     -40.348  14.811  19.177  0.00  0.00     0.018 A 
ATOM     19  C   UNL d   1     -39.832  14.321  18.760  0.00  0.00     0.004 A 
ATOM     20  C   UNL d   1     -39.487  14.569  18.038  0.00  0.00     0.024 A 
ATOM     21  C   UNL d   1     -39.662  15.309  17.738  0.00  0.00     0.094 A 
ATOM     22  C   UNL d   1     -40.182  15.808  18.153  0.00  0.00     0.024 A 
ATOM     23  C   UNL d   1     -40.522  15.566  18.864  0.00  0.00     0.004 A 
BRANCH  21  24
ATOM     24  O   UNL d   1     -39.325  15.560  17.025  0.00  0.00    -0.328 OA
ATOM     25  C   UNL d   1     -39.361  15.071  16.355  0.00  0.00     0.181 C 
ENDBRANCH  21  24
ENDBRANCH   4  18
BRANCH   3  26
ATOM     26  C   UNL d   1     -42.232  13.640  20.999  0.00  0.00     0.019 A 
ATOM     27  C   UNL d   1     -42.923  14.078  21.147  0.00  0.00     0.004 A 
ATOM     28  C   UNL d   1     -43.585  13.709  21.446  0.00  0.00     0.024 A 
ATOM     29  C   UNL d   1     -43.544  12.914  21.590  0.00  0.00     0.094 A 
ATOM     30  C   UNL d   1     -42.875  12.484  21.448  0.00  0.00     0.024 A 
ATOM     31  C   UNL d   1     -42.213  12.854  21.149  0.00  0.00     0.004 A 
BRANCH  29  32
ATOM     32  O   UNL d   1     -44.205  12.548  21.888  0.00  0.00    -0.328 OA
ATOM     33  C   UNL d   1     -44.952  12.907  21.816  0.00  0.00     0.181 C 
ENDBRANCH  29  32
ENDBRANCH   3  26
TORSDOF 6
ENDMDL
MODEL 2
REMARK VINA RESULT:      -3.6      0.980      3.599
REMARK  6 active torsions:
REMARK  status: ('A' for Active; 'I' for Inactive)
REMARK    1  A    between atoms: C_5  and  N_1 
REMARK    2  A    between atoms: N_2  and  C_5 
REMARK    3  A    between atoms: C_12  and  C_9 
REMARK    4  A    between atoms: C_14  and  C_10 
REMARK    5  A    between atoms: O_29  and  C_20 
REMARK    6  A    between atoms: O_28  and  C_21 
ROOT
ATOM      1  N   UNL d   1     -40.817  14.646  20.470  0.00  0.00    -0.211 N 
ATOM      2  N   UNL d   1     -41.532  14.279  20.347  0.00  0.00    -0.164 NA
ATOM      3  C   UNL d   1     -41.784  13.979  21.075  0.00  0.00     0.103 A 
ATOM      4  C   UNL d   1     -40.626  14.577  21.260  0.00  0.00     0.086 A 
ATOM      5  C   UNL d   1     -41.238  14.160  21.618  0.00  0.00     0.040 A 
ENDROOT
BRANCH   1   6
ATOM      6  C   UNL d   1     -40.303  15.043  19.957  0.00  0.00     0.186 C 
BRANCH   6   7
ATOM      7  N   UNL d   1     -40.387  14.945  19.146  0.00  0.00    -0.254 N 
ATOM      8  C   UNL d   1     -40.883  15.346  18.616  0.00  0.00     0.305 A 
ATOM      9  C   UNL d   1     -40.795  15.077  17.856  0.00  0.00     0.253 A 
ATOM     10  O   UNL d   1     -41.009  15.652  19.361  0.00  0.00    -0.263 OA
ATOM     11  O   UNL d   1     -41.191  15.340  17.184  0.00  0.00    -0.281 OA
ATOM     12  C   UNL d   1     -40.219  14.476  17.892  0.00  0.00     0.060 A 
ATOM     13  C   UNL d   1     -39.970  14.395  18.678  0.00  0.00     0.072 A 
ATOM     14  C   UNL d   1     -39.890  13.990  17.295  0.00  0.00     0.005 A 
ATOM     15  C   UNL d   1     -39.389  13.827  18.880  0.00  0.00     0.018 A 
ATOM     16  C   UNL d   1     -39.072  13.354  18.288  0.00  0.00     0.002 A 
ATOM     17  C   UNL d   1     -39.320  13.434  17.501  0.00  0.00     0.000 A 
ENDBRANCH   6   7
ENDBRANCH   1   6
BRANCH   4  18
ATOM     18  C   UNL d   1     -39.967  14.853  21.656  0.00  0.00     0.018 A 
ATOM     19  C   UNL d   1     -39.893  15.645  21.875  0.00  0.00     0.004 A 
ATOM     20  C   UNL d   1     -39.215  15.921  22.282  0.00  0.00     0.024 A 
ATOM     21  C   UNL d   1     -38.613  15.399  22.468  0.00  0.00     0.094 A 
ATOM     22  C   UNL d   1     -38.681  14.599  22.251  0.00  0.00     0.024 A 
ATOM     23  C   UNL d   1     -39.349  14.326  21.850  0.00  0.00     0.004 A 
BRANCH  21  24
ATOM     24  O   UNL d   1     -37.941  15.665  22.870  0.00  0.00    -0.328 OA
ATOM     25  C   UNL d   1     -37.958  15.750  23.696  0.00  0.00     0.181 C 
ENDBRANCH  21  24
ENDBRANCH   4  18
BRANCH   3  26
ATOM     26  C   UNL d   1     -42.489  13.563  21.196  0.00  0.00     0.019 A 
ATOM     27  C   UNL d   1     -42.452  12.752  21.379  0.00  0.00     0.004 A 
ATOM     28  C   UNL d   1     -43.137  12.328  21.500  0.00  0.00     0.024 A 
ATOM     29  C   UNL d   1     -43.842  12.720  21.437  0.00  0.00     0.094 A 
ATOM     30  C   UNL d   1     -43.884  13.507  21.259  0.00  0.00     0.024 A 
ATOM     31  C   UNL d   1     -43.198  13.931  21.138  0.00  0.00     0.004 A 
BRANCH  29  32
ATOM     32  O   UNL d   1     -44.524  12.295  21.558  0.00  0.00    -0.328 OA
ATOM     33  C   UNL d   1     -45.141  12.615  22.015  0.00  0.00     0.181 C 
ENDBRANCH  29  32
ENDBRANCH   3  26
TORSDOF 6
ENDMDL
