MODEL 1
REMARK VINA RESULT:      51.4      0.000      0.000
REMARK  3 active torsions:
REMARK  status: ('A' for Active; 'I' for Inactive)
REMARK    1  A    between atoms: S_7  and  C_1 
REMARK    2  A    between atoms: C_16  and  N_2 
REMARK    3  A    between atoms: C_4  and  S_7 
ROOT
ATOM      1  S   UNL d   1     -57.252 -99.360 -44.142  0.00  0.00    -0.028 SA
ENDROOT
BRANCH   1   2
ATOM      2  C   UNL d   1     -56.420 -99.406 -44.368  0.00  0.00     0.117 A 
ATOM      3  C   UNL d   1     -55.991-100.080 -44.187  0.00  0.00     0.048 A 
ATOM      4  C   UNL d   1     -55.187-100.125 -44.405  0.00  0.00     0.114 A 
ATOM      5  C   UNL d   1     -56.175-100.789 -43.810  0.00  0.00     0.010 A 
ATOM      6  S   UNL d   1     -54.912-100.859 -44.152  0.00  0.00    -0.068 SA
ATOM      7  N   UNL d   1     -54.841 -99.493 -44.796  0.00  0.00    -0.217 NA
ATOM      8  C   UNL d   1     -55.550-101.259 -43.781  0.00  0.00     0.031 A 
ATOM      9  C   UNL d   1     -55.524-102.042 -43.432  0.00  0.00     0.007 C 
ATOM     10  C   UNL d   1     -55.271 -98.800 -44.984  0.00  0.00     0.200 A 
ATOM     11  N   UNL d   1     -56.075 -98.756 -44.766  0.00  0.00    -0.217 NA
ATOM     12  C   UNL d   1     -56.938-101.005 -43.485  0.00  0.00     0.001 C 
ENDBRANCH   1   2
BRANCH   1  13
ATOM     13  C   UNL d   1     -57.816 -99.157 -44.726  0.00  0.00     0.220 A 
ATOM     14  N   UNL d   1     -58.613 -98.910 -44.541  0.00  0.00    -0.186 N 
ATOM     15  N   UNL d   1     -59.012 -98.755 -45.247  0.00  0.00    -0.038 NA
ATOM     16  N   UNL d   1     -58.482 -98.899 -45.867  0.00  0.00    -0.022 NA
ATOM     17  N   UNL d   1     -57.750 -99.145 -45.549  0.00  0.00    -0.101 NA
BRANCH  14  18
ATOM     18  C   UNL d   1     -58.836 -98.872 -43.739  0.00  0.00     0.087 A 
ATOM     19  C   UNL d   1     -58.359 -98.794 -43.260  0.00  0.00     0.019 A 
ATOM     20  C   UNL d   1     -58.570 -98.756 -42.480  0.00  0.00     0.002 A 
ATOM     21  C   UNL d   1     -59.378 -98.809 -42.228  0.00  0.00     0.000 A 
ATOM     22  C   UNL d   1     -59.821 -98.883 -42.697  0.00  0.00     0.002 A 
ATOM     23  C   UNL d   1     -59.643 -98.925 -43.486  0.00  0.00     0.019 A 
ENDBRANCH  14  18
ENDBRANCH   1  13
TORSDOF 3
ENDMDL
