MODEL 1
REMARK VINA RESULT:      15.7      0.000      0.000
REMARK  5 active torsions:
REMARK  status: ('A' for Active; 'I' for Inactive)
REMARK    1  A    between atoms: C_2  and  S_1 
REMARK    2  A    between atoms: N_8  and  S_1 
REMARK    3  A    between atoms: C_3  and  C_14 
REMARK    4  A    between atoms: C_17  and  N_8 
REMARK    5  A    between atoms: C_23  and  C_11 
ROOT
ATOM      1  C   UNL d   1      45.959 -16.969  43.822  0.00  0.00     0.024 A 
ATOM      2  C   UNL d   1      45.652 -15.527  44.584  0.00  0.00     0.094 A 
ATOM      3  C   UNL d   1      46.146 -16.258  43.443  0.00  0.00     0.004 A 
ATOM      4  C   UNL d   1      45.622 -16.949  44.574  0.00  0.00     0.004 A 
ATOM      5  C   UNL d   1      45.471 -16.239  44.949  0.00  0.00     0.020 A 
ATOM      6  C   UNL d   1      45.995 -15.542  43.817  0.00  0.00     0.020 A 
ENDROOT
BRANCH   2   7
ATOM      7  N   UNL d   1      45.502 -14.816  44.955  0.00  0.00    -0.158 NA
BRANCH   7   8
ATOM      8  S   UNL d   1      45.476 -14.119  44.517  0.00  0.00     0.291 S 
ATOM      9  O   UNL d   1      44.685 -14.038  44.701  0.00  0.00    -0.198 OA
ATOM     10  O   UNL d   1      46.267 -14.200  44.333  0.00  0.00    -0.198 OA
BRANCH   8  11
ATOM     11  C   UNL d   1      45.457 -13.427  44.080  0.00  0.00     0.135 A 
ATOM     12  S   UNL d   1      45.002 -13.270  43.404  0.00  0.00    -0.074 SA
ATOM     13  C   UNL d   1      45.160 -12.503  43.149  0.00  0.00     0.030 A 
ATOM     14  C   UNL d   1      45.719 -12.181  43.670  0.00  0.00     0.008 A 
ATOM     15  C   UNL d   1      45.905 -12.736  44.240  0.00  0.00     0.020 A 
BRANCH  13  16
ATOM     16  C   UNL d   1      44.830 -12.134  42.506  0.00  0.00     0.006 C 
ATOM     17  C   UNL d   1      45.126 -12.288  41.746  0.00  0.00     0.001 C 
ENDBRANCH  13  16
ENDBRANCH   8  11
ENDBRANCH   7   8
ENDBRANCH   2   7
BRANCH   1  18
ATOM     18  C   UNL d   1      46.112 -17.686  43.444  0.00  0.00     0.112 A 
ATOM     19  S   UNL d   1      46.145 -17.797  42.632  0.00  0.00    -0.047 SA
ATOM     20  C   UNL d   1      46.314 -18.607  42.486  0.00  0.00     0.130 A 
ATOM     21  N   UNL d   1      46.411 -19.035  41.790  0.00  0.00    -0.236 NA
ATOM     22  C   UNL d   1      46.382 -18.982  43.227  0.00  0.00     0.106 A 
ATOM     23  C   UNL d   1      46.578 -19.845  41.833  0.00  0.00     0.100 A 
ATOM     24  C   UNL d   1      46.646 -20.223  42.568  0.00  0.00     0.022 A 
ATOM     25  C   UNL d   1      46.548 -19.792  43.260  0.00  0.00     0.023 A 
ATOM     26  N   UNL d   1      46.256 -18.409  43.820  0.00  0.00    -0.237 NA
ENDBRANCH   1  18
TORSDOF 5
ENDMDL
