MODEL 1
REMARK VINA RESULT:      -1.0      0.000      0.000
REMARK  10 active torsions:
REMARK  status: ('A' for Active; 'I' for Inactive)
REMARK    1  A    between atoms: C_14  and  N_1 
REMARK    2  A    between atoms: C_7  and  N_3 
REMARK    3  A    between atoms: C_9  and  C_7 
REMARK       I    between atoms: N_18  and  C_9 
REMARK    4  A    between atoms: C_11  and  C_24 
REMARK       I    between atoms: N_12  and  C_11 
REMARK    5  A    between atoms: C_21  and  N_12 
REMARK    6  A    between atoms: C_13  and  C_25 
REMARK    7  A    between atoms: C_23  and  C_14 
REMARK    8  A    between atoms: C_22  and  N_18 
REMARK    9  A    between atoms: C_25  and  C_22 
REMARK   10  A    between atoms: C_24  and  C_23 
ROOT
ATOM      1  N   UNL d   1      33.049  21.952 -22.150  0.00  0.00    -0.226 N 
ATOM      2  C   UNL d   1      33.138  21.140 -22.271  0.00  0.00     0.342 A 
ATOM      3  N   UNL d   1      33.151  20.838 -23.044  0.00  0.00    -0.254 N 
ATOM      4  C   UNL d   1      32.973  22.461 -22.801  0.00  0.00     0.270 A 
ATOM      5  C   UNL d   1      32.986  22.157 -23.567  0.00  0.00     0.073 A 
ATOM      6  C   UNL d   1      33.075  21.345 -23.688  0.00  0.00     0.073 A 
ATOM      7  O   UNL d   1      33.215  20.628 -21.624  0.00  0.00    -0.245 OA
ATOM      8  O   UNL d   1      32.884  23.272 -22.680  0.00  0.00    -0.266 OA
ATOM      9  C   UNL d   1      32.910  22.664 -24.210  0.00  0.00     0.006 A 
ATOM     10  C   UNL d   1      33.089  21.042 -24.453  0.00  0.00     0.018 A 
ATOM     11  C   UNL d   1      32.923  22.360 -24.976  0.00  0.00     0.000 A 
ATOM     12  C   UNL d   1      33.013  21.549 -25.097  0.00  0.00     0.002 A 
ENDROOT
BRANCH   3  13
ATOM     13  C   UNL d   1      33.241  20.026 -23.165  0.00  0.00     0.147 C 
BRANCH  13  14
ATOM     14  C   UNL d   1      32.585  19.531 -23.083  0.00  0.00     0.297 C 
ATOM     15  O   UNL d   1      32.054  19.637 -22.461  0.00  0.00    -0.264 OA
ATOM     16  N   UNL d   1      32.454  18.916 -23.629  0.00  0.00    -0.205 NA
BRANCH  16  17
ATOM     17  C   UNL d   1      31.800  18.415 -23.554  0.00  0.00     0.102 C 
BRANCH  17  18
ATOM     18  C   UNL d   1      31.519  18.002 -24.211  0.00  0.00     0.021 C 
BRANCH  18  19
ATOM     19  C   UNL d   1      31.171  17.261 -24.119  0.00  0.00     0.002 A 
ATOM     20  C   UNL d   1      31.638  16.598 -23.966  0.00  0.00     0.000 A 
ATOM     21  C   UNL d   1      31.290  15.860 -23.875  0.00  0.00     0.000 A 
ATOM     22  C   UNL d   1      30.470  15.782 -23.937  0.00  0.00     0.000 A 
ATOM     23  C   UNL d   1      30.003  16.445 -24.090  0.00  0.00     0.000 A 
ATOM     24  C   UNL d   1      30.351  17.186 -24.182  0.00  0.00     0.000 A 
ENDBRANCH  18  19
ENDBRANCH  17  18
ENDBRANCH  16  17
ENDBRANCH  13  14
ENDBRANCH   3  13
BRANCH   1  25
ATOM     25  C   UNL d   1      33.036  22.255 -21.380  0.00  0.00     0.088 C 
BRANCH  25  26
ATOM     26  C   UNL d   1      32.324  22.326 -20.969  0.00  0.00     0.024 C 
BRANCH  26  27
ATOM     27  C   UNL d   1      32.250  22.034 -20.204  0.00  0.00     0.064 C 
BRANCH  27  28
ATOM     28  C   UNL d   1      32.311  22.556 -19.558  0.00  0.00     0.279 C 
ATOM     29  N   UNL d   1      32.544  22.270 -18.820  0.00  0.00    -0.208 NA
ATOM     30  O   UNL d   1      32.140  23.357 -19.648  0.00  0.00    -0.265 OA
BRANCH  29  31
ATOM     31  C   UNL d   1      32.609  22.774 -18.170  0.00  0.00     0.085 A 
ATOM     32  C   UNL d   1      32.155  23.413 -17.903  0.00  0.00     0.019 A 
ATOM     33  C   UNL d   1      32.498  23.702 -17.214  0.00  0.00     0.002 A 
ATOM     34  C   UNL d   1      33.165  23.246 -17.048  0.00  0.00     0.002 A 
ATOM     35  C   UNL d   1      33.239  22.675 -17.631  0.00  0.00     0.019 A 
ENDBRANCH  29  31
ENDBRANCH  27  28
ENDBRANCH  26  27
ENDBRANCH  25  26
ENDBRANCH   1  25
TORSDOF 10
ENDMDL
