MODEL 1
REMARK VINA RESULT:      24.8      0.000      0.000
REMARK  3 active torsions:
REMARK  status: ('A' for Active; 'I' for Inactive)
REMARK    1  A    between atoms: N_2  and  S_1 
REMARK    2  A    between atoms: C_4  and  S_1 
REMARK    3  A    between atoms: C_3  and  N_2 
ROOT
ATOM      1  S   UNL d   1      13.286  12.459  -2.750  0.00  0.00     0.285 S 
ATOM      2  O   UNL d   1      13.761  13.134  -2.682  0.00  0.00    -0.198 OA
ATOM      3  O   UNL d   1      12.808  11.781  -2.819  0.00  0.00    -0.198 OA
ENDROOT
BRANCH   1   4
ATOM      4  N   UNL d   1      13.209  12.429  -1.921  0.00  0.00    -0.158 NA
BRANCH   4   5
ATOM      5  C   UNL d   1      13.873  12.269  -1.453  0.00  0.00     0.094 A 
ATOM      6  C   UNL d   1      14.641  12.395  -1.736  0.00  0.00     0.023 A 
ATOM      7  C   UNL d   1      15.290  12.237  -1.272  0.00  0.00     0.041 A 
ATOM      8  C   UNL d   1      16.035  12.373  -1.588  0.00  0.00     0.003 C 
ATOM      9  C   UNL d   1      15.184  11.939  -0.486  0.00  0.00     0.196 A 
ATOM     10  C   UNL d   1      14.416  11.814  -0.204  0.00  0.00     0.044 A 
ATOM     11  O   UNL d   1      15.848  11.780  -0.017  0.00  0.00    -0.287 OA
ATOM     12  C   UNL d   1      13.775  11.980  -0.686  0.00  0.00     0.022 A 
ATOM     13  C   UNL d   1      13.023  11.851  -0.394  0.00  0.00     0.002 C 
ENDBRANCH   4   5
ENDBRANCH   1   4
BRANCH   1  14
ATOM     14  C   UNL d   1      13.361  12.487  -3.580  0.00  0.00     0.105 A 
ATOM     15  C   UNL d   1      13.323  11.790  -4.004  0.00  0.00     0.013 A 
ATOM     16  C   UNL d   1      13.394  11.808  -4.807  0.00  0.00     0.001 A 
ATOM     17  C   UNL d   1      13.509  12.540  -5.215  0.00  0.00     0.000 A 
ATOM     18  C   UNL d   1      13.547  13.240  -4.783  0.00  0.00     0.001 A 
ATOM     19  C   UNL d   1      13.587  12.583  -6.060  0.00  0.00     0.000 C 
ATOM     20  C   UNL d   1      13.472  13.211  -3.957  0.00  0.00     0.013 A 
ENDBRANCH   1  14
TORSDOF 3
ENDMDL
