MODEL 1
REMARK VINA RESULT:      65.2      0.000      0.000
REMARK  5 active torsions:
REMARK  status: ('A' for Active; 'I' for Inactive)
REMARK    1  A    between atoms: C_9  and  N_1 
REMARK    2  A    between atoms: C_2  and  C_9 
REMARK    3  A    between atoms: S_14  and  C_5 
REMARK    4  A    between atoms: C_12  and  C_16 
REMARK       I    between atoms: N_13  and  C_12 
REMARK    5  A    between atoms: C_16  and  S_14 
ROOT
ATOM      1  C   UNL d   1     -49.425  27.327  33.846  0.00  0.00     0.189 A 
ATOM      2  N   UNL d   1     -48.654  27.412  34.110  0.00  0.00    -0.265 N 
ATOM      3  C   UNL d   1     -48.574  28.173  34.418  0.00  0.00     0.202 A 
ATOM      4  N   UNL d   1     -49.823  28.032  33.988  0.00  0.00    -0.126 NA
ATOM      5  N   UNL d   1     -49.298  28.557  34.343  0.00  0.00    -0.121 NA
ATOM      6  C   UNL d   1     -48.052  26.846  34.080  0.00  0.00     0.103 C 
ENDROOT
BRANCH   1   7
ATOM      7  C   UNL d   1     -49.666  26.622  33.510  0.00  0.00     0.123 C 
BRANCH   7   8
ATOM      8  N   UNL d   1     -50.471  26.444  33.440  0.00  0.00    -0.265 N 
ATOM      9  C   UNL d   1     -51.085  26.995  33.354  0.00  0.00     0.296 A 
ATOM     10  S   UNL d   1     -51.791  26.573  33.306  0.00  0.00    -0.025 SA
ATOM     11  O   UNL d   1     -51.001  27.814  33.322  0.00  0.00    -0.259 OA
ATOM     12  C   UNL d   1     -51.606  25.760  33.363  0.00  0.00     0.050 A 
ATOM     13  C   UNL d   1     -50.791  25.689  33.446  0.00  0.00     0.074 A 
ATOM     14  C   UNL d   1     -52.085  25.084  33.350  0.00  0.00     0.008 A 
ATOM     15  C   UNL d   1     -50.447  24.935  33.516  0.00  0.00     0.018 A 
ATOM     16  C   UNL d   1     -50.921  24.257  33.503  0.00  0.00     0.002 A 
ATOM     17  C   UNL d   1     -51.746  24.342  33.419  0.00  0.00     0.001 A 
ENDBRANCH   7   8
ENDBRANCH   1   7
BRANCH   3  18
ATOM     18  S   UNL d   1     -47.888  28.496  34.745  0.00  0.00    -0.043 SA
BRANCH  18  19
ATOM     19  C   UNL d   1     -47.934  29.115  35.291  0.00  0.00     0.099 C 
BRANCH  19  20
ATOM     20  C   UNL d   1     -47.327  29.676  35.339  0.00  0.00     0.271 C 
ATOM     21  N   UNL d   1     -47.479  30.465  35.167  0.00  0.00    -0.272 N 
ATOM     22  C   UNL d   1     -48.169  30.854  34.936  0.00  0.00     0.083 A 
ATOM     23  C   UNL d   1     -46.880  31.019  35.214  0.00  0.00     0.083 A 
ATOM     24  C   UNL d   1     -47.985  31.654  34.842  0.00  0.00     0.021 A 
ATOM     25  C   UNL d   1     -47.195  31.749  35.013  0.00  0.00     0.021 A 
ATOM     26  O   UNL d   1     -46.564  29.440  35.561  0.00  0.00    -0.266 OA
ENDBRANCH  19  20
ENDBRANCH  18  19
ENDBRANCH   3  18
TORSDOF 5
ENDMDL
