MODEL 1
REMARK VINA RESULT:      63.1      0.000      0.000
REMARK  5 active torsions:
REMARK  status: ('A' for Active; 'I' for Inactive)
REMARK    1  A    between atoms: S_10  and  C_5 
REMARK    2  A    between atoms: C_14  and  N_9 
REMARK    3  A    between atoms: C_17  and  S_10 
REMARK    4  A    between atoms: C_15  and  C_14 
REMARK    5  A    between atoms: C_19  and  C_17 
ROOT
ATOM      1  C   UNL d   1      60.101  49.289  51.556  0.00  0.00     0.174 A 
ATOM      2  N   UNL d   1      59.687  49.422  52.244  0.00  0.00    -0.203 NA
ATOM      3  C   UNL d   1      59.573  49.355  50.926  0.00  0.00     0.159 A 
ATOM      4  N   UNL d   1      60.886  49.117  51.404  0.00  0.00    -0.239 N 
ATOM      5  C   UNL d   1      58.903  49.569  52.034  0.00  0.00     0.181 A 
ATOM      6  C   UNL d   1      61.176  49.004  50.625  0.00  0.00     0.358 A 
ATOM      7  N   UNL d   1      60.647  49.070  49.995  0.00  0.00    -0.152 NA
ATOM      8  C   UNL d   1      59.829  49.249  50.143  0.00  0.00     0.302 A 
ATOM      9  N   UNL d   1      58.750  49.545  51.221  0.00  0.00    -0.279 N 
ATOM     10  O   UNL d   1      61.969  48.829  50.465  0.00  0.00    -0.244 OA
ATOM     11  O   UNL d   1      59.300  49.314  49.513  0.00  0.00    -0.263 OA
ATOM     12  C   UNL d   1      61.414  49.051  52.034  0.00  0.00     0.105 C 
ENDROOT
BRANCH   5  13
ATOM     13  S   UNL d   1      58.456  49.707  52.701  0.00  0.00    -0.049 SA
BRANCH  13  14
ATOM     14  C   UNL d   1      57.661  49.617  52.901  0.00  0.00     0.038 C 
BRANCH  14  15
ATOM     15  C   UNL d   1      57.437  49.568  53.694  0.00  0.00     0.007 A 
ATOM     16  C   UNL d   1      57.992  49.702  54.287  0.00  0.00     0.003 A 
ATOM     17  C   UNL d   1      57.773  49.654  55.077  0.00  0.00     0.030 A 
ATOM     18  C   UNL d   1      56.990  49.470  55.279  0.00  0.00     0.140 A 
ATOM     19  C   UNL d   1      56.436  49.336  54.684  0.00  0.00     0.030 A 
ATOM     20  F   UNL d   1      56.766  49.421  56.071  0.00  0.00    -0.204 F 
ATOM     21  C   UNL d   1      56.660  49.385  53.891  0.00  0.00     0.003 A 
ENDBRANCH  14  15
ENDBRANCH  13  14
ENDBRANCH   5  13
BRANCH   9  22
ATOM     22  C   UNL d   1      58.058  49.659  50.798  0.00  0.00     0.082 C 
BRANCH  22  23
ATOM     23  C   UNL d   1      57.493  49.057  50.781  0.00  0.00     0.019 C 
ATOM     24  C   UNL d   1      56.880  49.084  50.234  0.00  0.00     0.002 C 
ENDBRANCH  22  23
ENDBRANCH   9  22
TORSDOF 5
ENDMDL
