MODEL 1
REMARK VINA RESULT:      68.6      0.000      0.000
REMARK  4 active torsions:
REMARK  status: ('A' for Active; 'I' for Inactive)
REMARK    1  A    between atoms: C_2  and  C_1 
REMARK    2  A    between atoms: C_15  and  C_8 
REMARK    3  A    between atoms: C_9  and  C_15 
REMARK    4  A    between atoms: C_18  and  C_10 
ROOT
ATOM      1  C   UNL d   1     -55.494-102.072 -38.239  0.00  0.00     0.094 A 
ATOM      2  N   UNL d   1     -54.863-102.136 -38.767  0.00  0.00    -0.238 NA
ATOM      3  C   UNL d   1     -55.145-102.581 -39.411  0.00  0.00     0.113 A 
ATOM      4  S   UNL d   1     -55.948-102.790 -39.277  0.00  0.00    -0.066 SA
ATOM      5  C   UNL d   1     -56.149-102.467 -38.548  0.00  0.00     0.056 A 
ENDROOT
BRANCH   3   6
ATOM      6  C   UNL d   1     -54.715-102.786 -40.070  0.00  0.00     0.051 C 
BRANCH   6   7
ATOM      7  C   UNL d   1     -54.815-102.388 -40.774  0.00  0.00     0.113 A 
ATOM      8  N   UNL d   1     -54.954-102.661 -41.549  0.00  0.00    -0.238 NA
ATOM      9  C   UNL d   1     -55.010-101.994 -42.052  0.00  0.00     0.088 A 
ATOM     10  C   UNL d   1     -54.904-101.333 -41.571  0.00  0.00     0.056 A 
ATOM     11  S   UNL d   1     -54.786-101.558 -40.804  0.00  0.00    -0.066 SA
BRANCH   9  12
ATOM     12  C   UNL d   1     -55.143-102.019 -42.857  0.00  0.00     0.018 A 
ATOM     13  C   UNL d   1     -54.711-101.573 -43.369  0.00  0.00     0.002 A 
ATOM     14  C   UNL d   1     -54.850-101.601 -44.177  0.00  0.00     0.000 A 
ATOM     15  C   UNL d   1     -55.436-102.091 -44.464  0.00  0.00     0.000 A 
ATOM     16  C   UNL d   1     -55.875-102.543 -43.952  0.00  0.00     0.000 A 
ATOM     17  C   UNL d   1     -55.574-102.116 -45.291  0.00  0.00     0.000 C 
ATOM     18  C   UNL d   1     -55.732-102.510 -43.152  0.00  0.00     0.002 A 
ENDBRANCH   9  12
ENDBRANCH   6   7
ENDBRANCH   3   6
BRANCH   1  19
ATOM     19  C   UNL d   1     -55.384-101.649 -37.527  0.00  0.00     0.082 A 
ATOM     20  C   UNL d   1     -55.501-102.035 -36.750  0.00  0.00     0.302 A 
ATOM     21  O   UNL d   1     -55.388-101.600 -36.057  0.00  0.00    -0.273 OA
ATOM     22  O   UNL d   1     -55.734-102.861 -36.675  0.00  0.00    -0.259 OA
ATOM     23  C   UNL d   1     -55.161-100.793 -36.094  0.00  0.00     0.103 A 
ATOM     24  C   UNL d   1     -55.051-100.429 -36.825  0.00  0.00     0.023 A 
ATOM     25  C   UNL d   1     -55.057-100.391 -35.379  0.00  0.00     0.025 A 
ATOM     26  C   UNL d   1     -55.161-100.852 -37.541  0.00  0.00     0.009 A 
ATOM     27  C   UNL d   1     -54.825 -99.624 -36.857  0.00  0.00     0.002 A 
ATOM     28  C   UNL d   1     -54.711 -99.189 -36.162  0.00  0.00     0.000 A 
ATOM     29  C   UNL d   1     -54.832 -99.588 -35.414  0.00  0.00     0.002 A 
ENDBRANCH   1  19
TORSDOF 4
ENDMDL
