MODEL 1
REMARK VINA RESULT:      21.0      0.000      0.000
REMARK  4 active torsions:
REMARK  status: ('A' for Active; 'I' for Inactive)
REMARK    1  A    between atoms: C_6  and  C_1 
REMARK    2  A    between atoms: C_3  and  C_5 
REMARK    3  A    between atoms: C_5  and  C_6 
REMARK    4  A    between atoms: C_17  and  C_13 
ROOT
ATOM      1  C   UNL d   1      46.143 -17.062  43.648  0.00  0.00     0.202 C 
ATOM      2  O   UNL d   1      46.337 -16.563  43.005  0.00  0.00    -0.286 OA
ENDROOT
BRANCH   1   3
ATOM      3  C   UNL d   1      46.270 -17.891  43.563  0.00  0.00     0.078 A 
ATOM      4  C   UNL d   1      46.333 -18.211  42.776  0.00  0.00     0.202 A 
ATOM      5  C   UNL d   1      46.458 -19.022  42.693  0.00  0.00     0.084 A 
ATOM      6  O   UNL d   1      46.268 -17.714  42.120  0.00  0.00    -0.286 OA
ATOM      7  C   UNL d   1      46.521 -19.510  43.345  0.00  0.00     0.199 A 
ATOM      8  C   UNL d   1      46.459 -19.195  44.119  0.00  0.00     0.039 A 
ATOM      9  O   UNL d   1      46.647 -20.330  43.267  0.00  0.00    -0.286 OA
ATOM     10  C   UNL d   1      46.333 -18.374  44.224  0.00  0.00     0.010 A 
BRANCH   8  11
ATOM     11  C   UNL d   1      46.523 -19.684  44.781  0.00  0.00     0.003 C 
ATOM     12  C   UNL d   1      45.930 -20.262  44.946  0.00  0.00     0.000 C 
ENDBRANCH   8  11
ENDBRANCH   1   3
BRANCH   1  13
ATOM     13  C   UNL d   1      45.835 -16.753  44.348  0.00  0.00     0.081 C 
BRANCH  13  14
ATOM     14  C   UNL d   1      45.741 -15.925  44.425  0.00  0.00     0.166 A 
ATOM     15  N   UNL d   1      46.291 -15.409  44.741  0.00  0.00    -0.225 NA
ATOM     16  C   UNL d   1      45.970 -14.645  44.709  0.00  0.00     0.101 A 
ATOM     17  C   UNL d   1      46.272 -13.917  44.946  0.00  0.00     0.021 A 
ATOM     18  C   UNL d   1      45.225 -14.698  44.374  0.00  0.00     0.101 A 
ATOM     19  C   UNL d   1      45.836 -13.224  44.853  0.00  0.00     0.002 A 
ATOM     20  C   UNL d   1      45.078 -13.280  44.512  0.00  0.00     0.002 A 
ATOM     21  C   UNL d   1      44.774 -14.013  44.274  0.00  0.00     0.021 A 
ATOM     22  N   UNL d   1      45.069 -15.483  44.194  0.00  0.00    -0.225 NA
ENDBRANCH  13  14
ENDBRANCH   1  13
TORSDOF 4
ENDMDL
