MODEL 1
REMARK VINA RESULT:      -2.6      0.000      0.000
REMARK  4 active torsions:
REMARK  status: ('A' for Active; 'I' for Inactive)
REMARK    1  A    between atoms: N_2  and  S_1 
REMARK    2  A    between atoms: C_7  and  S_1 
REMARK    3  A    between atoms: S_9  and  C_3 
REMARK    4  A    between atoms: C_13  and  S_9 
ROOT
ATOM      1  S   UNL d   1      31.339  16.433 -24.588  0.00  0.00     0.273 S 
ATOM      2  O   UNL d   1      30.929  15.751 -24.787  0.00  0.00    -0.200 OA
ATOM      3  O   UNL d   1      31.915  15.838 -24.622  0.00  0.00    -0.200 OA
ENDROOT
BRANCH   1   4
ATOM      4  N   UNL d   1      30.612  16.833 -24.616  0.00  0.00    -0.208 N 
ATOM      5  C   UNL d   1      29.934  16.646 -24.169  0.00  0.00     0.189 A 
ATOM      6  N   UNL d   1      29.334  17.184 -24.369  0.00  0.00    -0.219 NA
ATOM      7  C   UNL d   1      29.643  17.703 -24.939  0.00  0.00     0.121 A 
ATOM      8  C   UNL d   1      30.428  17.492 -25.095  0.00  0.00     0.114 A 
BRANCH   5   9
ATOM      9  S   UNL d   1      29.870  16.024 -23.617  0.00  0.00    -0.049 SA
BRANCH   9  10
ATOM     10  C   UNL d   1      29.145  15.875 -23.248  0.00  0.00     0.038 C 
ATOM     11  C   UNL d   1      29.127  15.453 -22.538  0.00  0.00     0.008 C 
ENDBRANCH   9  10
ENDBRANCH   5   9
ENDBRANCH   1   4
BRANCH   1  12
ATOM     12  C   UNL d   1      31.769  17.111 -24.387  0.00  0.00     0.104 A 
ATOM     13  C   UNL d   1      32.015  17.623 -24.980  0.00  0.00     0.013 A 
ATOM     14  C   UNL d   1      32.443  18.298 -24.779  0.00  0.00     0.001 A 
ATOM     15  C   UNL d   1      32.620  18.455 -23.989  0.00  0.00     0.000 A 
ATOM     16  C   UNL d   1      32.371  17.940 -23.400  0.00  0.00     0.001 A 
ATOM     17  C   UNL d   1      31.941  17.261 -23.605  0.00  0.00     0.013 A 
ENDBRANCH   1  12
TORSDOF 4
ENDMDL
MODEL 2
REMARK VINA RESULT:      -2.5      1.264      3.101
REMARK  4 active torsions:
REMARK  status: ('A' for Active; 'I' for Inactive)
REMARK    1  A    between atoms: N_2  and  S_1 
REMARK    2  A    between atoms: C_7  and  S_1 
REMARK    3  A    between atoms: S_9  and  C_3 
REMARK    4  A    between atoms: C_13  and  S_9 
ROOT
ATOM      1  S   UNL d   1      30.015  17.074 -24.725  0.00  0.00     0.273 S 
ATOM      2  O   UNL d   1      30.521  17.625 -25.061  0.00  0.00    -0.200 OA
ATOM      3  O   UNL d   1      29.558  17.759 -24.816  0.00  0.00    -0.200 OA
ENDROOT
BRANCH   1   4
ATOM      4  N   UNL d   1      30.651  16.539 -24.737  0.00  0.00    -0.208 N 
ATOM      5  C   UNL d   1      31.398  16.661 -24.389  0.00  0.00     0.189 A 
ATOM      6  N   UNL d   1      31.864  15.989 -24.533  0.00  0.00    -0.219 NA
ATOM      7  C   UNL d   1      31.402  15.453 -24.968  0.00  0.00     0.121 A 
ATOM      8  C   UNL d   1      30.656  15.785 -25.097  0.00  0.00     0.114 A 
BRANCH   5   9
ATOM      9  S   UNL d   1      31.636  17.341 -23.971  0.00  0.00    -0.049 SA
BRANCH   9  10
ATOM     10  C   UNL d   1      32.401  17.385 -23.658  0.00  0.00     0.038 C 
ATOM     11  C   UNL d   1      32.622  18.044 -23.211  0.00  0.00     0.008 C 
ENDBRANCH   9  10
ENDBRANCH   5   9
ENDBRANCH   1   4
BRANCH   1  12
ATOM     12  C   UNL d   1      29.491  16.531 -24.386  0.00  0.00     0.104 A 
ATOM     13  C   UNL d   1      29.067  16.022 -24.872  0.00  0.00     0.013 A 
ATOM     14  C   UNL d   1      28.545  15.482 -24.533  0.00  0.00     0.001 A 
ATOM     15  C   UNL d   1      28.451  15.454 -23.714  0.00  0.00     0.000 A 
ATOM     16  C   UNL d   1      28.877  15.965 -23.233  0.00  0.00     0.001 A 
ATOM     17  C   UNL d   1      29.402  16.508 -23.576  0.00  0.00     0.013 A 
ENDBRANCH   1  12
TORSDOF 4
ENDMDL
MODEL 3
REMARK VINA RESULT:      -2.3      1.273      1.768
REMARK  4 active torsions:
REMARK  status: ('A' for Active; 'I' for Inactive)
REMARK    1  A    between atoms: N_2  and  S_1 
REMARK    2  A    between atoms: C_7  and  S_1 
REMARK    3  A    between atoms: S_9  and  C_3 
REMARK    4  A    between atoms: C_13  and  S_9 
ROOT
ATOM      1  S   UNL d   1      31.357  17.405 -24.677  0.00  0.00     0.273 S 
ATOM      2  O   UNL d   1      30.727  16.973 -24.976  0.00  0.00    -0.200 OA
ATOM      3  O   UNL d   1      30.829  17.972 -24.973  0.00  0.00    -0.200 OA
ENDROOT
BRANCH   1   4
ATOM      4  N   UNL d   1      31.704  16.681 -24.464  0.00  0.00    -0.208 N 
ATOM      5  C   UNL d   1      31.350  16.089 -23.996  0.00  0.00     0.189 A 
ATOM      6  N   UNL d   1      31.888  15.461 -23.922  0.00  0.00    -0.219 NA
ATOM      7  C   UNL d   1      32.574  15.667 -24.345  0.00  0.00     0.121 A 
ATOM      8  C   UNL d   1      32.466  16.415 -24.680  0.00  0.00     0.114 A 
BRANCH   5   9
ATOM      9  S   UNL d   1      30.588  16.123 -23.661  0.00  0.00    -0.049 SA
BRANCH   9  10
ATOM     10  C   UNL d   1      30.270  15.453 -23.294  0.00  0.00     0.038 C 
ATOM     11  C   UNL d   1      29.619  15.532 -22.791  0.00  0.00     0.008 C 
ENDBRANCH   9  10
ENDBRANCH   5   9
ENDBRANCH   1   4
BRANCH   1  12
ATOM     12  C   UNL d   1      31.984  17.857 -24.379  0.00  0.00     0.104 A 
ATOM     13  C   UNL d   1      31.969  18.101 -23.595  0.00  0.00     0.013 A 
ATOM     14  C   UNL d   1      32.593  18.550 -23.300  0.00  0.00     0.001 A 
ATOM     15  C   UNL d   1      33.226  18.752 -23.790  0.00  0.00     0.000 A 
ATOM     16  C   UNL d   1      33.236  18.505 -24.573  0.00  0.00     0.001 A 
ATOM     17  C   UNL d   1      32.606  18.053 -24.868  0.00  0.00     0.013 A 
ENDBRANCH   1  12
TORSDOF 4
ENDMDL
MODEL 4
REMARK VINA RESULT:      -2.1      1.606      3.041
REMARK  4 active torsions:
REMARK  status: ('A' for Active; 'I' for Inactive)
REMARK    1  A    between atoms: N_2  and  S_1 
REMARK    2  A    between atoms: C_7  and  S_1 
REMARK    3  A    between atoms: S_9  and  C_3 
REMARK    4  A    between atoms: C_13  and  S_9 
ROOT
ATOM      1  S   UNL d   1      32.350  16.739 -23.670  0.00  0.00     0.273 S 
ATOM      2  O   UNL d   1      33.096  16.809 -23.334  0.00  0.00    -0.200 OA
ATOM      3  O   UNL d   1      32.417  16.092 -23.156  0.00  0.00    -0.200 OA
ENDROOT
BRANCH   1   4
ATOM      4  N   UNL d   1      32.519  17.433 -24.095  0.00  0.00    -0.208 N 
ATOM      5  C   UNL d   1      32.773  18.156 -23.769  0.00  0.00     0.189 A 
ATOM      6  N   UNL d   1      32.875  18.699 -24.389  0.00  0.00    -0.219 NA
ATOM      7  C   UNL d   1      32.684  18.309 -25.097  0.00  0.00     0.121 A 
ATOM      8  C   UNL d   1      32.464  17.531 -24.923  0.00  0.00     0.114 A 
BRANCH   5   9
ATOM      9  S   UNL d   1      32.902  18.307 -22.959  0.00  0.00    -0.049 SA
BRANCH   9  10
ATOM     10  C   UNL d   1      33.232  19.028 -22.723  0.00  0.00     0.038 C 
ATOM     11  C   UNL d   1      33.232  19.235 -21.923  0.00  0.00     0.008 C 
ENDBRANCH   9  10
ENDBRANCH   5   9
ENDBRANCH   1   4
BRANCH   1  12
ATOM     12  C   UNL d   1      31.596  16.653 -23.998  0.00  0.00     0.104 A 
ATOM     13  C   UNL d   1      31.503  16.216 -24.688  0.00  0.00     0.013 A 
ATOM     14  C   UNL d   1      30.752  16.131 -25.014  0.00  0.00     0.001 A 
ATOM     15  C   UNL d   1      30.100  16.483 -24.650  0.00  0.00     0.000 A 
ATOM     16  C   UNL d   1      30.198  16.919 -23.961  0.00  0.00     0.001 A 
ATOM     17  C   UNL d   1      30.956  17.003 -23.634  0.00  0.00     0.013 A 
ENDBRANCH   1  12
TORSDOF 4
ENDMDL
MODEL 5
REMARK VINA RESULT:      -1.1      5.478      6.399
REMARK  4 active torsions:
REMARK  status: ('A' for Active; 'I' for Inactive)
REMARK    1  A    between atoms: N_2  and  S_1 
REMARK    2  A    between atoms: C_7  and  S_1 
REMARK    3  A    between atoms: S_9  and  C_3 
REMARK    4  A    between atoms: C_13  and  S_9 
ROOT
ATOM      1  S   UNL d   1      32.007  21.723 -20.825  0.00  0.00     0.273 S 
ATOM      2  O   UNL d   1      31.633  21.114 -21.227  0.00  0.00    -0.200 OA
ATOM      3  O   UNL d   1      31.439  21.434 -20.296  0.00  0.00    -0.200 OA
ENDROOT
BRANCH   1   4
ATOM      4  N   UNL d   1      32.478  21.830 -21.502  0.00  0.00    -0.208 N 
ATOM      5  C   UNL d   1      32.816  21.222 -21.962  0.00  0.00     0.189 A 
ATOM      6  N   UNL d   1      33.241  21.573 -22.582  0.00  0.00    -0.219 NA
ATOM      7  C   UNL d   1      33.165  22.397 -22.504  0.00  0.00     0.121 A 
ATOM      8  C   UNL d   1      32.697  22.560 -21.841  0.00  0.00     0.114 A 
BRANCH   5   9
ATOM      9  S   UNL d   1      32.738  20.405 -21.822  0.00  0.00    -0.049 SA
BRANCH   9  10
ATOM     10  C   UNL d   1      33.231  19.871 -22.219  0.00  0.00     0.038 C 
ATOM     11  C   UNL d   1      33.239  19.077 -21.993  0.00  0.00     0.008 C 
ENDBRANCH   9  10
ENDBRANCH   5   9
ENDBRANCH   1   4
BRANCH   1  12
ATOM     12  C   UNL d   1      32.374  22.335 -20.405  0.00  0.00     0.104 A 
ATOM     13  C   UNL d   1      32.719  22.174 -19.677  0.00  0.00     0.013 A 
ATOM     14  C   UNL d   1      33.084  22.783 -19.260  0.00  0.00     0.001 A 
ATOM     15  C   UNL d   1      33.101  23.546 -19.572  0.00  0.00     0.000 A 
ATOM     16  C   UNL d   1      32.754  23.702 -20.300  0.00  0.00     0.001 A 
ATOM     17  C   UNL d   1      32.387  23.087 -20.718  0.00  0.00     0.013 A 
ENDBRANCH   1  12
TORSDOF 4
ENDMDL
