MODEL 1
REMARK VINA RESULT:      -3.1      0.000      0.000
REMARK  3 active torsions:
REMARK  status: ('A' for Active; 'I' for Inactive)
REMARK    1  A    between atoms: N_2  and  C_1 
REMARK       I    between atoms: C_5  and  N_2 
REMARK    2  A    between atoms: C_8  and  C_5 
REMARK    3  A    between atoms: O_17  and  C_13 
ROOT
ATOM      1  N   UNL d   1      32.765  19.884 -22.995  0.00  0.00    -0.184 NA
ATOM      2  C   UNL d   1      32.956  20.006 -22.201  0.00  0.00     0.281 C 
ATOM      3  O   UNL d   1      33.241  19.367 -21.762  0.00  0.00    -0.265 OA
ENDROOT
BRANCH   1   4
ATOM      4  C   UNL d   1      32.866  19.128 -23.322  0.00  0.00     0.182 A 
ATOM      5  N   UNL d   1      33.044  18.920 -24.117  0.00  0.00    -0.283 N 
ATOM      6  C   UNL d   1      33.080  18.068 -24.121  0.00  0.00     0.072 A 
ATOM      7  C   UNL d   1      33.153  19.421 -24.723  0.00  0.00     0.101 C 
ATOM      8  C   UNL d   1      33.234  17.512 -24.735  0.00  0.00     0.018 A 
ATOM      9  C   UNL d   1      32.931  17.822 -23.379  0.00  0.00     0.048 A 
ATOM     10  C   UNL d   1      33.229  16.685 -24.554  0.00  0.00     0.002 A 
ATOM     11  C   UNL d   1      33.078  16.445 -23.797  0.00  0.00     0.001 A 
ATOM     12  C   UNL d   1      32.924  16.995 -23.187  0.00  0.00     0.008 A 
ATOM     13  S   UNL d   1      32.801  18.442 -22.889  0.00  0.00    -0.048 SA
ENDBRANCH   1   4
BRANCH   2  14
ATOM     14  C   UNL d   1      32.876  20.723 -21.834  0.00  0.00     0.058 A 
ATOM     15  C   UNL d   1      33.216  21.383 -22.163  0.00  0.00     0.007 A 
ATOM     16  C   UNL d   1      33.132  22.112 -21.786  0.00  0.00     0.024 A 
ATOM     17  C   UNL d   1      32.711  22.168 -21.089  0.00  0.00     0.094 A 
ATOM     18  C   UNL d   1      32.370  21.506 -20.760  0.00  0.00     0.024 A 
ATOM     19  C   UNL d   1      32.442  20.752 -21.126  0.00  0.00     0.007 A 
BRANCH  17  20
ATOM     20  O   UNL d   1      32.631  22.905 -20.715  0.00  0.00    -0.328 OA
ATOM     21  C   UNL d   1      32.250  23.624 -21.049  0.00  0.00     0.181 C 
ENDBRANCH  17  20
ENDBRANCH   2  14
TORSDOF 3
ENDMDL
MODEL 2
REMARK VINA RESULT:      -2.8      1.449      4.839
REMARK  3 active torsions:
REMARK  status: ('A' for Active; 'I' for Inactive)
REMARK    1  A    between atoms: N_2  and  C_1 
REMARK       I    between atoms: C_5  and  N_2 
REMARK    2  A    between atoms: C_8  and  C_5 
REMARK    3  A    between atoms: O_17  and  C_13 
ROOT
ATOM      1  N   UNL d   1      32.884  20.999 -22.399  0.00  0.00    -0.184 NA
ATOM      2  C   UNL d   1      33.063  20.223 -22.181  0.00  0.00     0.281 C 
ATOM      3  O   UNL d   1      33.240  20.068 -21.389  0.00  0.00    -0.265 OA
ENDROOT
BRANCH   1   4
ATOM      4  C   UNL d   1      32.889  21.593 -21.819  0.00  0.00     0.182 A 
ATOM      5  N   UNL d   1      33.049  22.413 -21.908  0.00  0.00    -0.283 N 
ATOM      6  C   UNL d   1      32.973  22.742 -21.125  0.00  0.00     0.072 A 
ATOM      7  C   UNL d   1      33.231  22.788 -22.584  0.00  0.00     0.101 C 
ATOM      8  C   UNL d   1      33.061  23.527 -20.830  0.00  0.00     0.018 A 
ATOM      9  C   UNL d   1      32.784  22.143 -20.635  0.00  0.00     0.048 A 
ATOM     10  C   UNL d   1      32.945  23.672 -20.004  0.00  0.00     0.002 A 
ATOM     11  C   UNL d   1      32.754  23.058 -19.515  0.00  0.00     0.001 A 
ATOM     12  C   UNL d   1      32.666  22.279 -19.806  0.00  0.00     0.008 A 
ATOM     13  S   UNL d   1      32.730  21.451 -21.034  0.00  0.00    -0.048 SA
ENDBRANCH   1   4
BRANCH   2  14
ATOM     14  C   UNL d   1      33.071  19.609 -22.707  0.00  0.00     0.058 A 
ATOM     15  C   UNL d   1      33.233  19.753 -23.490  0.00  0.00     0.007 A 
ATOM     16  C   UNL d   1      33.241  19.124 -24.023  0.00  0.00     0.024 A 
ATOM     17  C   UNL d   1      33.087  18.364 -23.766  0.00  0.00     0.094 A 
ATOM     18  C   UNL d   1      32.925  18.221 -22.982  0.00  0.00     0.024 A 
ATOM     19  C   UNL d   1      32.912  18.847 -22.419  0.00  0.00     0.007 A 
BRANCH  17  20
ATOM     20  O   UNL d   1      33.097  17.737 -24.309  0.00  0.00    -0.328 OA
ATOM     21  C   UNL d   1      32.407  17.409 -24.746  0.00  0.00     0.181 C 
ENDBRANCH  17  20
ENDBRANCH   2  14
TORSDOF 3
ENDMDL
MODEL 3
REMARK VINA RESULT:      -2.8      1.094      1.464
REMARK  3 active torsions:
REMARK  status: ('A' for Active; 'I' for Inactive)
REMARK    1  A    between atoms: N_2  and  C_1 
REMARK       I    between atoms: C_5  and  N_2 
REMARK    2  A    between atoms: C_8  and  C_5 
REMARK    3  A    between atoms: O_17  and  C_13 
ROOT
ATOM      1  N   UNL d   1      32.489  18.818 -23.418  0.00  0.00    -0.184 NA
ATOM      2  C   UNL d   1      32.892  18.946 -22.708  0.00  0.00     0.281 C 
ATOM      3  O   UNL d   1      33.221  18.296 -22.320  0.00  0.00    -0.265 OA
ENDROOT
BRANCH   1   4
ATOM      4  C   UNL d   1      32.429  18.045 -23.714  0.00  0.00     0.182 A 
ATOM      5  N   UNL d   1      31.761  17.662 -24.050  0.00  0.00    -0.283 N 
ATOM      6  C   UNL d   1      32.031  16.878 -24.252  0.00  0.00     0.072 A 
ATOM      7  C   UNL d   1      31.038  17.975 -24.152  0.00  0.00     0.101 C 
ATOM      8  C   UNL d   1      31.642  16.219 -24.604  0.00  0.00     0.018 A 
ATOM      9  C   UNL d   1      32.797  16.832 -24.041  0.00  0.00     0.048 A 
ATOM     10  C   UNL d   1      32.076  15.504 -24.733  0.00  0.00     0.002 A 
ATOM     11  C   UNL d   1      32.853  15.466 -24.515  0.00  0.00     0.001 A 
ATOM     12  C   UNL d   1      33.241  16.119 -24.165  0.00  0.00     0.008 A 
ATOM     13  S   UNL d   1      33.050  17.520 -23.718  0.00  0.00    -0.048 SA
ENDBRANCH   1   4
BRANCH   2  14
ATOM     14  C   UNL d   1      32.978  19.679 -22.378  0.00  0.00     0.058 A 
ATOM     15  C   UNL d   1      33.154  20.316 -22.852  0.00  0.00     0.007 A 
ATOM     16  C   UNL d   1      33.241  21.062 -22.510  0.00  0.00     0.024 A 
ATOM     17  C   UNL d   1      33.151  21.158 -21.704  0.00  0.00     0.094 A 
ATOM     18  C   UNL d   1      32.976  20.521 -21.231  0.00  0.00     0.024 A 
ATOM     19  C   UNL d   1      32.882  19.750 -21.556  0.00  0.00     0.007 A 
BRANCH  17  20
ATOM     20  O   UNL d   1      33.241  21.912 -21.368  0.00  0.00    -0.328 OA
ATOM     21  C   UNL d   1      32.762  22.257 -20.716  0.00  0.00     0.181 C 
ENDBRANCH  17  20
ENDBRANCH   2  14
TORSDOF 3
ENDMDL
MODEL 4
REMARK VINA RESULT:      -1.7      3.319      4.774
REMARK  3 active torsions:
REMARK  status: ('A' for Active; 'I' for Inactive)
REMARK    1  A    between atoms: N_2  and  C_1 
REMARK       I    between atoms: C_5  and  N_2 
REMARK    2  A    between atoms: C_8  and  C_5 
REMARK    3  A    between atoms: O_17  and  C_13 
ROOT
ATOM      1  N   UNL d   1      32.822  22.284 -19.722  0.00  0.00    -0.184 NA
ATOM      2  C   UNL d   1      32.837  23.001 -19.313  0.00  0.00     0.281 C 
ATOM      3  O   UNL d   1      32.856  23.702 -19.749  0.00  0.00    -0.265 OA
ENDROOT
BRANCH   1   4
ATOM      4  C   UNL d   1      32.826  22.292 -20.551  0.00  0.00     0.182 A 
ATOM      5  N   UNL d   1      32.572  21.693 -21.084  0.00  0.00    -0.283 N 
ATOM      6  C   UNL d   1      32.710  22.014 -21.862  0.00  0.00     0.072 A 
ATOM      7  C   UNL d   1      32.271  20.985 -20.889  0.00  0.00     0.101 C 
ATOM      8  C   UNL d   1      32.578  21.702 -22.634  0.00  0.00     0.018 A 
ATOM      9  C   UNL d   1      33.019  22.742 -21.766  0.00  0.00     0.048 A 
ATOM     10  C   UNL d   1      32.779  22.172 -23.309  0.00  0.00     0.002 A 
ATOM     11  C   UNL d   1      33.093  22.909 -23.201  0.00  0.00     0.001 A 
ATOM     12  C   UNL d   1      33.224  23.220 -22.436  0.00  0.00     0.008 A 
ATOM     13  S   UNL d   1      33.095  22.923 -20.990  0.00  0.00    -0.048 SA
ENDBRANCH   1   4
BRANCH   2  14
ATOM     14  C   UNL d   1      32.833  23.048 -18.505  0.00  0.00     0.058 A 
ATOM     15  C   UNL d   1      32.438  23.656 -18.140  0.00  0.00     0.007 A 
ATOM     16  C   UNL d   1      32.437  23.700 -17.316  0.00  0.00     0.024 A 
ATOM     17  C   UNL d   1      32.830  23.137 -16.874  0.00  0.00     0.094 A 
ATOM     18  C   UNL d   1      33.226  22.528 -17.241  0.00  0.00     0.024 A 
ATOM     19  C   UNL d   1      33.241  22.463 -18.080  0.00  0.00     0.007 A 
BRANCH  17  20
ATOM     20  O   UNL d   1      32.824  23.188 -16.045  0.00  0.00    -0.328 OA
ATOM     21  C   UNL d   1      33.124  22.585 -15.479  0.00  0.00     0.181 C 
ENDBRANCH  17  20
ENDBRANCH   2  14
TORSDOF 3
ENDMDL
MODEL 5
REMARK VINA RESULT:      -1.5      1.752      2.908
REMARK  3 active torsions:
REMARK  status: ('A' for Active; 'I' for Inactive)
REMARK    1  A    between atoms: N_2  and  C_1 
REMARK       I    between atoms: C_5  and  N_2 
REMARK    2  A    between atoms: C_8  and  C_5 
REMARK    3  A    between atoms: O_17  and  C_13 
ROOT
ATOM      1  N   UNL d   1      32.907  21.262 -20.980  0.00  0.00    -0.184 NA
ATOM      2  C   UNL d   1      33.037  22.075 -20.917  0.00  0.00     0.281 C 
ATOM      3  O   UNL d   1      33.236  22.497 -21.599  0.00  0.00    -0.265 OA
ENDROOT
BRANCH   1   4
ATOM      4  C   UNL d   1      32.981  20.899 -21.723  0.00  0.00     0.182 A 
ATOM      5  N   UNL d   1      33.019  20.079 -21.905  0.00  0.00    -0.283 N 
ATOM      6  C   UNL d   1      33.094  20.042 -22.754  0.00  0.00     0.072 A 
ATOM      7  C   UNL d   1      32.990  19.478 -21.386  0.00  0.00     0.101 C 
ATOM      8  C   UNL d   1      33.157  19.394 -23.288  0.00  0.00     0.018 A 
ATOM      9  C   UNL d   1      33.097  20.792 -23.023  0.00  0.00     0.048 A 
ATOM     10  C   UNL d   1      33.225  19.548 -24.118  0.00  0.00     0.002 A 
ATOM     11  C   UNL d   1      33.228  20.312 -24.381  0.00  0.00     0.001 A 
ATOM     12  C   UNL d   1      33.165  20.956 -23.853  0.00  0.00     0.008 A 
ATOM     13  S   UNL d   1      33.031  21.315 -22.420  0.00  0.00    -0.048 SA
ENDBRANCH   1   4
BRANCH   2  14
ATOM     14  C   UNL d   1      32.977  22.477 -20.217  0.00  0.00     0.058 A 
ATOM     15  C   UNL d   1      33.140  22.094 -19.519  0.00  0.00     0.007 A 
ATOM     16  C   UNL d   1      33.078  22.508 -18.808  0.00  0.00     0.024 A 
ATOM     17  C   UNL d   1      32.855  23.293 -18.807  0.00  0.00     0.094 A 
ATOM     18  C   UNL d   1      32.693  23.676 -19.506  0.00  0.00     0.024 A 
ATOM     19  C   UNL d   1      32.749  23.275 -20.244  0.00  0.00     0.007 A 
BRANCH  17  20
ATOM     20  O   UNL d   1      32.795  23.702 -18.087  0.00  0.00    -0.328 OA
ATOM     21  C   UNL d   1      32.480  23.387 -17.329  0.00  0.00     0.181 C 
ENDBRANCH  17  20
ENDBRANCH   2  14
TORSDOF 3
ENDMDL
MODEL 6
REMARK VINA RESULT:      -0.8      1.541      4.786
REMARK  3 active torsions:
REMARK  status: ('A' for Active; 'I' for Inactive)
REMARK    1  A    between atoms: N_2  and  C_1 
REMARK       I    between atoms: C_5  and  N_2 
REMARK    2  A    between atoms: C_8  and  C_5 
REMARK    3  A    between atoms: O_17  and  C_13 
ROOT
ATOM      1  N   UNL d   1      33.241  19.869 -23.039  0.00  0.00    -0.184 NA
ATOM      2  C   UNL d   1      32.566  19.494 -23.335  0.00  0.00     0.281 C 
ATOM      3  O   UNL d   1      31.915  19.959 -23.538  0.00  0.00    -0.265 OA
ENDROOT
BRANCH   1   4
ATOM      4  C   UNL d   1      33.239  20.695 -22.957  0.00  0.00     0.182 A 
ATOM      5  N   UNL d   1      33.239  21.152 -22.252  0.00  0.00    -0.283 N 
ATOM      6  C   UNL d   1      33.238  21.964 -22.512  0.00  0.00     0.072 A 
ATOM      7  C   UNL d   1      33.241  20.874 -21.508  0.00  0.00     0.101 C 
ATOM      8  C   UNL d   1      33.237  22.694 -22.091  0.00  0.00     0.018 A 
ATOM      9  C   UNL d   1      33.237  21.956 -23.309  0.00  0.00     0.048 A 
ATOM     10  C   UNL d   1      33.235  23.421 -22.524  0.00  0.00     0.002 A 
ATOM     11  C   UNL d   1      33.235  23.402 -23.332  0.00  0.00     0.001 A 
ATOM     12  C   UNL d   1      33.235  22.680 -23.752  0.00  0.00     0.008 A 
ATOM     13  S   UNL d   1      33.238  21.206 -23.590  0.00  0.00    -0.048 SA
ENDBRANCH   1   4
BRANCH   2  14
ATOM     14  C   UNL d   1      32.516  18.693 -23.434  0.00  0.00     0.058 A 
ATOM     15  C   UNL d   1      32.830  18.198 -22.871  0.00  0.00     0.007 A 
ATOM     16  C   UNL d   1      32.776  17.381 -22.976  0.00  0.00     0.024 A 
ATOM     17  C   UNL d   1      32.412  17.075 -23.640  0.00  0.00     0.094 A 
ATOM     18  C   UNL d   1      32.099  17.571 -24.203  0.00  0.00     0.024 A 
ATOM     19  C   UNL d   1      32.141  18.408 -24.118  0.00  0.00     0.007 A 
BRANCH  17  20
ATOM     20  O   UNL d   1      32.363  16.252 -23.738  0.00  0.00    -0.328 OA
ATOM     21  C   UNL d   1      32.827  15.762 -24.302  0.00  0.00     0.181 C 
ENDBRANCH  17  20
ENDBRANCH   2  14
TORSDOF 3
ENDMDL
MODEL 7
REMARK VINA RESULT:      -0.6      4.010      5.650
REMARK  3 active torsions:
REMARK  status: ('A' for Active; 'I' for Inactive)
REMARK    1  A    between atoms: N_2  and  C_1 
REMARK       I    between atoms: C_5  and  N_2 
REMARK    2  A    between atoms: C_8  and  C_5 
REMARK    3  A    between atoms: O_17  and  C_13 
ROOT
ATOM      1  N   UNL d   1      30.242  16.607 -23.908  0.00  0.00    -0.184 NA
ATOM      2  C   UNL d   1      29.503  16.870 -24.166  0.00  0.00     0.281 C 
ATOM      3  O   UNL d   1      29.472  17.520 -24.675  0.00  0.00    -0.265 OA
ENDROOT
BRANCH   1   4
ATOM      4  C   UNL d   1      30.924  17.003 -24.167  0.00  0.00     0.182 A 
ATOM      5  N   UNL d   1      31.572  16.699 -24.608  0.00  0.00    -0.283 N 
ATOM      6  C   UNL d   1      32.102  17.359 -24.709  0.00  0.00     0.072 A 
ATOM      7  C   UNL d   1      31.658  15.954 -24.868  0.00  0.00     0.101 C 
ATOM      8  C   UNL d   1      32.848  17.432 -25.095  0.00  0.00     0.018 A 
ATOM      9  C   UNL d   1      31.769  17.986 -24.348  0.00  0.00     0.048 A 
ATOM     10  C   UNL d   1      33.241  18.182 -25.096  0.00  0.00     0.002 A 
ATOM     11  C   UNL d   1      32.895  18.812 -24.727  0.00  0.00     0.001 A 
ATOM     12  C   UNL d   1      32.156  18.742 -24.343  0.00  0.00     0.008 A 
ATOM     13  S   UNL d   1      31.066  17.791 -24.020  0.00  0.00    -0.048 SA
ENDBRANCH   1   4
BRANCH   2  14
ATOM     14  C   UNL d   1      28.809  16.520 -23.944  0.00  0.00     0.058 A 
ATOM     15  C   UNL d   1      28.509  15.906 -24.384  0.00  0.00     0.007 A 
ATOM     16  C   UNL d   1      27.801  15.551 -24.153  0.00  0.00     0.024 A 
ATOM     17  C   UNL d   1      27.406  15.815 -23.489  0.00  0.00     0.094 A 
ATOM     18  C   UNL d   1      27.707  16.429 -23.049  0.00  0.00     0.024 A 
ATOM     19  C   UNL d   1      28.427  16.807 -23.264  0.00  0.00     0.007 A 
BRANCH  17  20
ATOM     20  O   UNL d   1      26.694  15.453 -23.264  0.00  0.00    -0.328 OA
ATOM     21  C   UNL d   1      25.936  15.459 -23.711  0.00  0.00     0.181 C 
ENDBRANCH  17  20
ENDBRANCH   2  14
TORSDOF 3
ENDMDL
