MODEL 1
REMARK VINA RESULT:      51.2      0.000      0.000
REMARK  4 active torsions:
REMARK  status: ('A' for Active; 'I' for Inactive)
REMARK       I    between atoms: C_6  and  N_7 
REMARK    1  A    between atoms: C_8  and  C_6 
REMARK    2  A    between atoms: N_7  and  C_14 
REMARK    3  A    between atoms: C_14  and  C_13 
REMARK    4  A    between atoms: O_17  and  C_15 
ROOT
ATOM      1  C   UNL d   1      58.507  49.670  51.548  0.00  0.00     0.279 C 
ATOM      2  N   UNL d   1      59.107  49.648  50.986  0.00  0.00    -0.206 NA
ATOM      3  O   UNL d   1      58.699  49.707  52.350  0.00  0.00    -0.265 OA
ENDROOT
BRANCH   2   4
ATOM      4  C   UNL d   1      59.897  49.663  51.215  0.00  0.00     0.102 C 
BRANCH   4   5
ATOM      5  C   UNL d   1      60.441  49.149  50.868  0.00  0.00     0.019 A 
ATOM      6  C   UNL d   1      61.117  49.445  50.500  0.00  0.00     0.003 A 
ATOM      7  C   UNL d   1      61.660  48.920  50.152  0.00  0.00     0.019 A 
ATOM      8  C   UNL d   1      61.524  48.108  50.174  0.00  0.00     0.081 A 
ATOM      9  C   UNL d   1      60.847  47.813  50.542  0.00  0.00     0.019 A 
ATOM     10  N   UNL d   1      61.960  47.476  49.881  0.00  0.00    -0.246 NA
ATOM     11  C   UNL d   1      60.306  48.329  50.888  0.00  0.00     0.003 A 
ATOM     12  C   UNL d   1      60.865  46.990  50.476  0.00  0.00     0.021 A 
ATOM     13  C   UNL d   1      61.551  46.784  50.068  0.00  0.00     0.082 A 
ATOM     14  C   UNL d   1      61.789  46.016  49.878  0.00  0.00     0.021 C 
ENDBRANCH   4   5
ENDBRANCH   2   4
BRANCH   1  15
ATOM     15  C   UNL d   1      57.719  49.654  51.310  0.00  0.00     0.060 A 
ATOM     16  C   UNL d   1      57.530  49.683  50.508  0.00  0.00     0.029 A 
ATOM     17  C   UNL d   1      56.744  49.667  50.272  0.00  0.00     0.094 A 
ATOM     18  C   UNL d   1      56.135  49.622  50.847  0.00  0.00     0.024 A 
ATOM     19  C   UNL d   1      56.324  49.593  51.649  0.00  0.00     0.002 A 
ATOM     20  C   UNL d   1      57.124  49.610  51.886  0.00  0.00     0.005 A 
BRANCH  17  21
ATOM     21  O   UNL d   1      56.546  49.695  49.467  0.00  0.00    -0.328 OA
ATOM     22  C   UNL d   1      57.051  49.369  48.900  0.00  0.00     0.181 C 
ENDBRANCH  17  21
ENDBRANCH   1  15
TORSDOF 4
ENDMDL
