MODEL 1
REMARK VINA RESULT:      33.7      0.000      0.000
REMARK  2 active torsions:
REMARK  status: ('A' for Active; 'I' for Inactive)
REMARK    1  A    between atoms: C_6  and  C_1 
REMARK    2  A    between atoms: N_8  and  C_6 
ROOT
ATOM      1  C   UNL d   1     -56.477 -98.769 -43.856  0.00  0.00     0.090 C 
ENDROOT
BRANCH   1   2
ATOM      2  C   UNL d   1     -57.262 -98.773 -44.114  0.00  0.00     0.133 A 
ATOM      3  C   UNL d   1     -57.421 -98.766 -44.924  0.00  0.00     0.289 A 
ATOM      4  N   UNL d   1     -58.203 -98.770 -45.190  0.00  0.00    -0.151 NA
ATOM      5  O   UNL d   1     -56.804 -98.755 -45.475  0.00  0.00    -0.265 OA
ATOM      6  C   UNL d   1     -58.820 -98.781 -44.641  0.00  0.00     0.374 A 
ATOM      7  N   UNL d   1     -58.662 -98.788 -43.831  0.00  0.00    -0.151 NA
ATOM      8  O   UNL d   1     -59.602 -98.785 -44.908  0.00  0.00    -0.242 OA
ATOM      9  C   UNL d   1     -57.869 -98.784 -43.568  0.00  0.00     0.289 A 
ATOM     10  O   UNL d   1     -57.707 -98.791 -42.767  0.00  0.00    -0.265 OA
ENDBRANCH   1   2
BRANCH   1  11
ATOM     11  N   UNL d   1     -55.897 -99.158 -44.293  0.00  0.00    -0.304 N 
ATOM     12  C   UNL d   1     -55.653 -99.945 -44.192  0.00  0.00     0.064 A 
ATOM     13  C   UNL d   1     -55.065-100.096 -44.746  0.00  0.00     0.018 A 
ATOM     14  C   UNL d   1     -55.894-100.530 -43.670  0.00  0.00     0.018 A 
ATOM     15  C   UNL d   1     -54.712-100.845 -44.778  0.00  0.00     0.002 A 
ATOM     16  C   UNL d   1     -54.939 -99.417 -45.189  0.00  0.00     0.021 A 
ATOM     17  C   UNL d   1     -54.955-101.431 -44.253  0.00  0.00     0.000 A 
ATOM     18  C   UNL d   1     -55.547-101.272 -43.699  0.00  0.00     0.002 A 
ATOM     19  C   UNL d   1     -55.450 -98.831 -44.915  0.00  0.00     0.080 A 
ENDBRANCH   1  11
TORSDOF 2
ENDMDL
