MODEL 1
REMARK VINA RESULT:       7.7      0.000      0.000
REMARK  6 active torsions:
REMARK  status: ('A' for Active; 'I' for Inactive)
REMARK    1  A    between atoms: S_10  and  C_6 
REMARK    2  A    between atoms: C_14  and  S_10 
REMARK    3  A    between atoms: C_11  and  C_14 
REMARK       I    between atoms: N_15  and  C_11 
REMARK    4  A    between atoms: C_20  and  N_15 
REMARK    5  A    between atoms: C_18  and  C_20 
REMARK    6  A    between atoms: C_21  and  C_18 
ROOT
ATOM      1  C   UNL d   1      46.268 -18.227  43.120  0.00  0.00     0.187 A 
ATOM      2  C   UNL d   1      46.363 -18.914  43.567  0.00  0.00     0.081 A 
ATOM      3  N   UNL d   1      46.107 -17.510  43.505  0.00  0.00    -0.197 NA
ATOM      4  N   UNL d   1      46.140 -18.182  44.774  0.00  0.00    -0.200 NA
ATOM      5  C   UNL d   1      46.300 -18.893  44.389  0.00  0.00     0.189 A 
ATOM      6  C   UNL d   1      46.043 -17.486  44.335  0.00  0.00     0.198 A 
ATOM      7  C   UNL d   1      46.515 -19.532  43.044  0.00  0.00     0.029 A 
ATOM      8  O   UNL d   1      46.360 -18.417  42.330  0.00  0.00    -0.289 OA
ATOM      9  C   UNL d   1      46.514 -19.229  42.273  0.00  0.00     0.102 A 
ATOM     10  N   UNL d   1      46.397 -19.587  44.825  0.00  0.00    -0.127 N 
ATOM     11  C   UNL d   1      46.647 -20.327  43.254  0.00  0.00     0.002 C 
ATOM     12  C   UNL d   1      46.644 -19.661  41.582  0.00  0.00     0.027 C 
ENDROOT
BRANCH   6  13
ATOM     13  S   UNL d   1      45.884 -16.772  44.710  0.00  0.00    -0.043 SA
BRANCH  13  14
ATOM     14  C   UNL d   1      46.051 -16.057  44.338  0.00  0.00     0.101 C 
BRANCH  14  15
ATOM     15  C   UNL d   1      45.650 -15.377  44.558  0.00  0.00     0.286 C 
ATOM     16  O   UNL d   1      44.924 -15.430  44.954  0.00  0.00    -0.265 OA
ATOM     17  N   UNL d   1      45.967 -14.637  44.388  0.00  0.00    -0.206 NA
BRANCH  17  18
ATOM     18  C   UNL d   1      45.561 -13.951  44.611  0.00  0.00     0.106 C 
BRANCH  18  19
ATOM     19  C   UNL d   1      45.818 -13.228  44.338  0.00  0.00     0.066 C 
BRANCH  19  20
ATOM     20  C   UNL d   1      45.264 -12.651  44.123  0.00  0.00     0.236 C 
ATOM     21  O   UNL d   1      45.438 -12.119  43.530  0.00  0.00    -0.283 OA
ENDBRANCH  19  20
ENDBRANCH  18  19
ENDBRANCH  17  18
ENDBRANCH  14  15
ENDBRANCH  13  14
ENDBRANCH   6  13
TORSDOF 6
ENDMDL
MODEL 2
REMARK VINA RESULT:       9.9      1.086      5.261
REMARK  6 active torsions:
REMARK  status: ('A' for Active; 'I' for Inactive)
REMARK    1  A    between atoms: S_10  and  C_6 
REMARK    2  A    between atoms: C_14  and  S_10 
REMARK    3  A    between atoms: C_11  and  C_14 
REMARK       I    between atoms: N_15  and  C_11 
REMARK    4  A    between atoms: C_20  and  N_15 
REMARK    5  A    between atoms: C_18  and  C_20 
REMARK    6  A    between atoms: C_21  and  C_18 
ROOT
ATOM      1  C   UNL d   1      44.953 -14.059  43.840  0.00  0.00     0.187 A 
ATOM      2  C   UNL d   1      45.512 -13.529  44.135  0.00  0.00     0.081 A 
ATOM      3  N   UNL d   1      44.977 -14.852  44.080  0.00  0.00    -0.197 NA
ATOM      4  N   UNL d   1      46.117 -14.568  44.907  0.00  0.00    -0.200 NA
ATOM      5  C   UNL d   1      46.091 -13.781  44.666  0.00  0.00     0.189 A 
ATOM      6  C   UNL d   1      45.561 -15.109  44.616  0.00  0.00     0.198 A 
ATOM      7  C   UNL d   1      45.354 -12.791  43.805  0.00  0.00     0.029 A 
ATOM      8  O   UNL d   1      44.456 -13.654  43.331  0.00  0.00    -0.289 OA
ATOM      9  C   UNL d   1      44.699 -12.863  43.303  0.00  0.00     0.102 A 
ATOM     10  N   UNL d   1      46.644 -13.241  44.955  0.00  0.00    -0.127 N 
ATOM     11  C   UNL d   1      45.782 -12.091  43.949  0.00  0.00     0.002 C 
ATOM     12  C   UNL d   1      44.357 -12.255  42.862  0.00  0.00     0.027 C 
ENDROOT
BRANCH   6  13
ATOM     13  S   UNL d   1      45.579 -15.897  44.850  0.00  0.00    -0.043 SA
BRANCH  13  14
ATOM     14  C   UNL d   1      46.185 -16.395  44.598  0.00  0.00     0.101 C 
BRANCH  14  15
ATOM     15  C   UNL d   1      46.036 -17.191  44.473  0.00  0.00     0.286 C 
ATOM     16  O   UNL d   1      45.496 -17.595  44.955  0.00  0.00    -0.265 OA
ATOM     17  N   UNL d   1      46.421 -17.594  43.868  0.00  0.00    -0.206 NA
BRANCH  17  18
ATOM     18  C   UNL d   1      46.269 -18.399  43.744  0.00  0.00     0.106 C 
BRANCH  18  19
ATOM     19  C   UNL d   1      46.600 -18.773  43.101  0.00  0.00     0.066 C 
BRANCH  19  20
ATOM     20  C   UNL d   1      46.195 -19.396  42.736  0.00  0.00     0.236 C 
ATOM     21  O   UNL d   1      46.578 -20.100  42.586  0.00  0.00    -0.283 OA
ENDBRANCH  19  20
ENDBRANCH  18  19
ENDBRANCH  17  18
ENDBRANCH  14  15
ENDBRANCH  13  14
ENDBRANCH   6  13
TORSDOF 6
ENDMDL
