MODEL 1
REMARK VINA RESULT:      -3.3      0.000      0.000
REMARK  5 active torsions:
REMARK  status: ('A' for Active; 'I' for Inactive)
REMARK    1  A    between atoms: C_2  and  N_1 
REMARK    2  A    between atoms: O_4  and  N_1 
REMARK    3  A    between atoms: C_8  and  C_2 
REMARK    4  A    between atoms: C_3  and  O_4 
REMARK    5  A    between atoms: C_5  and  C_3 
ROOT
ATOM      1  O   UNL d   1      32.919  19.239 -22.483  0.00  0.00    -0.168 OA
ENDROOT
BRANCH   1   2
ATOM      2  C   UNL d   1      32.879  18.902 -23.330  0.00  0.00     0.319 C 
ATOM      3  O   UNL d   1      33.222  19.362 -24.022  0.00  0.00    -0.257 OA
BRANCH   2   4
ATOM      4  C   UNL d   1      32.524  18.164 -23.466  0.00  0.00     0.065 A 
ATOM      5  C   UNL d   1      31.835  18.107 -23.910  0.00  0.00     0.006 A 
ATOM      6  C   UNL d   1      31.497  17.386 -24.038  0.00  0.00     0.007 A 
ATOM      7  C   UNL d   1      31.821  16.690 -23.733  0.00  0.00     0.035 A 
ATOM      8  C   UNL d   1      32.512  16.747 -23.287  0.00  0.00     0.007 A 
ATOM      9 BR   UNL d   1      31.473  15.953 -23.865  0.00  0.00    -0.049 Br
ATOM     10  C   UNL d   1      32.876  17.482 -23.145  0.00  0.00     0.006 A 
ENDBRANCH   2   4
ENDBRANCH   1   2
BRANCH   1  11
ATOM     11  N   UNL d   1      33.022  20.038 -22.352  0.00  0.00    -0.102 NA
BRANCH  11  12
ATOM     12  C   UNL d   1      33.020  20.351 -21.593  0.00  0.00     0.210 C 
ATOM     13  N   UNL d   1      33.241  19.871 -20.959  0.00  0.00    -0.125 N 
BRANCH  12  14
ATOM     14  C   UNL d   1      32.803  21.128 -21.450  0.00  0.00     0.043 A 
ATOM     15  C   UNL d   1      32.172  21.311 -20.967  0.00  0.00     0.024 A 
ATOM     16  C   UNL d   1      31.954  22.090 -20.823  0.00  0.00     0.099 A 
ATOM     17  N   UNL d   1      32.393  22.691 -21.182  0.00  0.00    -0.242 NA
ATOM     18  C   UNL d   1      33.030  22.528 -21.669  0.00  0.00     0.099 A 
ATOM     19  C   UNL d   1      33.234  21.739 -21.803  0.00  0.00     0.024 A 
ENDBRANCH  12  14
ENDBRANCH  11  12
ENDBRANCH   1  11
TORSDOF 5
ENDMDL
MODEL 2
REMARK VINA RESULT:      -2.2      2.845      4.843
REMARK  5 active torsions:
REMARK  status: ('A' for Active; 'I' for Inactive)
REMARK    1  A    between atoms: C_2  and  N_1 
REMARK    2  A    between atoms: O_4  and  N_1 
REMARK    3  A    between atoms: C_8  and  C_2 
REMARK    4  A    between atoms: C_3  and  O_4 
REMARK    5  A    between atoms: C_5  and  C_3 
ROOT
ATOM      1  O   UNL d   1      32.009  17.077 -23.512  0.00  0.00    -0.168 OA
ENDROOT
BRANCH   1   2
ATOM      2  C   UNL d   1      32.618  17.690 -23.804  0.00  0.00     0.319 C 
ATOM      3  O   UNL d   1      33.055  17.565 -24.580  0.00  0.00    -0.257 OA
BRANCH   2   4
ATOM      4  C   UNL d   1      32.773  18.369 -23.353  0.00  0.00     0.065 A 
ATOM      5  C   UNL d   1      32.616  19.117 -23.655  0.00  0.00     0.006 A 
ATOM      6  C   UNL d   1      32.769  19.771 -23.209  0.00  0.00     0.007 A 
ATOM      7  C   UNL d   1      33.083  19.718 -22.448  0.00  0.00     0.035 A 
ATOM      8  C   UNL d   1      33.241  18.968 -22.144  0.00  0.00     0.007 A 
ATOM      9 BR   UNL d   1      33.240  20.390 -21.993  0.00  0.00    -0.049 Br
ATOM     10  C   UNL d   1      33.090  18.281 -22.588  0.00  0.00     0.006 A 
ENDBRANCH   2   4
ENDBRANCH   1   2
BRANCH   1  11
ATOM     11  N   UNL d   1      31.368  16.867 -23.970  0.00  0.00    -0.102 NA
BRANCH  11  12
ATOM     12  C   UNL d   1      30.931  16.190 -23.813  0.00  0.00     0.210 C 
ATOM     13  N   UNL d   1      31.328  15.491 -23.624  0.00  0.00    -0.125 N 
BRANCH  12  14
ATOM     14  C   UNL d   1      30.112  16.190 -23.840  0.00  0.00     0.043 A 
ATOM     15  C   UNL d   1      29.667  15.876 -23.233  0.00  0.00     0.024 A 
ATOM     16  C   UNL d   1      28.846  15.876 -23.259  0.00  0.00     0.099 A 
ATOM     17  N   UNL d   1      28.476  16.206 -23.921  0.00  0.00    -0.242 NA
ATOM     18  C   UNL d   1      28.906  16.526 -24.540  0.00  0.00     0.099 A 
ATOM     19  C   UNL d   1      29.730  16.517 -24.497  0.00  0.00     0.024 A 
ENDBRANCH  12  14
ENDBRANCH  11  12
ENDBRANCH   1  11
TORSDOF 5
ENDMDL
MODEL 3
REMARK VINA RESULT:      -2.1      1.344      1.871
REMARK  5 active torsions:
REMARK  status: ('A' for Active; 'I' for Inactive)
REMARK    1  A    between atoms: C_2  and  N_1 
REMARK    2  A    between atoms: O_4  and  N_1 
REMARK    3  A    between atoms: C_8  and  C_2 
REMARK    4  A    between atoms: C_3  and  O_4 
REMARK    5  A    between atoms: C_5  and  C_3 
ROOT
ATOM      1  O   UNL d   1      32.296  18.322 -23.539  0.00  0.00    -0.168 OA
ENDROOT
BRANCH   1   2
ATOM      2  C   UNL d   1      32.039  18.080 -24.380  0.00  0.00     0.319 C 
ATOM      3  O   UNL d   1      32.549  18.286 -25.092  0.00  0.00    -0.257 OA
BRANCH   2   4
ATOM      4  C   UNL d   1      31.329  17.665 -24.493  0.00  0.00     0.065 A 
ATOM      5  C   UNL d   1      31.236  16.906 -24.192  0.00  0.00     0.006 A 
ATOM      6  C   UNL d   1      30.542  16.510 -24.307  0.00  0.00     0.007 A 
ATOM      7  C   UNL d   1      29.911  16.844 -24.722  0.00  0.00     0.035 A 
ATOM      8  C   UNL d   1      30.004  17.605 -25.024  0.00  0.00     0.007 A 
ATOM      9 BR   UNL d   1      29.202  16.436 -24.837  0.00  0.00    -0.049 Br
ATOM     10  C   UNL d   1      30.712  18.030 -24.916  0.00  0.00     0.006 A 
ENDBRANCH   2   4
ENDBRANCH   1   2
BRANCH   1  11
ATOM     11  N   UNL d   1      32.853  18.907 -23.420  0.00  0.00    -0.102 NA
BRANCH  11  12
ATOM     12  C   UNL d   1      33.041  19.173 -22.667  0.00  0.00     0.210 C 
ATOM     13  N   UNL d   1      33.241  18.623 -22.085  0.00  0.00    -0.125 N 
BRANCH  12  14
ATOM     14  C   UNL d   1      33.035  19.970 -22.479  0.00  0.00     0.043 A 
ATOM     15  C   UNL d   1      32.830  20.230 -21.733  0.00  0.00     0.024 A 
ATOM     16  C   UNL d   1      32.824  21.029 -21.544  0.00  0.00     0.099 A 
ATOM     17  N   UNL d   1      33.032  21.571 -22.133  0.00  0.00    -0.242 NA
ATOM     18  C   UNL d   1      33.240  21.330 -22.887  0.00  0.00     0.099 A 
ATOM     19  C   UNL d   1      33.241  20.523 -23.059  0.00  0.00     0.024 A 
ENDBRANCH  12  14
ENDBRANCH  11  12
ENDBRANCH   1  11
TORSDOF 5
ENDMDL
MODEL 4
REMARK VINA RESULT:      -2.0      1.900      2.880
REMARK  5 active torsions:
REMARK  status: ('A' for Active; 'I' for Inactive)
REMARK    1  A    between atoms: C_2  and  N_1 
REMARK    2  A    between atoms: O_4  and  N_1 
REMARK    3  A    between atoms: C_8  and  C_2 
REMARK    4  A    between atoms: C_3  and  O_4 
REMARK    5  A    between atoms: C_5  and  C_3 
ROOT
ATOM      1  O   UNL d   1      31.783  17.570 -23.837  0.00  0.00    -0.168 OA
ENDROOT
BRANCH   1   2
ATOM      2  C   UNL d   1      31.551  16.690 -23.887  0.00  0.00     0.319 C 
ATOM      3  O   UNL d   1      32.183  16.053 -23.953  0.00  0.00    -0.257 OA
BRANCH   2   4
ATOM      4  C   UNL d   1      30.750  16.470 -23.871  0.00  0.00     0.065 A 
ATOM      5  C   UNL d   1      30.466  15.969 -23.285  0.00  0.00     0.006 A 
ATOM      6  C   UNL d   1      29.686  15.761 -23.278  0.00  0.00     0.007 A 
ATOM      7  C   UNL d   1      29.154  16.037 -23.846  0.00  0.00     0.035 A 
ATOM      8  C   UNL d   1      29.439  16.540 -24.433  0.00  0.00     0.007 A 
ATOM      9 BR   UNL d   1      28.356  15.823 -23.836  0.00  0.00    -0.049 Br
ATOM     10  C   UNL d   1      30.240  16.766 -24.458  0.00  0.00     0.006 A 
ENDBRANCH   2   4
ENDBRANCH   1   2
BRANCH   1  11
ATOM     11  N   UNL d   1      32.493  17.802 -23.507  0.00  0.00    -0.102 NA
BRANCH  11  12
ATOM     12  C   UNL d   1      32.799  18.553 -23.633  0.00  0.00     0.210 C 
ATOM     13  N   UNL d   1      32.964  18.796 -24.404  0.00  0.00    -0.125 N 
BRANCH  12  14
ATOM     14  C   UNL d   1      32.944  19.067 -23.012  0.00  0.00     0.043 A 
ATOM     15  C   UNL d   1      32.946  19.876 -23.120  0.00  0.00     0.024 A 
ATOM     16  C   UNL d   1      33.092  20.391 -22.498  0.00  0.00     0.099 A 
ATOM     17  N   UNL d   1      33.239  20.070 -21.750  0.00  0.00    -0.242 NA
ATOM     18  C   UNL d   1      33.241  19.262 -21.622  0.00  0.00     0.099 A 
ATOM     19  C   UNL d   1      33.092  18.759 -22.259  0.00  0.00     0.024 A 
ENDBRANCH  12  14
ENDBRANCH  11  12
ENDBRANCH   1  11
TORSDOF 5
ENDMDL
MODEL 5
REMARK VINA RESULT:      -1.7      2.870      5.245
REMARK  5 active torsions:
REMARK  status: ('A' for Active; 'I' for Inactive)
REMARK    1  A    between atoms: C_2  and  N_1 
REMARK    2  A    between atoms: O_4  and  N_1 
REMARK    3  A    between atoms: C_8  and  C_2 
REMARK    4  A    between atoms: C_3  and  O_4 
REMARK    5  A    between atoms: C_5  and  C_3 
ROOT
ATOM      1  O   UNL d   1      32.715  21.181 -20.723  0.00  0.00    -0.168 OA
ENDROOT
BRANCH   1   2
ATOM      2  C   UNL d   1      32.394  22.024 -20.589  0.00  0.00     0.319 C 
ATOM      3  O   UNL d   1      31.855  22.410 -21.196  0.00  0.00    -0.257 OA
BRANCH   2   4
ATOM      4  C   UNL d   1      32.601  22.442 -19.902  0.00  0.00     0.065 A 
ATOM      5  C   UNL d   1      33.044  22.082 -19.311  0.00  0.00     0.006 A 
ATOM      6  C   UNL d   1      33.240  22.496 -18.647  0.00  0.00     0.007 A 
ATOM      7  C   UNL d   1      33.009  23.281 -18.536  0.00  0.00     0.035 A 
ATOM      8  C   UNL d   1      32.565  23.642 -19.128  0.00  0.00     0.007 A 
ATOM      9 BR   UNL d   1      33.211  23.702 -17.855  0.00  0.00    -0.049 Br
ATOM     10  C   UNL d   1      32.352  23.232 -19.821  0.00  0.00     0.006 A 
ENDBRANCH   2   4
ENDBRANCH   1   2
BRANCH   1  11
ATOM     11  N   UNL d   1      32.869  20.902 -21.474  0.00  0.00    -0.102 NA
BRANCH  11  12
ATOM     12  C   UNL d   1      33.051  20.113 -21.609  0.00  0.00     0.210 C 
ATOM     13  N   UNL d   1      33.203  19.619 -20.966  0.00  0.00    -0.125 N 
BRANCH  12  14
ATOM     14  C   UNL d   1      33.086  19.804 -22.367  0.00  0.00     0.043 A 
ATOM     15  C   UNL d   1      33.206  20.283 -23.016  0.00  0.00     0.024 A 
ATOM     16  C   UNL d   1      33.241  19.975 -23.776  0.00  0.00     0.099 A 
ATOM     17  N   UNL d   1      33.151  19.158 -23.871  0.00  0.00    -0.242 NA
ATOM     18  C   UNL d   1      33.031  18.661 -23.232  0.00  0.00     0.099 A 
ATOM     19  C   UNL d   1      32.998  18.989 -22.475  0.00  0.00     0.024 A 
ENDBRANCH  12  14
ENDBRANCH  11  12
ENDBRANCH   1  11
TORSDOF 5
ENDMDL
MODEL 6
REMARK VINA RESULT:      -0.3      3.371      4.809
REMARK  5 active torsions:
REMARK  status: ('A' for Active; 'I' for Inactive)
REMARK    1  A    between atoms: C_2  and  N_1 
REMARK    2  A    between atoms: O_4  and  N_1 
REMARK    3  A    between atoms: C_8  and  C_2 
REMARK    4  A    between atoms: C_3  and  O_4 
REMARK    5  A    between atoms: C_5  and  C_3 
ROOT
ATOM      1  O   UNL d   1      32.521  22.720 -19.498  0.00  0.00    -0.168 OA
ENDROOT
BRANCH   1   2
ATOM      2  C   UNL d   1      32.837  22.762 -20.353  0.00  0.00     0.319 C 
ATOM      3  O   UNL d   1      33.139  23.538 -20.691  0.00  0.00    -0.257 OA
BRANCH   2   4
ATOM      4  C   UNL d   1      32.848  22.079 -20.825  0.00  0.00     0.065 A 
ATOM      5  C   UNL d   1      33.225  21.397 -20.564  0.00  0.00     0.006 A 
ATOM      6  C   UNL d   1      33.230  20.737 -21.030  0.00  0.00     0.007 A 
ATOM      7  C   UNL d   1      32.865  20.722 -21.770  0.00  0.00     0.035 A 
ATOM      8  C   UNL d   1      32.488  21.406 -22.031  0.00  0.00     0.007 A 
ATOM      9 BR   UNL d   1      32.872  20.045 -22.245  0.00  0.00    -0.049 Br
ATOM     10  C   UNL d   1      32.471  22.096 -21.566  0.00  0.00     0.006 A 
ENDBRANCH   2   4
ENDBRANCH   1   2
BRANCH   1  11
ATOM     11  N   UNL d   1      32.745  23.269 -18.938  0.00  0.00    -0.102 NA
BRANCH  11  12
ATOM     12  C   UNL d   1      32.316  23.376 -18.246  0.00  0.00     0.210 C 
ATOM     13  N   UNL d   1      31.557  23.697 -18.290  0.00  0.00    -0.125 N 
BRANCH  12  14
ATOM     14  C   UNL d   1      32.622  23.171 -17.515  0.00  0.00     0.043 A 
ATOM     15  C   UNL d   1      32.633  23.702 -16.895  0.00  0.00     0.024 A 
ATOM     16  C   UNL d   1      32.940  23.497 -16.161  0.00  0.00     0.099 A 
ATOM     17  N   UNL d   1      33.241  22.733 -16.063  0.00  0.00    -0.242 NA
ATOM     18  C   UNL d   1      33.238  22.187 -16.672  0.00  0.00     0.099 A 
ATOM     19  C   UNL d   1      32.926  22.410 -17.403  0.00  0.00     0.024 A 
ENDBRANCH  12  14
ENDBRANCH  11  12
ENDBRANCH   1  11
TORSDOF 5
ENDMDL
