MODEL 1
REMARK VINA RESULT:      -2.8      0.000      0.000
REMARK  2 active torsions:
REMARK  status: ('A' for Active; 'I' for Inactive)
REMARK    1  A    between atoms: C_5  and  C_1 
REMARK    2  A    between atoms: O_15  and  C_12 
ROOT
ATOM      1  C   UNL d   1      30.095  16.459 -24.159  0.00  0.00     0.042 A 
ATOM      2  C   UNL d   1      29.428  16.729 -23.751  0.00  0.00     0.045 A 
ATOM      3  C   UNL d   1      30.030  15.826 -24.684  0.00  0.00     0.196 A 
ATOM      4  C   UNL d   1      29.299  15.463 -24.802  0.00  0.00     0.045 A 
ATOM      5  C   UNL d   1      28.697  16.366 -23.869  0.00  0.00     0.196 A 
ATOM      6  C   UNL d   1      28.632  15.733 -24.394  0.00  0.00     0.045 A 
ATOM      7  O   UNL d   1      30.697  15.556 -25.092  0.00  0.00    -0.287 OA
ATOM      8  O   UNL d   1      28.030  16.636 -23.461  0.00  0.00    -0.287 OA
ENDROOT
BRANCH   1   9
ATOM      9  C   UNL d   1      30.826  16.822 -24.041  0.00  0.00     0.003 A 
ATOM     10  C   UNL d   1      31.006  17.519 -24.452  0.00  0.00     0.002 A 
ATOM     11  C   UNL d   1      31.734  17.884 -24.336  0.00  0.00     0.024 A 
ATOM     12  C   UNL d   1      32.286  17.558 -23.813  0.00  0.00     0.094 A 
ATOM     13  C   UNL d   1      32.099  16.857 -23.404  0.00  0.00     0.024 A 
ATOM     14  C   UNL d   1      31.368  16.494 -23.521  0.00  0.00     0.002 A 
BRANCH  12  15
ATOM     15  O   UNL d   1      33.020  17.924 -23.696  0.00  0.00    -0.328 OA
ATOM     16  C   UNL d   1      33.123  18.451 -23.067  0.00  0.00     0.181 C 
ENDBRANCH  12  15
ENDBRANCH   1   9
TORSDOF 2
ENDMDL
MODEL 2
REMARK VINA RESULT:      -2.7      0.891      3.392
REMARK  2 active torsions:
REMARK  status: ('A' for Active; 'I' for Inactive)
REMARK    1  A    between atoms: C_5  and  C_1 
REMARK    2  A    between atoms: O_15  and  C_12 
ROOT
ATOM      1  C   UNL d   1      31.728  17.170 -24.071  0.00  0.00     0.042 A 
ATOM      2  C   UNL d   1      31.921  17.798 -23.569  0.00  0.00     0.045 A 
ATOM      3  C   UNL d   1      32.292  16.872 -24.594  0.00  0.00     0.196 A 
ATOM      4  C   UNL d   1      33.048  17.201 -24.616  0.00  0.00     0.045 A 
ATOM      5  C   UNL d   1      32.677  18.127 -23.590  0.00  0.00     0.196 A 
ATOM      6  C   UNL d   1      33.241  17.829 -24.114  0.00  0.00     0.045 A 
ATOM      7  O   UNL d   1      32.099  16.244 -25.097  0.00  0.00    -0.287 OA
ATOM      8  O   UNL d   1      32.870  18.755 -23.088  0.00  0.00    -0.287 OA
ENDROOT
BRANCH   1   9
ATOM      9  C   UNL d   1      30.972  16.842 -24.049  0.00  0.00     0.003 A 
ATOM     10  C   UNL d   1      30.371  17.172 -24.515  0.00  0.00     0.002 A 
ATOM     11  C   UNL d   1      29.615  16.846 -24.495  0.00  0.00     0.024 A 
ATOM     12  C   UNL d   1      29.454  16.193 -24.015  0.00  0.00     0.094 A 
ATOM     13  C   UNL d   1      30.064  15.866 -23.550  0.00  0.00     0.024 A 
ATOM     14  C   UNL d   1      30.820  16.194 -23.571  0.00  0.00     0.002 A 
BRANCH  12  15
ATOM     15  O   UNL d   1      28.694  15.864 -23.995  0.00  0.00    -0.328 OA
ATOM     16  C   UNL d   1      28.131  16.159 -23.466  0.00  0.00     0.181 C 
ENDBRANCH  12  15
ENDBRANCH   1   9
TORSDOF 2
ENDMDL
MODEL 3
REMARK VINA RESULT:      -2.4      1.298      1.960
REMARK  2 active torsions:
REMARK  status: ('A' for Active; 'I' for Inactive)
REMARK    1  A    between atoms: C_5  and  C_1 
REMARK    2  A    between atoms: O_15  and  C_12 
ROOT
ATOM      1  C   UNL d   1      31.846  16.898 -24.287  0.00  0.00     0.042 A 
ATOM      2  C   UNL d   1      31.027  16.793 -24.242  0.00  0.00     0.045 A 
ATOM      3  C   UNL d   1      32.316  16.328 -24.655  0.00  0.00     0.196 A 
ATOM      4  C   UNL d   1      31.967  15.654 -24.978  0.00  0.00     0.045 A 
ATOM      5  C   UNL d   1      30.678  16.119 -24.564  0.00  0.00     0.196 A 
ATOM      6  C   UNL d   1      31.148  15.549 -24.932  0.00  0.00     0.045 A 
ATOM      7  O   UNL d   1      33.135  16.433 -24.701  0.00  0.00    -0.287 OA
ATOM      8  O   UNL d   1      29.859  16.014 -24.519  0.00  0.00    -0.287 OA
ENDROOT
BRANCH   1   9
ATOM      9  C   UNL d   1      32.195  17.572 -23.965  0.00  0.00     0.003 A 
ATOM     10  C   UNL d   1      32.232  18.267 -24.416  0.00  0.00     0.002 A 
ATOM     11  C   UNL d   1      32.579  18.941 -24.097  0.00  0.00     0.024 A 
ATOM     12  C   UNL d   1      32.891  18.929 -23.331  0.00  0.00     0.094 A 
ATOM     13  C   UNL d   1      32.850  18.227 -22.883  0.00  0.00     0.024 A 
ATOM     14  C   UNL d   1      32.501  17.552 -23.205  0.00  0.00     0.002 A 
BRANCH  12  15
ATOM     15  O   UNL d   1      33.241  19.607 -23.009  0.00  0.00    -0.328 OA
ATOM     16  C   UNL d   1      33.201  19.744 -22.194  0.00  0.00     0.181 C 
ENDBRANCH  12  15
ENDBRANCH   1   9
TORSDOF 2
ENDMDL
MODEL 4
REMARK VINA RESULT:      -1.5      1.443      1.759
REMARK  2 active torsions:
REMARK  status: ('A' for Active; 'I' for Inactive)
REMARK    1  A    between atoms: C_5  and  C_1 
REMARK    2  A    between atoms: O_15  and  C_12 
ROOT
ATOM      1  C   UNL d   1      29.625  16.394 -23.970  0.00  0.00     0.042 A 
ATOM      2  C   UNL d   1      29.106  15.881 -23.581  0.00  0.00     0.045 A 
ATOM      3  C   UNL d   1      29.367  17.139 -24.212  0.00  0.00     0.196 A 
ATOM      4  C   UNL d   1      28.589  17.372 -24.064  0.00  0.00     0.045 A 
ATOM      5  C   UNL d   1      28.328  16.114 -23.434  0.00  0.00     0.196 A 
ATOM      6  C   UNL d   1      28.070  16.860 -23.675  0.00  0.00     0.045 A 
ATOM      7  O   UNL d   1      29.886  17.651 -24.601  0.00  0.00    -0.287 OA
ATOM      8  O   UNL d   1      27.809  15.602 -23.045  0.00  0.00    -0.287 OA
ENDROOT
BRANCH   1   9
ATOM      9  C   UNL d   1      30.402  16.160 -24.118  0.00  0.00     0.003 A 
ATOM     10  C   UNL d   1      30.576  15.732 -24.806  0.00  0.00     0.002 A 
ATOM     11  C   UNL d   1      31.350  15.498 -24.956  0.00  0.00     0.024 A 
ATOM     12  C   UNL d   1      31.955  15.688 -24.424  0.00  0.00     0.094 A 
ATOM     13  C   UNL d   1      31.773  16.119 -23.734  0.00  0.00     0.024 A 
ATOM     14  C   UNL d   1      30.996  16.352 -23.587  0.00  0.00     0.002 A 
BRANCH  12  15
ATOM     15  O   UNL d   1      32.735  15.452 -24.574  0.00  0.00    -0.328 OA
ATOM     16  C   UNL d   1      33.241  15.950 -24.998  0.00  0.00     0.181 C 
ENDBRANCH  12  15
ENDBRANCH   1   9
TORSDOF 2
ENDMDL
MODEL 5
REMARK VINA RESULT:      -1.5      5.140      7.081
REMARK  2 active torsions:
REMARK  status: ('A' for Active; 'I' for Inactive)
REMARK    1  A    between atoms: C_5  and  C_1 
REMARK    2  A    between atoms: O_15  and  C_12 
ROOT
ATOM      1  C   UNL d   1      32.872  21.963 -21.494  0.00  0.00     0.042 A 
ATOM      2  C   UNL d   1      32.837  21.137 -21.472  0.00  0.00     0.045 A 
ATOM      3  C   UNL d   1      32.998  22.353 -22.210  0.00  0.00     0.196 A 
ATOM      4  C   UNL d   1      33.090  21.917 -22.904  0.00  0.00     0.045 A 
ATOM      5  C   UNL d   1      32.930  20.702 -22.166  0.00  0.00     0.196 A 
ATOM      6  C   UNL d   1      33.056  21.091 -22.883  0.00  0.00     0.045 A 
ATOM      7  O   UNL d   1      33.033  23.179 -22.232  0.00  0.00    -0.287 OA
ATOM      8  O   UNL d   1      32.895  19.876 -22.144  0.00  0.00    -0.287 OA
ENDROOT
BRANCH   1   9
ATOM      9  C   UNL d   1      32.780  22.399 -20.800  0.00  0.00     0.003 A 
ATOM     10  C   UNL d   1      33.241  22.211 -20.137  0.00  0.00     0.002 A 
ATOM     11  C   UNL d   1      33.151  22.644 -19.443  0.00  0.00     0.024 A 
ATOM     12  C   UNL d   1      32.605  23.264 -19.404  0.00  0.00     0.094 A 
ATOM     13  C   UNL d   1      32.144  23.447 -20.075  0.00  0.00     0.024 A 
ATOM     14  C   UNL d   1      32.237  23.011 -20.769  0.00  0.00     0.002 A 
BRANCH  12  15
ATOM     15  O   UNL d   1      32.514  23.700 -18.706  0.00  0.00    -0.328 OA
ATOM     16  C   UNL d   1      32.123  23.366 -18.059  0.00  0.00     0.181 C 
ENDBRANCH  12  15
ENDBRANCH   1   9
TORSDOF 2
ENDMDL
MODEL 6
REMARK VINA RESULT:      -1.2      3.433      4.883
REMARK  2 active torsions:
REMARK  status: ('A' for Active; 'I' for Inactive)
REMARK    1  A    between atoms: C_5  and  C_1 
REMARK    2  A    between atoms: O_15  and  C_12 
ROOT
ATOM      1  C   UNL d   1      33.185  19.503 -22.855  0.00  0.00     0.042 A 
ATOM      2  C   UNL d   1      33.161  18.723 -22.581  0.00  0.00     0.045 A 
ATOM      3  C   UNL d   1      33.216  19.655 -23.665  0.00  0.00     0.196 A 
ATOM      4  C   UNL d   1      33.224  19.029 -24.202  0.00  0.00     0.045 A 
ATOM      5  C   UNL d   1      33.168  18.096 -23.117  0.00  0.00     0.196 A 
ATOM      6  C   UNL d   1      33.200  18.249 -23.928  0.00  0.00     0.045 A 
ATOM      7  O   UNL d   1      33.241  20.435 -23.940  0.00  0.00    -0.287 OA
ATOM      8  O   UNL d   1      33.144  17.317 -22.843  0.00  0.00    -0.287 OA
ENDROOT
BRANCH   1   9
ATOM      9  C   UNL d   1      33.177  20.130 -22.319  0.00  0.00     0.003 A 
ATOM     10  C   UNL d   1      33.105  19.972 -21.509  0.00  0.00     0.002 A 
ATOM     11  C   UNL d   1      33.097  20.594 -20.971  0.00  0.00     0.024 A 
ATOM     12  C   UNL d   1      33.161  21.376 -21.236  0.00  0.00     0.094 A 
ATOM     13  C   UNL d   1      33.233  21.527 -22.052  0.00  0.00     0.024 A 
ATOM     14  C   UNL d   1      33.241  20.901 -22.588  0.00  0.00     0.002 A 
BRANCH  12  15
ATOM     15  O   UNL d   1      33.153  22.004 -20.696  0.00  0.00    -0.328 OA
ATOM     16  C   UNL d   1      32.433  22.331 -20.455  0.00  0.00     0.181 C 
ENDBRANCH  12  15
ENDBRANCH   1   9
TORSDOF 2
ENDMDL
MODEL 7
REMARK VINA RESULT:      -0.5      1.017      1.383
REMARK  2 active torsions:
REMARK  status: ('A' for Active; 'I' for Inactive)
REMARK    1  A    between atoms: C_5  and  C_1 
REMARK    2  A    between atoms: O_15  and  C_12 
ROOT
ATOM      1  C   UNL d   1      29.508  16.542 -24.171  0.00  0.00     0.042 A 
ATOM      2  C   UNL d   1      29.049  17.143 -23.836  0.00  0.00     0.045 A 
ATOM      3  C   UNL d   1      29.190  16.057 -24.757  0.00  0.00     0.196 A 
ATOM      4  C   UNL d   1      28.413  16.171 -25.009  0.00  0.00     0.045 A 
ATOM      5  C   UNL d   1      28.272  17.258 -24.088  0.00  0.00     0.196 A 
ATOM      6  C   UNL d   1      27.954  16.772 -24.674  0.00  0.00     0.045 A 
ATOM      7  O   UNL d   1      29.649  15.456 -25.091  0.00  0.00    -0.287 OA
ATOM      8  O   UNL d   1      27.813  17.858 -23.754  0.00  0.00    -0.287 OA
ENDROOT
BRANCH   1   9
ATOM      9  C   UNL d   1      30.285  16.427 -23.919  0.00  0.00     0.003 A 
ATOM     10  C   UNL d   1      30.461  15.792 -23.416  0.00  0.00     0.002 A 
ATOM     11  C   UNL d   1      31.235  15.675 -23.163  0.00  0.00     0.024 A 
ATOM     12  C   UNL d   1      31.837  16.187 -23.407  0.00  0.00     0.094 A 
ATOM     13  C   UNL d   1      31.653  16.824 -23.913  0.00  0.00     0.024 A 
ATOM     14  C   UNL d   1      30.876  16.939 -24.165  0.00  0.00     0.002 A 
BRANCH  12  15
ATOM     15  O   UNL d   1      32.616  16.070 -23.153  0.00  0.00    -0.328 OA
ATOM     16  C   UNL d   1      33.219  16.565 -23.430  0.00  0.00     0.181 C 
ENDBRANCH  12  15
ENDBRANCH   1   9
TORSDOF 2
ENDMDL
