MODEL 1
REMARK VINA RESULT:      -9.2      0.000      0.000
REMARK  5 active torsions:
REMARK  status: ('A' for Active; 'I' for Inactive)
REMARK       I    between atoms: C_7  and  N_1 
REMARK    1  A    between atoms: C_11  and  C_3 
REMARK    2  A    between atoms: C_14  and  C_5 
REMARK    3  A    between atoms: C_18  and  C_7 
REMARK    4  A    between atoms: C_17  and  O_19 
REMARK    5  A    between atoms: O_19  and  C_18 
ROOT
ATOM      1  N   UNL d   1      52.970  32.435  53.433  0.00  0.00    -0.193 N 
ATOM      2  N   UNL d   1      52.655  31.710  53.195  0.00  0.00    -0.162 NA
ATOM      3  C   UNL d   1      53.116  31.115  53.541  0.00  0.00     0.109 A 
ATOM      4  C   UNL d   1      53.619  32.286  53.920  0.00  0.00     0.088 A 
ATOM      5  C   UNL d   1      53.704  31.469  53.984  0.00  0.00     0.041 A 
ATOM      6  C   UNL d   1      52.749  33.213  53.267  0.00  0.00     0.305 C 
ATOM      7  O   UNL d   1      53.177  33.841  53.589  0.00  0.00    -0.263 OA
ENDROOT
BRANCH   4   8
ATOM      8  C   UNL d   1      54.115  32.828  54.294  0.00  0.00     0.018 A 
ATOM      9  C   UNL d   1      54.781  33.107  53.904  0.00  0.00     0.004 A 
ATOM     10  C   UNL d   1      55.282  33.652  54.277  0.00  0.00     0.030 A 
ATOM     11  C   UNL d   1      55.108  33.907  55.030  0.00  0.00     0.140 A 
ATOM     12  C   UNL d   1      54.434  33.624  55.424  0.00  0.00     0.030 A 
ATOM     13  F   UNL d   1      55.612  34.453  55.401  0.00  0.00    -0.204 F 
ATOM     14  C   UNL d   1      53.942  33.088  55.056  0.00  0.00     0.004 A 
ENDBRANCH   4   8
BRANCH   6  15
ATOM     15  C   UNL d   1      52.101  33.362  52.779  0.00  0.00     0.185 C 
BRANCH  15  16
ATOM     16  O   UNL d   1      51.575  33.970  52.967  0.00  0.00    -0.300 OA
BRANCH  16  17
ATOM     17  C   UNL d   1      50.955  34.152  52.454  0.00  0.00     0.100 A 
ATOM     18  C   UNL d   1      50.296  34.564  52.732  0.00  0.00     0.029 A 
ATOM     19  C   UNL d   1      49.676  34.746  52.219  0.00  0.00     0.059 A 
ATOM     20  C   UNL d   1      50.259  34.791  53.521  0.00  0.00     0.021 A 
ATOM     21  C   UNL d   1      49.020  35.155  52.494  0.00  0.00     0.265 A 
ATOM     22  C   UNL d   1      49.716  34.517  51.427  0.00  0.00     0.005 A 
ATOM     23  O   UNL d   1      48.400  35.337  51.980  0.00  0.00    -0.267 OA
ATOM     24  N   UNL d   1      48.980  35.384  53.285  0.00  0.00    -0.270 N 
ATOM     25  C   UNL d   1      49.600  35.202  53.799  0.00  0.00     0.083 A 
ATOM     26  C   UNL d   1      48.312  35.800  53.563  0.00  0.00     0.102 C 
ATOM     27  C   UNL d   1      50.375  34.105  51.148  0.00  0.00     0.002 A 
ATOM     28  C   UNL d   1      50.995  33.923  51.661  0.00  0.00     0.025 A 
ENDBRANCH  16  17
ENDBRANCH  15  16
ENDBRANCH   6  15
BRANCH   3  29
ATOM     29  C   UNL d   1      52.973  30.319  53.433  0.00  0.00     0.049 A 
ATOM     30  S   UNL d   1      53.240  29.726  53.955  0.00  0.00    -0.085 SA
ATOM     31  C   UNL d   1      52.990  29.006  53.663  0.00  0.00     0.035 A 
ATOM     32  C   UNL d   1      52.571  29.138  52.967  0.00  0.00     0.007 A 
ATOM     33  C   UNL d   1      52.559  29.946  52.824  0.00  0.00     0.009 A 
ENDBRANCH   3  29
TORSDOF 5
ENDMDL
MODEL 2
REMARK VINA RESULT:      -9.0      1.498      1.962
REMARK  5 active torsions:
REMARK  status: ('A' for Active; 'I' for Inactive)
REMARK       I    between atoms: C_7  and  N_1 
REMARK    1  A    between atoms: C_11  and  C_3 
REMARK    2  A    between atoms: C_14  and  C_5 
REMARK    3  A    between atoms: C_18  and  C_7 
REMARK    4  A    between atoms: C_17  and  O_19 
REMARK    5  A    between atoms: O_19  and  C_18 
ROOT
ATOM      1  N   UNL d   1      51.844  33.605  53.134  0.00  0.00    -0.193 N 
ATOM      2  N   UNL d   1      51.827  32.803  52.940  0.00  0.00    -0.162 NA
ATOM      3  C   UNL d   1      52.516  32.460  53.245  0.00  0.00     0.109 A 
ATOM      4  C   UNL d   1      52.538  33.753  53.555  0.00  0.00     0.088 A 
ATOM      5  C   UNL d   1      52.949  33.042  53.620  0.00  0.00     0.041 A 
ATOM      6  C   UNL d   1      51.315  34.220  52.981  0.00  0.00     0.305 C 
ATOM      7  O   UNL d   1      51.481  34.983  53.249  0.00  0.00    -0.263 OA
ENDROOT
BRANCH   4   8
ATOM      8  C   UNL d   1      52.805  34.467  53.869  0.00  0.00     0.018 A 
ATOM      9  C   UNL d   1      52.629  34.662  54.646  0.00  0.00     0.004 A 
ATOM     10  C   UNL d   1      52.896  35.379  54.964  0.00  0.00     0.030 A 
ATOM     11  C   UNL d   1      53.333  35.886  54.501  0.00  0.00     0.140 A 
ATOM     12  C   UNL d   1      53.511  35.687  53.714  0.00  0.00     0.030 A 
ATOM     13  F   UNL d   1      53.600  36.603  54.823  0.00  0.00    -0.204 F 
ATOM     14  C   UNL d   1      53.248  34.982  53.403  0.00  0.00     0.004 A 
ENDBRANCH   4   8
BRANCH   6  15
ATOM     15  C   UNL d   1      50.621  34.073  52.560  0.00  0.00     0.185 C 
BRANCH  15  16
ATOM     16  O   UNL d   1      49.959  34.551  52.676  0.00  0.00    -0.300 OA
BRANCH  16  17
ATOM     17  C   UNL d   1      49.398  34.632  52.076  0.00  0.00     0.100 A 
ATOM     18  C   UNL d   1      48.723  35.091  52.201  0.00  0.00     0.029 A 
ATOM     19  C   UNL d   1      48.163  35.171  51.601  0.00  0.00     0.059 A 
ATOM     20  C   UNL d   1      48.612  35.466  52.923  0.00  0.00     0.021 A 
ATOM     21  C   UNL d   1      47.491  35.627  51.723  0.00  0.00     0.265 A 
ATOM     22  C   UNL d   1      48.277  34.793  50.876  0.00  0.00     0.005 A 
ATOM     23  O   UNL d   1      46.930  35.708  51.123  0.00  0.00    -0.267 OA
ATOM     24  N   UNL d   1      47.376  36.005  52.447  0.00  0.00    -0.270 N 
ATOM     25  C   UNL d   1      47.937  35.925  53.047  0.00  0.00     0.083 A 
ATOM     26  C   UNL d   1      46.693  36.468  52.569  0.00  0.00     0.102 C 
ATOM     27  C   UNL d   1      48.952  34.334  50.751  0.00  0.00     0.002 A 
ATOM     28  C   UNL d   1      49.512  34.254  51.351  0.00  0.00     0.025 A 
ENDBRANCH  16  17
ENDBRANCH  15  16
ENDBRANCH   6  15
BRANCH   3  29
ATOM     29  C   UNL d   1      52.696  31.668  53.163  0.00  0.00     0.049 A 
ATOM     30  S   UNL d   1      53.448  31.346  53.320  0.00  0.00    -0.085 SA
ATOM     31  C   UNL d   1      53.411  30.544  53.176  0.00  0.00     0.035 A 
ATOM     32  C   UNL d   1      52.648  30.358  52.930  0.00  0.00     0.007 A 
ATOM     33  C   UNL d   1      52.206  31.050  52.921  0.00  0.00     0.009 A 
ENDBRANCH   3  29
TORSDOF 5
ENDMDL
MODEL 3
REMARK VINA RESULT:      -7.4      1.645      3.172
REMARK  5 active torsions:
REMARK  status: ('A' for Active; 'I' for Inactive)
REMARK       I    between atoms: C_7  and  N_1 
REMARK    1  A    between atoms: C_11  and  C_3 
REMARK    2  A    between atoms: C_14  and  C_5 
REMARK    3  A    between atoms: C_18  and  C_7 
REMARK    4  A    between atoms: C_17  and  O_19 
REMARK    5  A    between atoms: O_19  and  C_18 
ROOT
ATOM      1  N   UNL d   1      52.918  32.743  53.486  0.00  0.00    -0.193 N 
ATOM      2  N   UNL d   1      53.343  33.327  53.884  0.00  0.00    -0.162 NA
ATOM      3  C   UNL d   1      53.978  32.956  54.265  0.00  0.00     0.109 A 
ATOM      4  C   UNL d   1      53.289  32.018  53.621  0.00  0.00     0.088 A 
ATOM      5  C   UNL d   1      53.942  32.156  54.103  0.00  0.00     0.041 A 
ATOM      6  C   UNL d   1      52.240  32.778  53.016  0.00  0.00     0.305 C 
ATOM      7  O   UNL d   1      51.932  32.088  52.683  0.00  0.00    -0.263 OA
ENDROOT
BRANCH   4   8
ATOM      8  C   UNL d   1      53.074  31.272  53.343  0.00  0.00     0.018 A 
ATOM      9  C   UNL d   1      52.596  30.789  53.802  0.00  0.00     0.004 A 
ATOM     10  C   UNL d   1      52.378  30.038  53.525  0.00  0.00     0.030 A 
ATOM     11  C   UNL d   1      52.642  29.787  52.797  0.00  0.00     0.140 A 
ATOM     12  C   UNL d   1      53.126  30.278  52.333  0.00  0.00     0.030 A 
ATOM     13  F   UNL d   1      52.422  29.035  52.522  0.00  0.00    -0.204 F 
ATOM     14  C   UNL d   1      53.339  31.015  52.607  0.00  0.00     0.004 A 
ENDBRANCH   4   8
BRANCH   6  15
ATOM     15  C   UNL d   1      51.869  33.503  52.881  0.00  0.00     0.185 C 
BRANCH  15  16
ATOM     16  O   UNL d   1      51.136  33.526  52.503  0.00  0.00    -0.300 OA
BRANCH  16  17
ATOM     17  C   UNL d   1      50.575  34.089  52.726  0.00  0.00     0.100 A 
ATOM     18  C   UNL d   1      49.959  34.284  52.212  0.00  0.00     0.029 A 
ATOM     19  C   UNL d   1      49.398  34.847  52.435  0.00  0.00     0.059 A 
ATOM     20  C   UNL d   1      49.908  33.918  51.479  0.00  0.00     0.021 A 
ATOM     21  C   UNL d   1      48.786  35.042  51.925  0.00  0.00     0.265 A 
ATOM     22  C   UNL d   1      49.453  35.213  53.172  0.00  0.00     0.005 A 
ATOM     23  O   UNL d   1      48.225  35.605  52.148  0.00  0.00    -0.267 OA
ATOM     24  N   UNL d   1      48.731  34.676  51.188  0.00  0.00    -0.270 N 
ATOM     25  C   UNL d   1      49.292  34.113  50.965  0.00  0.00     0.083 A 
ATOM     26  C   UNL d   1      48.107  34.876  50.672  0.00  0.00     0.102 C 
ATOM     27  C   UNL d   1      50.069  35.018  53.687  0.00  0.00     0.002 A 
ATOM     28  C   UNL d   1      50.630  34.456  53.463  0.00  0.00     0.025 A 
ENDBRANCH  16  17
ENDBRANCH  15  16
ENDBRANCH   6  15
BRANCH   3  29
ATOM     29  C   UNL d   1      54.526  33.357  54.718  0.00  0.00     0.049 A 
ATOM     30  S   UNL d   1      54.456  33.464  55.541  0.00  0.00    -0.085 SA
ATOM     31  C   UNL d   1      55.105  33.889  55.793  0.00  0.00     0.035 A 
ATOM     32  C   UNL d   1      55.581  34.050  55.142  0.00  0.00     0.007 A 
ATOM     33  C   UNL d   1      55.225  33.723  54.477  0.00  0.00     0.009 A 
ENDBRANCH   3  29
TORSDOF 5
ENDMDL
