MODEL 1
REMARK VINA RESULT:      34.2      0.000      0.000
REMARK  8 active torsions:
REMARK  status: ('A' for Active; 'I' for Inactive)
REMARK    1  A    between atoms: N_4  and  C_1 
REMARK    2  A    between atoms: C_2  and  O_12 
REMARK    3  A    between atoms: C_8  and  C_2 
REMARK       I    between atoms: C_10  and  N_4 
REMARK    4  A    between atoms: O_12  and  C_5 
REMARK    5  A    between atoms: S_20  and  C_6 
REMARK    6  A    between atoms: C_14  and  C_10 
REMARK    7  A    between atoms: C_16  and  C_26 
REMARK    8  A    between atoms: C_26  and  S_20 
ROOT
ATOM      1  C   UNL d   1      45.273 -14.790  44.881  0.00  0.00     0.167 A 
ATOM      2  C   UNL d   1      44.733 -15.409  44.858  0.00  0.00     0.222 A 
ATOM      3  C   UNL d   1      45.029 -16.185  44.883  0.00  0.00     0.069 A 
ATOM      4  C   UNL d   1      46.083 -14.932  44.928  0.00  0.00     0.151 A 
ATOM      5  C   UNL d   1      45.839 -16.327  44.929  0.00  0.00     0.110 A 
ATOM      6  O   UNL d   1      46.363 -15.694  44.952  0.00  0.00    -0.302 OA
ATOM      7  O   UNL d   1      43.931 -15.269  44.811  0.00  0.00    -0.284 OA
ENDROOT
BRANCH   5   8
ATOM      8  C   UNL d   1      46.122 -17.098  44.954  0.00  0.00     0.062 C 
BRANCH   8   9
ATOM      9  S   UNL d   1      46.532 -17.402  44.306  0.00  0.00    -0.057 SA
BRANCH   9  10
ATOM     10  C   UNL d   1      46.515 -17.880  43.492  0.00  0.00     0.166 A 
ATOM     11  S   UNL d   1      46.524 -18.628  43.147  0.00  0.00    -0.006 SA
ATOM     12  C   UNL d   1      46.490 -18.536  42.327  0.00  0.00     0.269 A 
ATOM     13  N   UNL d   1      46.460 -17.725  42.166  0.00  0.00    -0.107 NA
ATOM     14  N   UNL d   1      46.475 -17.320  42.885  0.00  0.00    -0.132 NA
BRANCH  12  15
ATOM     15  N   UNL d   1      46.474 -18.941  41.609  0.00  0.00    -0.337 NA
ATOM     16  C   UNL d   1      46.458 -19.346  40.890  0.00  0.00     0.330 C 
ATOM     17  O   UNL d   1      46.344 -20.052  41.301  0.00  0.00    -0.251 OA
BRANCH  16  18
ATOM     18  C   UNL d   1      46.527 -19.132  40.095  0.00  0.00     0.070 A 
ATOM     19  C   UNL d   1      46.644 -19.350  39.308  0.00  0.00     0.006 A 
ATOM     20  C   UNL d   1      46.531 -18.543  39.509  0.00  0.00     0.006 A 
ENDBRANCH  16  18
ENDBRANCH  12  15
ENDBRANCH   9  10
ENDBRANCH   8   9
ENDBRANCH   5   8
BRANCH   1  21
ATOM     21  O   UNL d   1      44.990 -14.010  44.857  0.00  0.00    -0.268 OA
BRANCH  21  22
ATOM     22  C   UNL d   1      45.443 -13.419  44.494  0.00  0.00     0.305 C 
ATOM     23  O   UNL d   1      46.097 -13.099  44.882  0.00  0.00    -0.259 OA
BRANCH  22  24
ATOM     24  C   UNL d   1      45.237 -13.146  43.731  0.00  0.00     0.118 A 
ATOM     25  C   UNL d   1      44.441 -13.024  43.524  0.00  0.00     0.147 A 
ATOM     26  F   UNL d   1      43.843 -13.177  44.088  0.00  0.00    -0.204 F 
ATOM     27  C   UNL d   1      44.230 -12.759  42.784  0.00  0.00     0.030 A 
ATOM     28  C   UNL d   1      44.820 -12.608  42.229  0.00  0.00     0.005 A 
ATOM     29  C   UNL d   1      45.625 -12.723  42.411  0.00  0.00     0.030 A 
ATOM     30  C   UNL d   1      45.828 -12.996  43.175  0.00  0.00     0.147 A 
ATOM     31  F   UNL d   1      46.627 -13.117  43.380  0.00  0.00    -0.204 F 
ENDBRANCH  22  24
ENDBRANCH  21  22
ENDBRANCH   1  21
TORSDOF 8
ENDMDL
