MODEL 1
REMARK VINA RESULT:      41.1      0.000      0.000
REMARK  7 active torsions:
REMARK  status: ('A' for Active; 'I' for Inactive)
REMARK    1  A    between atoms: C_2  and  S_1 
REMARK    2  A    between atoms: N_3  and  S_1 
REMARK    3  A    between atoms: C_15  and  N_3 
REMARK    4  A    between atoms: C_4  and  C_9 
REMARK       I    between atoms: N_5  and  C_4 
REMARK    5  A    between atoms: C_16  and  N_5 
REMARK    6  A    between atoms: C_18  and  C_15 
REMARK    7  A    between atoms: C_17  and  C_16 
ROOT
ATOM      1  C   UNL d   1      45.455 -12.989  38.992  0.00  0.00     0.058 A 
ATOM      2  C   UNL d   1      46.086 -13.107  39.531  0.00  0.00     0.005 A 
ATOM      3  C   UNL d   1      44.789 -12.569  39.235  0.00  0.00     0.005 A 
ATOM      4  C   UNL d   1      45.368 -12.386  40.528  0.00  0.00     0.020 A 
ATOM      5  C   UNL d   1      46.034 -12.804  40.289  0.00  0.00     0.002 A 
ATOM      6  C   UNL d   1      44.742 -12.266  40.001  0.00  0.00     0.002 A 
ENDROOT
BRANCH   4   7
ATOM      7  C   UNL d   1      45.323 -12.080  41.302  0.00  0.00     0.112 C 
BRANCH   7   8
ATOM      8  N   UNL d   1      44.816 -12.427  41.856  0.00  0.00    -0.157 NA
BRANCH   8   9
ATOM      9  S   UNL d   1      45.079 -12.563  42.636  0.00  0.00     0.285 S 
ATOM     10  O   UNL d   1      44.292 -12.690  42.878  0.00  0.00    -0.198 OA
ATOM     11  O   UNL d   1      45.861 -12.435  42.385  0.00  0.00    -0.198 OA
BRANCH   9  12
ATOM     12  C   UNL d   1      45.346 -12.698  43.410  0.00  0.00     0.106 A 
ATOM     13  C   UNL d   1      45.288 -13.446  43.746  0.00  0.00     0.024 A 
ATOM     14  C   UNL d   1      45.554 -13.576  44.516  0.00  0.00     0.059 A 
ATOM     15 CL   UNL d   1      45.494 -14.337  44.853  0.00  0.00    -0.082 Cl
ATOM     16  C   UNL d   1      45.877 -12.959  44.950  0.00  0.00     0.011 A 
ATOM     17  C   UNL d   1      45.934 -12.211  44.614  0.00  0.00     0.002 A 
ATOM     18  C   UNL d   1      45.668 -12.080  43.844  0.00  0.00     0.013 A 
ENDBRANCH   9  12
ENDBRANCH   8   9
ENDBRANCH   7   8
ENDBRANCH   4   7
BRANCH   1  19
ATOM     19  C   UNL d   1      45.497 -13.293  38.218  0.00  0.00     0.279 C 
ATOM     20  N   UNL d   1      45.048 -13.950  38.011  0.00  0.00    -0.205 NA
ATOM     21  O   UNL d   1      45.994 -12.932  37.653  0.00  0.00    -0.265 OA
BRANCH  20  22
ATOM     22  C   UNL d   1      45.088 -14.256  37.241  0.00  0.00     0.121 C 
BRANCH  22  23
ATOM     23  C   UNL d   1      44.677 -14.951  37.059  0.00  0.00     0.101 A 
ATOM     24  N   UNL d   1      43.863 -14.984  37.189  0.00  0.00    -0.242 NA
ATOM     25  C   UNL d   1      43.461 -15.679  37.006  0.00  0.00     0.099 A 
ATOM     26  C   UNL d   1      43.858 -16.330  36.698  0.00  0.00     0.021 A 
ATOM     27  C   UNL d   1      44.679 -16.283  36.572  0.00  0.00     0.003 A 
ATOM     28  C   UNL d   1      45.085 -15.587  36.755  0.00  0.00     0.021 A 
ENDBRANCH  22  23
ENDBRANCH  20  22
ENDBRANCH   1  19
TORSDOF 7
ENDMDL
MODEL 2
REMARK VINA RESULT:      41.9      3.864      5.043
REMARK  7 active torsions:
REMARK  status: ('A' for Active; 'I' for Inactive)
REMARK    1  A    between atoms: C_2  and  S_1 
REMARK    2  A    between atoms: N_3  and  S_1 
REMARK    3  A    between atoms: C_15  and  N_3 
REMARK    4  A    between atoms: C_4  and  C_9 
REMARK       I    between atoms: N_5  and  C_4 
REMARK    5  A    between atoms: C_16  and  N_5 
REMARK    6  A    between atoms: C_18  and  C_15 
REMARK    7  A    between atoms: C_17  and  C_16 
ROOT
ATOM      1  C   UNL d   1      45.784 -17.393  43.771  0.00  0.00     0.058 A 
ATOM      2  C   UNL d   1      45.542 -17.297  44.568  0.00  0.00     0.005 A 
ATOM      3  C   UNL d   1      46.131 -16.759  43.375  0.00  0.00     0.005 A 
ATOM      4  C   UNL d   1      45.997 -15.948  44.544  0.00  0.00     0.020 A 
ATOM      5  C   UNL d   1      45.651 -16.578  44.942  0.00  0.00     0.002 A 
ATOM      6  C   UNL d   1      46.239 -16.036  43.757  0.00  0.00     0.002 A 
ENDROOT
BRANCH   4   7
ATOM      7  C   UNL d   1      46.106 -15.218  44.931  0.00  0.00     0.112 C 
BRANCH   7   8
ATOM      8  N   UNL d   1      46.403 -14.567  44.517  0.00  0.00    -0.157 NA
BRANCH   8   9
ATOM      9  S   UNL d   1      45.884 -14.060  44.106  0.00  0.00     0.285 S 
ATOM     10  O   UNL d   1      45.997 -14.508  43.412  0.00  0.00    -0.198 OA
ATOM     11  O   UNL d   1      45.777 -13.620  44.802  0.00  0.00    -0.198 OA
BRANCH   9  12
ATOM     12  C   UNL d   1      45.367 -13.553  43.701  0.00  0.00     0.106 A 
ATOM     13  C   UNL d   1      45.633 -13.111  43.061  0.00  0.00     0.024 A 
ATOM     14  C   UNL d   1      45.116 -12.608  42.661  0.00  0.00     0.059 A 
ATOM     15 CL   UNL d   1      45.390 -12.161  42.012  0.00  0.00    -0.082 Cl
ATOM     16  C   UNL d   1      44.333 -12.547  42.901  0.00  0.00     0.011 A 
ATOM     17  C   UNL d   1      44.067 -12.990  43.541  0.00  0.00     0.002 A 
ATOM     18  C   UNL d   1      44.584 -13.493  43.941  0.00  0.00     0.013 A 
ENDBRANCH   9  12
ENDBRANCH   8   9
ENDBRANCH   7   8
ENDBRANCH   4   7
BRANCH   1  19
ATOM     19  C   UNL d   1      45.677 -18.121  43.381  0.00  0.00     0.279 C 
ATOM     20  N   UNL d   1      46.126 -18.298  42.715  0.00  0.00    -0.205 NA
ATOM     21  O   UNL d   1      45.116 -18.670  43.664  0.00  0.00    -0.265 OA
BRANCH  20  22
ATOM     22  C   UNL d   1      46.023 -19.022  42.323  0.00  0.00     0.121 C 
BRANCH  22  23
ATOM     23  C   UNL d   1      46.164 -19.066  41.509  0.00  0.00     0.101 A 
ATOM     24  N   UNL d   1      46.508 -18.423  41.124  0.00  0.00    -0.242 NA
ATOM     25  C   UNL d   1      46.646 -18.473  40.313  0.00  0.00     0.099 A 
ATOM     26  C   UNL d   1      46.447 -19.150  39.892  0.00  0.00     0.021 A 
ATOM     27  C   UNL d   1      46.100 -19.792  40.292  0.00  0.00     0.003 A 
ATOM     28  C   UNL d   1      45.961 -19.744  41.105  0.00  0.00     0.021 A 
ENDBRANCH  22  23
ENDBRANCH  20  22
ENDBRANCH   1  19
TORSDOF 7
ENDMDL
