MODEL 1
REMARK VINA RESULT:      -6.7      0.000      0.000
REMARK  4 active torsions:
REMARK  status: ('A' for Active; 'I' for Inactive)
REMARK    1  A    between atoms: C_7  and  C_1 
REMARK       I    between atoms: C_6  and  N_8 
REMARK    2  A    between atoms: C_14  and  C_6 
REMARK    3  A    between atoms: N_8  and  C_15 
REMARK    4  A    between atoms: C_20  and  C_14 
ROOT
ATOM      1  C   UNL d   1     -39.936  14.911  19.984  0.00  0.00     0.024 A 
ATOM      2  C   UNL d   1     -40.265  14.292  19.564  0.00  0.00     0.004 A 
ATOM      3  C   UNL d   1     -39.900  15.679  19.663  0.00  0.00     0.004 A 
ATOM      4  C   UNL d   1     -40.540  15.184  18.474  0.00  0.00     0.085 A 
ATOM      5  C   UNL d   1     -40.573  14.425  18.796  0.00  0.00     0.019 A 
ATOM      6  C   UNL d   1     -40.210  15.803  18.898  0.00  0.00     0.019 A 
ENDROOT
BRANCH   1   7
ATOM      7  C   UNL d   1     -39.640  14.767  20.731  0.00  0.00     0.111 A 
ATOM      8  N   UNL d   1     -39.554  15.330  21.306  0.00  0.00    -0.239 NA
ATOM      9  C   UNL d   1     -39.241  14.989  21.984  0.00  0.00     0.088 A 
ATOM     10  C   UNL d   1     -39.041  15.284  22.719  0.00  0.00     0.020 A 
ATOM     11  C   UNL d   1     -39.130  14.179  21.815  0.00  0.00     0.049 A 
ATOM     12  C   UNL d   1     -38.737  14.784  23.276  0.00  0.00     0.002 A 
ATOM     13  C   UNL d   1     -38.626  13.973  23.107  0.00  0.00     0.001 A 
ATOM     14  C   UNL d   1     -38.819  13.670  22.385  0.00  0.00     0.008 A 
ATOM     15  C   UNL d   1     -38.314  13.481  23.692  0.00  0.00     0.000 C 
ATOM     16  S   UNL d   1     -39.375  14.044  21.046  0.00  0.00    -0.066 SA
ENDBRANCH   1   7
BRANCH   4  17
ATOM     17  N   UNL d   1     -40.833  15.324  17.736  0.00  0.00    -0.208 NA
ATOM     18  C   UNL d   1     -40.390  15.235  17.118  0.00  0.00     0.279 C 
ATOM     19  O   UNL d   1     -40.700  15.384  16.319  0.00  0.00    -0.265 OA
BRANCH  18  20
ATOM     20  C   UNL d   1     -39.630  14.992  17.304  0.00  0.00     0.062 C 
BRANCH  20  21
ATOM     21  C   UNL d   1     -39.082  14.898  16.713  0.00  0.00     0.005 A 
ATOM     22  C   UNL d   1     -38.927  14.144  16.434  0.00  0.00     0.000 A 
ATOM     23  C   UNL d   1     -38.366  14.025  15.826  0.00  0.00     0.000 A 
ATOM     24  C   UNL d   1     -37.970  14.679  15.511  0.00  0.00     0.000 A 
ATOM     25  C   UNL d   1     -38.135  15.437  15.801  0.00  0.00     0.000 A 
ATOM     26  C   UNL d   1     -38.683  15.555  16.395  0.00  0.00     0.000 A 
ENDBRANCH  20  21
ENDBRANCH  18  20
ENDBRANCH   4  17
TORSDOF 4
ENDMDL
MODEL 2
REMARK VINA RESULT:      -6.5      1.623      5.294
REMARK  4 active torsions:
REMARK  status: ('A' for Active; 'I' for Inactive)
REMARK    1  A    between atoms: C_7  and  C_1 
REMARK       I    between atoms: C_6  and  N_8 
REMARK    2  A    between atoms: C_14  and  C_6 
REMARK    3  A    between atoms: N_8  and  C_15 
REMARK    4  A    between atoms: C_20  and  C_14 
ROOT
ATOM      1  C   UNL d   1     -39.513  14.825  18.203  0.00  0.00     0.024 A 
ATOM      2  C   UNL d   1     -39.163  15.474  18.554  0.00  0.00     0.004 A 
ATOM      3  C   UNL d   1     -40.205  14.484  18.518  0.00  0.00     0.004 A 
ATOM      4  C   UNL d   1     -40.185  15.475  19.561  0.00  0.00     0.085 A 
ATOM      5  C   UNL d   1     -39.500  15.809  19.244  0.00  0.00     0.019 A 
ATOM      6  C   UNL d   1     -40.534  14.823  19.207  0.00  0.00     0.019 A 
ENDROOT
BRANCH   1   7
ATOM      7  C   UNL d   1     -39.174  14.510  17.530  0.00  0.00     0.111 A 
ATOM      8  N   UNL d   1     -38.809  13.788  17.496  0.00  0.00    -0.239 NA
ATOM      9  C   UNL d   1     -38.533  13.652  16.736  0.00  0.00     0.088 A 
ATOM     10  C   UNL d   1     -38.132  13.031  16.388  0.00  0.00     0.020 A 
ATOM     11  C   UNL d   1     -38.740  14.322  16.282  0.00  0.00     0.049 A 
ATOM     12  C   UNL d   1     -37.940  13.075  15.604  0.00  0.00     0.002 A 
ATOM     13  C   UNL d   1     -38.147  13.745  15.150  0.00  0.00     0.001 A 
ATOM     14  C   UNL d   1     -38.543  14.364  15.483  0.00  0.00     0.008 A 
ATOM     15  C   UNL d   1     -37.940  13.768  14.351  0.00  0.00     0.000 C 
ATOM     16  S   UNL d   1     -39.133  14.847  16.771  0.00  0.00    -0.066 SA
ENDBRANCH   1   7
BRANCH   4  17
ATOM     17  N   UNL d   1     -40.519  15.788  20.225  0.00  0.00    -0.208 NA
ATOM     18  C   UNL d   1     -40.299  15.551  20.919  0.00  0.00     0.279 C 
ATOM     19  O   UNL d   1     -40.654  15.884  21.640  0.00  0.00    -0.265 OA
BRANCH  18  20
ATOM     20  C   UNL d   1     -39.717  14.976  20.890  0.00  0.00     0.062 C 
BRANCH  20  21
ATOM     21  C   UNL d   1     -39.372  14.716  21.576  0.00  0.00     0.005 A 
ATOM     22  C   UNL d   1     -39.510  13.947  21.822  0.00  0.00     0.000 A 
ATOM     23  C   UNL d   1     -39.164  13.660  22.527  0.00  0.00     0.000 A 
ATOM     24  C   UNL d   1     -38.681  14.162  22.972  0.00  0.00     0.000 A 
ATOM     25  C   UNL d   1     -38.548  14.938  22.713  0.00  0.00     0.000 A 
ATOM     26  C   UNL d   1     -38.886  15.220  22.025  0.00  0.00     0.000 A 
ENDBRANCH  20  21
ENDBRANCH  18  20
ENDBRANCH   4  17
TORSDOF 4
ENDMDL
MODEL 3
REMARK VINA RESULT:      -5.7      7.924      9.256
REMARK  4 active torsions:
REMARK  status: ('A' for Active; 'I' for Inactive)
REMARK    1  A    between atoms: C_7  and  C_1 
REMARK       I    between atoms: C_6  and  N_8 
REMARK    2  A    between atoms: C_14  and  C_6 
REMARK    3  A    between atoms: N_8  and  C_15 
REMARK    4  A    between atoms: C_20  and  C_14 
ROOT
ATOM      1  C   UNL d   1     -47.058  13.664  22.459  0.00  0.00     0.024 A 
ATOM      2  C   UNL d   1     -46.428  13.988  22.867  0.00  0.00     0.004 A 
ATOM      3  C   UNL d   1     -46.936  13.140  21.824  0.00  0.00     0.004 A 
ATOM      4  C   UNL d   1     -45.517  13.275  22.019  0.00  0.00     0.085 A 
ATOM      5  C   UNL d   1     -45.643  13.794  22.648  0.00  0.00     0.019 A 
ATOM      6  C   UNL d   1     -46.151  12.951  21.611  0.00  0.00     0.019 A 
ENDROOT
BRANCH   1   7
ATOM      7  C   UNL d   1     -47.817  13.863  22.685  0.00  0.00     0.111 A 
ATOM      8  N   UNL d   1     -48.383  13.329  22.907  0.00  0.00    -0.239 NA
ATOM      9  C   UNL d   1     -49.078  13.723  23.095  0.00  0.00     0.088 A 
ATOM     10  C   UNL d   1     -49.813  13.472  23.349  0.00  0.00     0.020 A 
ATOM     11  C   UNL d   1     -48.929  14.537  22.983  0.00  0.00     0.049 A 
ATOM     12  C   UNL d   1     -50.391  14.021  23.488  0.00  0.00     0.002 A 
ATOM     13  C   UNL d   1     -50.242  14.835  23.376  0.00  0.00     0.001 A 
ATOM     14  C   UNL d   1     -49.520  15.094  23.126  0.00  0.00     0.008 A 
ATOM     15  C   UNL d   1     -50.847  15.377  23.525  0.00  0.00     0.000 C 
ATOM     16  S   UNL d   1     -48.155  14.621  22.731  0.00  0.00    -0.066 SA
ENDBRANCH   1   7
BRANCH   4  17
ATOM     17  N   UNL d   1     -44.766  13.080  21.798  0.00  0.00    -0.208 NA
ATOM     18  C   UNL d   1     -44.427  12.457  22.084  0.00  0.00     0.279 C 
ATOM     19  O   UNL d   1     -43.617  12.240  21.851  0.00  0.00    -0.265 OA
BRANCH  18  20
ATOM     20  C   UNL d   1     -44.903  12.047  22.609  0.00  0.00     0.062 C 
BRANCH  20  21
ATOM     21  C   UNL d   1     -44.621  11.377  22.970  0.00  0.00     0.005 A 
ATOM     22  C   UNL d   1     -43.815  11.234  22.964  0.00  0.00     0.000 A 
ATOM     23  C   UNL d   1     -43.505  10.550  23.330  0.00  0.00     0.000 A 
ATOM     24  C   UNL d   1     -44.022  10.020  23.698  0.00  0.00     0.000 A 
ATOM     25  C   UNL d   1     -44.836  10.175  23.698  0.00  0.00     0.000 A 
ATOM     26  C   UNL d   1     -45.141  10.844  23.340  0.00  0.00     0.000 A 
ENDBRANCH  20  21
ENDBRANCH  18  20
ENDBRANCH   4  17
TORSDOF 4
ENDMDL
MODEL 4
REMARK VINA RESULT:      -5.7      8.496      9.749
REMARK  4 active torsions:
REMARK  status: ('A' for Active; 'I' for Inactive)
REMARK    1  A    between atoms: C_7  and  C_1 
REMARK       I    between atoms: C_6  and  N_8 
REMARK    2  A    between atoms: C_14  and  C_6 
REMARK    3  A    between atoms: N_8  and  C_15 
REMARK    4  A    between atoms: C_20  and  C_14 
ROOT
ATOM      1  C   UNL d   1     -46.891  12.362  22.953  0.00  0.00     0.024 A 
ATOM      2  C   UNL d   1     -47.329  11.707  22.739  0.00  0.00     0.004 A 
ATOM      3  C   UNL d   1     -47.221  12.968  23.419  0.00  0.00     0.004 A 
ATOM      4  C   UNL d   1     -48.458  12.233  23.451  0.00  0.00     0.085 A 
ATOM      5  C   UNL d   1     -48.126  11.636  22.989  0.00  0.00     0.019 A 
ATOM      6  C   UNL d   1     -48.016  12.890  23.665  0.00  0.00     0.019 A 
ENDROOT
BRANCH   1   7
ATOM      7  C   UNL d   1     -46.116  12.418  22.702  0.00  0.00     0.111 A 
ATOM      8  N   UNL d   1     -45.533  11.890  22.894  0.00  0.00    -0.239 NA
ATOM      9  C   UNL d   1     -44.826  12.118  22.546  0.00  0.00     0.088 A 
ATOM     10  C   UNL d   1     -44.072  11.803  22.550  0.00  0.00     0.020 A 
ATOM     11  C   UNL d   1     -44.984  12.819  22.120  0.00  0.00     0.049 A 
ATOM     12  C   UNL d   1     -43.486  12.177  22.137  0.00  0.00     0.002 A 
ATOM     13  C   UNL d   1     -43.644  12.877  21.711  0.00  0.00     0.001 A 
ATOM     14  C   UNL d   1     -44.384  13.198  21.700  0.00  0.00     0.008 A 
ATOM     15  C   UNL d   1     -43.029  13.242  21.297  0.00  0.00     0.000 C 
ATOM     16  S   UNL d   1     -45.776  13.001  22.217  0.00  0.00    -0.066 SA
ENDBRANCH   1   7
BRANCH   4  17
ATOM     17  N   UNL d   1     -49.223  12.177  23.698  0.00  0.00    -0.208 NA
ATOM     18  C   UNL d   1     -49.775  12.573  23.346  0.00  0.00     0.279 C 
ATOM     19  O   UNL d   1     -50.604  12.517  23.607  0.00  0.00    -0.265 OA
BRANCH  18  20
ATOM     20  C   UNL d   1     -49.495  13.029  22.726  0.00  0.00     0.062 C 
BRANCH  20  21
ATOM     21  C   UNL d   1     -50.013  13.467  22.281  0.00  0.00     0.005 A 
ATOM     22  C   UNL d   1     -50.174  14.237  22.506  0.00  0.00     0.000 A 
ATOM     23  C   UNL d   1     -50.705  14.705  22.061  0.00  0.00     0.000 A 
ATOM     24  C   UNL d   1     -51.064  14.380  21.391  0.00  0.00     0.000 A 
ATOM     25  C   UNL d   1     -50.893  13.599  21.173  0.00  0.00     0.000 A 
ATOM     26  C   UNL d   1     -50.375  13.140  21.607  0.00  0.00     0.000 A 
ENDBRANCH  20  21
ENDBRANCH  18  20
ENDBRANCH   4  17
TORSDOF 4
ENDMDL
MODEL 5
REMARK VINA RESULT:      -5.0      8.311      9.593
REMARK  4 active torsions:
REMARK  status: ('A' for Active; 'I' for Inactive)
REMARK    1  A    between atoms: C_7  and  C_1 
REMARK       I    between atoms: C_6  and  N_8 
REMARK    2  A    between atoms: C_14  and  C_6 
REMARK    3  A    between atoms: N_8  and  C_15 
REMARK    4  A    between atoms: C_20  and  C_14 
ROOT
ATOM      1  C   UNL d   1     -47.834  12.447  23.050  0.00  0.00     0.024 A 
ATOM      2  C   UNL d   1     -47.274  12.858  23.480  0.00  0.00     0.004 A 
ATOM      3  C   UNL d   1     -47.707  11.656  22.821  0.00  0.00     0.004 A 
ATOM      4  C   UNL d   1     -46.425  11.702  23.473  0.00  0.00     0.085 A 
ATOM      5  C   UNL d   1     -46.557  12.485  23.698  0.00  0.00     0.019 A 
ATOM      6  C   UNL d   1     -46.989  11.291  23.042  0.00  0.00     0.019 A 
ENDROOT
BRANCH   1   7
ATOM      7  C   UNL d   1     -48.529  12.824  22.845  0.00  0.00     0.111 A 
ATOM      8  N   UNL d   1     -49.269  12.549  23.023  0.00  0.00    -0.239 NA
ATOM      9  C   UNL d   1     -49.835  13.067  22.732  0.00  0.00     0.088 A 
ATOM     10  C   UNL d   1     -50.652  13.071  22.748  0.00  0.00     0.020 A 
ATOM     11  C   UNL d   1     -49.421  13.689  22.359  0.00  0.00     0.049 A 
ATOM     12  C   UNL d   1     -51.050  13.683  22.400  0.00  0.00     0.002 A 
ATOM     13  C   UNL d   1     -50.636  14.305  22.026  0.00  0.00     0.001 A 
ATOM     14  C   UNL d   1     -49.830  14.311  22.005  0.00  0.00     0.008 A 
ATOM     15  C   UNL d   1     -51.064  14.919  21.677  0.00  0.00     0.000 C 
ATOM     16  S   UNL d   1     -48.620  13.538  22.430  0.00  0.00    -0.066 SA
ENDBRANCH   1   7
BRANCH   4  17
ATOM     17  N   UNL d   1     -45.739  11.331  23.677  0.00  0.00    -0.208 NA
ATOM     18  C   UNL d   1     -45.091  11.477  23.296  0.00  0.00     0.279 C 
ATOM     19  O   UNL d   1     -44.346  11.080  23.510  0.00  0.00    -0.265 OA
BRANCH  18  20
ATOM     20  C   UNL d   1     -45.191  12.025  22.696  0.00  0.00     0.062 C 
BRANCH  20  21
ATOM     21  C   UNL d   1     -44.546  12.288  22.280  0.00  0.00     0.005 A 
ATOM     22  C   UNL d   1     -44.593  13.007  21.891  0.00  0.00     0.000 A 
ATOM     23  C   UNL d   1     -43.940  13.297  21.456  0.00  0.00     0.000 A 
ATOM     24  C   UNL d   1     -43.247  12.847  21.424  0.00  0.00     0.000 A 
ATOM     25  C   UNL d   1     -43.211  12.121  21.821  0.00  0.00     0.000 A 
ATOM     26  C   UNL d   1     -43.849  11.837  22.247  0.00  0.00     0.000 A 
ENDBRANCH  20  21
ENDBRANCH  18  20
ENDBRANCH   4  17
TORSDOF 4
ENDMDL
MODEL 6
REMARK VINA RESULT:      -4.9      2.216      5.512
REMARK  4 active torsions:
REMARK  status: ('A' for Active; 'I' for Inactive)
REMARK    1  A    between atoms: C_7  and  C_1 
REMARK       I    between atoms: C_6  and  N_8 
REMARK    2  A    between atoms: C_14  and  C_6 
REMARK    3  A    between atoms: N_8  and  C_15 
REMARK    4  A    between atoms: C_20  and  C_14 
ROOT
ATOM      1  C   UNL d   1     -38.075  14.433  17.939  0.00  0.00     0.024 A 
ATOM      2  C   UNL d   1     -38.235  13.774  18.396  0.00  0.00     0.004 A 
ATOM      3  C   UNL d   1     -37.940  15.177  18.288  0.00  0.00     0.004 A 
ATOM      4  C   UNL d   1     -38.133  14.577  19.580  0.00  0.00     0.085 A 
ATOM      5  C   UNL d   1     -38.265  13.842  19.230  0.00  0.00     0.019 A 
ATOM      6  C   UNL d   1     -37.973  15.236  19.120  0.00  0.00     0.019 A 
ENDROOT
BRANCH   1   7
ATOM      7  C   UNL d   1     -38.048  14.352  17.127  0.00  0.00     0.111 A 
ATOM      8  N   UNL d   1     -38.004  14.970  16.606  0.00  0.00    -0.239 NA
ATOM      9  C   UNL d   1     -37.987  14.685  15.837  0.00  0.00     0.088 A 
ATOM     10  C   UNL d   1     -37.946  15.047  15.106  0.00  0.00     0.020 A 
ATOM     11  C   UNL d   1     -38.022  13.852  15.890  0.00  0.00     0.049 A 
ATOM     12  C   UNL d   1     -37.940  14.590  14.439  0.00  0.00     0.002 A 
ATOM     13  C   UNL d   1     -37.975  13.757  14.491  0.00  0.00     0.001 A 
ATOM     14  C   UNL d   1     -38.016  13.389  15.208  0.00  0.00     0.008 A 
ATOM     15  C   UNL d   1     -37.967  13.311  13.796  0.00  0.00     0.000 C 
ATOM     16  S   UNL d   1     -38.060  13.650  16.682  0.00  0.00    -0.066 SA
ENDBRANCH   1   7
BRANCH   4  17
ATOM     17  N   UNL d   1     -38.160  14.654  20.383  0.00  0.00    -0.208 NA
ATOM     18  C   UNL d   1     -38.831  14.691  20.747  0.00  0.00     0.279 C 
ATOM     19  O   UNL d   1     -38.868  14.775  21.613  0.00  0.00    -0.265 OA
BRANCH  18  20
ATOM     20  C   UNL d   1     -39.472  14.642  20.240  0.00  0.00     0.062 C 
BRANCH  20  21
ATOM     21  C   UNL d   1     -40.205  14.879  20.493  0.00  0.00     0.005 A 
ATOM     22  C   UNL d   1     -40.312  15.658  20.723  0.00  0.00     0.000 A 
ATOM     23  C   UNL d   1     -41.060  15.922  20.987  0.00  0.00     0.000 A 
ATOM     24  C   UNL d   1     -41.690  15.387  21.013  0.00  0.00     0.000 A 
ATOM     25  C   UNL d   1     -41.570  14.602  20.778  0.00  0.00     0.000 A 
ATOM     26  C   UNL d   1     -40.839  14.342  20.520  0.00  0.00     0.000 A 
ENDBRANCH  20  21
ENDBRANCH  18  20
ENDBRANCH   4  17
TORSDOF 4
ENDMDL
MODEL 7
REMARK VINA RESULT:      -4.2      1.392      2.079
REMARK  4 active torsions:
REMARK  status: ('A' for Active; 'I' for Inactive)
REMARK    1  A    between atoms: C_7  and  C_1 
REMARK       I    between atoms: C_6  and  N_8 
REMARK    2  A    between atoms: C_14  and  C_6 
REMARK    3  A    between atoms: N_8  and  C_15 
REMARK    4  A    between atoms: C_20  and  C_14 
ROOT
ATOM      1  C   UNL d   1     -38.476  14.369  19.517  0.00  0.00     0.024 A 
ATOM      2  C   UNL d   1     -38.424  15.166  19.347  0.00  0.00     0.004 A 
ATOM      3  C   UNL d   1     -38.469  13.797  18.911  0.00  0.00     0.004 A 
ATOM      4  C   UNL d   1     -38.356  14.859  17.948  0.00  0.00     0.085 A 
ATOM      5  C   UNL d   1     -38.363  15.421  18.552  0.00  0.00     0.019 A 
ATOM      6  C   UNL d   1     -38.408  14.059  18.121  0.00  0.00     0.019 A 
ENDROOT
BRANCH   1   7
ATOM      7  C   UNL d   1     -38.535  14.135  20.298  0.00  0.00     0.111 A 
ATOM      8  N   UNL d   1     -39.211  14.183  20.740  0.00  0.00    -0.239 NA
ATOM      9  C   UNL d   1     -39.069  13.900  21.497  0.00  0.00     0.088 A 
ATOM     10  C   UNL d   1     -39.536  13.818  22.162  0.00  0.00     0.020 A 
ATOM     11  C   UNL d   1     -38.267  13.667  21.518  0.00  0.00     0.049 A 
ATOM     12  C   UNL d   1     -39.213  13.511  22.836  0.00  0.00     0.002 A 
ATOM     13  C   UNL d   1     -38.411  13.278  22.858  0.00  0.00     0.001 A 
ATOM     14  C   UNL d   1     -37.940  13.354  22.207  0.00  0.00     0.008 A 
ATOM     15  C   UNL d   1     -38.102  12.966  23.558  0.00  0.00     0.000 C 
ATOM     16  S   UNL d   1     -37.941  13.812  20.781  0.00  0.00    -0.066 SA
ENDBRANCH   1   7
BRANCH   4  17
ATOM     17  N   UNL d   1     -38.297  15.092  17.178  0.00  0.00    -0.208 NA
ATOM     18  C   UNL d   1     -38.919  15.310  16.790  0.00  0.00     0.279 C 
ATOM     19  O   UNL d   1     -38.864  15.563  15.959  0.00  0.00    -0.265 OA
BRANCH  18  20
ATOM     20  C   UNL d   1     -39.603  15.276  17.238  0.00  0.00     0.062 C 
BRANCH  20  21
ATOM     21  C   UNL d   1     -40.322  15.414  16.888  0.00  0.00     0.005 A 
ATOM     22  C   UNL d   1     -40.914  15.770  17.327  0.00  0.00     0.000 A 
ATOM     23  C   UNL d   1     -41.661  15.921  16.986  0.00  0.00     0.000 A 
ATOM     24  C   UNL d   1     -41.795  15.706  16.199  0.00  0.00     0.000 A 
ATOM     25  C   UNL d   1     -41.189  15.345  15.764  0.00  0.00     0.000 A 
ATOM     26  C   UNL d   1     -40.457  15.197  16.097  0.00  0.00     0.000 A 
ENDBRANCH  20  21
ENDBRANCH  18  20
ENDBRANCH   4  17
TORSDOF 4
ENDMDL
