MODEL 1
REMARK VINA RESULT:      43.6      0.000      0.000
REMARK  3 active torsions:
REMARK  status: ('A' for Active; 'I' for Inactive)
REMARK    1  A    between atoms: S_11  and  C_7 
REMARK    2  A    between atoms: C_12  and  S_11 
REMARK    3  A    between atoms: C_14  and  C_12 
ROOT
ATOM      1  N   UNL d   1      57.940  49.680  50.362  0.00  0.00    -0.167 N 
ATOM      2  C   UNL d   1      57.689  49.666  51.143  0.00  0.00     0.220 A 
ATOM      3  C   UNL d   1      57.393  49.676  49.739  0.00  0.00     0.301 A 
ATOM      4  S   UNL d   1      58.362  49.674  51.622  0.00  0.00    -0.019 SA
ATOM      5  N   UNL d   1      58.758  49.697  50.350  0.00  0.00    -0.147 NA
ATOM      6  N   UNL d   1      56.885  49.647  51.317  0.00  0.00    -0.121 NA
ATOM      7  C   UNL d   1      59.019  49.694  51.130  0.00  0.00     0.163 A 
ATOM      8  N   UNL d   1      56.331  49.642  50.710  0.00  0.00    -0.141 NA
ATOM      9  C   UNL d   1      56.584  49.657  49.925  0.00  0.00     0.161 A 
ATOM     10  O   UNL d   1      57.643  49.690  48.962  0.00  0.00    -0.263 OA
ATOM     11  C   UNL d   1      56.033  49.652  49.313  0.00  0.00     0.028 C 
ENDROOT
BRANCH   7  12
ATOM     12  S   UNL d   1      59.806  49.708  51.379  0.00  0.00    -0.059 SA
BRANCH  12  13
ATOM     13  C   UNL d   1      60.161  49.029  51.673  0.00  0.00     0.037 C 
BRANCH  13  14
ATOM     14  C   UNL d   1      60.694  48.607  51.200  0.00  0.00     0.006 A 
ATOM     15  C   UNL d   1      60.627  47.787  51.137  0.00  0.00     0.001 A 
ATOM     16  C   UNL d   1      61.150  47.362  50.671  0.00  0.00     0.000 A 
ATOM     17  C   UNL d   1      61.083  46.550  50.608  0.00  0.00     0.000 C 
ATOM     18  C   UNL d   1      61.750  47.755  50.260  0.00  0.00     0.000 A 
ATOM     19  C   UNL d   1      61.821  48.575  50.321  0.00  0.00     0.000 A 
ATOM     20  C   UNL d   1      61.294  49.001  50.790  0.00  0.00     0.001 A 
ENDBRANCH  13  14
ENDBRANCH  12  13
ENDBRANCH   7  12
TORSDOF 3
ENDMDL
