MODEL 1
REMARK VINA RESULT:      -9.7      0.000      0.000
REMARK  4 active torsions:
REMARK  status: ('A' for Active; 'I' for Inactive)
REMARK    1  A    between atoms: C_7  and  C_1 
REMARK    2  A    between atoms: N_5  and  C_2 
REMARK    3  A    between atoms: C_12  and  N_5 
REMARK    4  A    between atoms: O_21  and  C_14 
ROOT
ATOM      1  C   UNL d   1      53.372  33.643  54.193  0.00  0.00     0.101 A 
ATOM      2  C   UNL d   1      52.772  33.648  53.609  0.00  0.00     0.187 A 
ATOM      3  C   UNL d   1      53.756  32.935  54.368  0.00  0.00     0.010 A 
ATOM      4  O   UNL d   1      52.576  32.945  53.219  0.00  0.00    -0.289 OA
ATOM      5  C   UNL d   1      52.964  32.240  53.399  0.00  0.00     0.104 A 
ATOM      6  C   UNL d   1      53.564  32.235  53.983  0.00  0.00     0.023 A 
ATOM      7  C   UNL d   1      52.768  31.536  53.010  0.00  0.00     0.049 A 
ATOM      8  C   UNL d   1      53.948  31.526  54.159  0.00  0.00     0.004 A 
ATOM      9  C   UNL d   1      53.156  30.828  53.189  0.00  0.00     0.096 A 
ATOM     10  C   UNL d   1      53.756  30.823  53.773  0.00  0.00     0.024 A 
ENDROOT
BRANCH   2  11
ATOM     11  N   UNL d   1      52.384  34.351  53.428  0.00  0.00    -0.222 NA
BRANCH  11  12
ATOM     12  C   UNL d   1      51.688  34.333  52.964  0.00  0.00     0.084 A 
ATOM     13  C   UNL d   1      51.740  34.366  52.143  0.00  0.00     0.019 A 
ATOM     14  C   UNL d   1      51.051  34.349  51.684  0.00  0.00     0.002 A 
ATOM     15  C   UNL d   1      50.326  34.299  52.057  0.00  0.00     0.000 A 
ATOM     16  C   UNL d   1      50.264  34.266  52.869  0.00  0.00     0.002 A 
ATOM     17  C   UNL d   1      49.629  34.281  51.615  0.00  0.00     0.000 C 
ATOM     18  C   UNL d   1      50.953  34.283  53.328  0.00  0.00     0.019 A 
ENDBRANCH  11  12
ENDBRANCH   2  11
BRANCH   1  19
ATOM     19  C   UNL d   1      53.577  34.341  54.590  0.00  0.00     0.300 C 
ATOM     20  O   UNL d   1      54.123  34.858  54.265  0.00  0.00    -0.264 OA
ATOM     21  N   UNL d   1      53.223  34.506  55.317  0.00  0.00    -0.102 N 
ENDBRANCH   1  19
BRANCH   9  22
ATOM     22  O   UNL d   1      52.965  30.135  52.808  0.00  0.00    -0.328 OA
ATOM     23  C   UNL d   1      52.611  29.523  53.233  0.00  0.00     0.181 C 
ENDBRANCH   9  22
TORSDOF 4
ENDMDL
MODEL 2
REMARK VINA RESULT:      -9.7      1.189      3.610
REMARK  4 active torsions:
REMARK  status: ('A' for Active; 'I' for Inactive)
REMARK    1  A    between atoms: C_7  and  C_1 
REMARK    2  A    between atoms: N_5  and  C_2 
REMARK    3  A    between atoms: C_12  and  N_5 
REMARK    4  A    between atoms: O_21  and  C_14 
ROOT
ATOM      1  C   UNL d   1      53.970  33.347  54.260  0.00  0.00     0.101 A 
ATOM      2  C   UNL d   1      53.686  32.655  53.884  0.00  0.00     0.187 A 
ATOM      3  C   UNL d   1      53.554  34.053  54.169  0.00  0.00     0.010 A 
ATOM      4  O   UNL d   1      52.995  32.691  53.431  0.00  0.00    -0.289 OA
ATOM      5  C   UNL d   1      52.583  33.401  53.344  0.00  0.00     0.104 A 
ATOM      6  C   UNL d   1      52.867  34.093  53.719  0.00  0.00     0.023 A 
ATOM      7  C   UNL d   1      51.892  33.437  52.890  0.00  0.00     0.049 A 
ATOM      8  C   UNL d   1      52.451  34.799  53.628  0.00  0.00     0.004 A 
ATOM      9  C   UNL d   1      51.478  34.148  52.802  0.00  0.00     0.096 A 
ATOM     10  C   UNL d   1      51.762  34.840  53.177  0.00  0.00     0.024 A 
ENDROOT
BRANCH   2  11
ATOM     11  N   UNL d   1      54.095  31.947  53.970  0.00  0.00    -0.222 NA
BRANCH  11  12
ATOM     12  C   UNL d   1      53.714  31.223  53.794  0.00  0.00     0.084 A 
ATOM     13  C   UNL d   1      53.716  30.936  53.022  0.00  0.00     0.019 A 
ATOM     14  C   UNL d   1      53.339  30.219  52.847  0.00  0.00     0.002 A 
ATOM     15  C   UNL d   1      52.970  29.807  53.448  0.00  0.00     0.000 A 
ATOM     16  C   UNL d   1      52.963  30.083  54.214  0.00  0.00     0.002 A 
ATOM     17  C   UNL d   1      52.590  29.091  53.291  0.00  0.00     0.000 C 
ATOM     18  C   UNL d   1      53.340  30.800  54.389  0.00  0.00     0.019 A 
ENDBRANCH  11  12
ENDBRANCH   2  11
BRANCH   1  19
ATOM     19  C   UNL d   1      54.660  33.324  54.717  0.00  0.00     0.300 C 
ATOM     20  O   UNL d   1      55.395  33.389  54.362  0.00  0.00    -0.264 OA
ATOM     21  N   UNL d   1      54.595  33.235  55.535  0.00  0.00    -0.102 N 
ENDBRANCH   1  19
BRANCH   9  22
ATOM     22  O   UNL d   1      50.797  34.186  52.355  0.00  0.00    -0.328 OA
ATOM     23  C   UNL d   1      50.092  34.422  52.713  0.00  0.00     0.181 C 
ENDBRANCH   9  22
TORSDOF 4
ENDMDL
MODEL 3
REMARK VINA RESULT:      -9.1      1.430      3.666
REMARK  4 active torsions:
REMARK  status: ('A' for Active; 'I' for Inactive)
REMARK    1  A    between atoms: C_7  and  C_1 
REMARK    2  A    between atoms: N_5  and  C_2 
REMARK    3  A    between atoms: C_12  and  N_5 
REMARK    4  A    between atoms: O_21  and  C_14 
ROOT
ATOM      1  C   UNL d   1      51.898  33.917  52.881  0.00  0.00     0.101 A 
ATOM      2  C   UNL d   1      52.286  33.187  53.008  0.00  0.00     0.187 A 
ATOM      3  C   UNL d   1      52.143  34.582  53.303  0.00  0.00     0.010 A 
ATOM      4  O   UNL d   1      52.907  33.145  53.554  0.00  0.00    -0.289 OA
ATOM      5  C   UNL d   1      53.147  33.814  53.973  0.00  0.00     0.104 A 
ATOM      6  C   UNL d   1      52.759  34.544  53.845  0.00  0.00     0.023 A 
ATOM      7  C   UNL d   1      53.768  33.771  54.519  0.00  0.00     0.049 A 
ATOM      8  C   UNL d   1      53.004  35.209  54.267  0.00  0.00     0.004 A 
ATOM      9  C   UNL d   1      54.010  34.441  54.940  0.00  0.00     0.096 A 
ATOM     10  C   UNL d   1      53.622  35.172  54.812  0.00  0.00     0.024 A 
ENDROOT
BRANCH   2  11
ATOM     11  N   UNL d   1      52.047  32.520  52.591  0.00  0.00    -0.222 NA
BRANCH  11  12
ATOM     12  C   UNL d   1      52.323  31.764  52.823  0.00  0.00     0.084 A 
ATOM     13  C   UNL d   1      53.046  31.487  52.543  0.00  0.00     0.019 A 
ATOM     14  C   UNL d   1      53.319  30.739  52.773  0.00  0.00     0.002 A 
ATOM     15  C   UNL d   1      52.862  30.287  53.277  0.00  0.00     0.000 A 
ATOM     16  C   UNL d   1      52.146  30.553  53.560  0.00  0.00     0.002 A 
ATOM     17  C   UNL d   1      53.119  29.540  53.516  0.00  0.00     0.000 C 
ATOM     18  C   UNL d   1      51.873  31.300  53.330  0.00  0.00     0.019 A 
ENDBRANCH  11  12
ENDBRANCH   2  11
BRANCH   1  19
ATOM     19  C   UNL d   1      51.275  33.973  52.337  0.00  0.00     0.300 C 
ATOM     20  O   UNL d   1      51.429  34.046  51.536  0.00  0.00    -0.264 OA
ATOM     21  N   UNL d   1      50.498  33.953  52.616  0.00  0.00    -0.102 N 
ENDBRANCH   1  19
BRANCH   9  22
ATOM     22  O   UNL d   1      54.621  34.403  55.477  0.00  0.00    -0.328 OA
ATOM     23  C   UNL d   1      55.179  33.798  55.413  0.00  0.00     0.181 C 
ENDBRANCH   9  22
TORSDOF 4
ENDMDL
MODEL 4
REMARK VINA RESULT:      -8.9      1.521      3.197
REMARK  4 active torsions:
REMARK  status: ('A' for Active; 'I' for Inactive)
REMARK    1  A    between atoms: C_7  and  C_1 
REMARK    2  A    between atoms: N_5  and  C_2 
REMARK    3  A    between atoms: C_12  and  N_5 
REMARK    4  A    between atoms: O_21  and  C_14 
ROOT
ATOM      1  C   UNL d   1      52.285  32.393  52.984  0.00  0.00     0.101 A 
ATOM      2  C   UNL d   1      53.001  32.530  53.396  0.00  0.00     0.187 A 
ATOM      3  C   UNL d   1      52.020  31.619  52.885  0.00  0.00     0.010 A 
ATOM      4  O   UNL d   1      53.428  31.887  53.695  0.00  0.00    -0.289 OA
ATOM      5  C   UNL d   1      53.157  31.115  53.593  0.00  0.00     0.104 A 
ATOM      6  C   UNL d   1      52.442  30.978  53.181  0.00  0.00     0.023 A 
ATOM      7  C   UNL d   1      53.585  30.473  53.892  0.00  0.00     0.049 A 
ATOM      8  C   UNL d   1      52.176  30.204  53.081  0.00  0.00     0.004 A 
ATOM      9  C   UNL d   1      53.314  29.697  53.789  0.00  0.00     0.096 A 
ATOM     10  C   UNL d   1      52.599  29.561  53.378  0.00  0.00     0.024 A 
ENDROOT
BRANCH   2  11
ATOM     11  N   UNL d   1      53.272  33.299  53.499  0.00  0.00    -0.222 NA
BRANCH  11  12
ATOM     12  C   UNL d   1      53.875  33.456  54.058  0.00  0.00     0.084 A 
ATOM     13  C   UNL d   1      54.665  33.437  53.827  0.00  0.00     0.019 A 
ATOM     14  C   UNL d   1      55.261  33.591  54.380  0.00  0.00     0.002 A 
ATOM     15  C   UNL d   1      55.054  33.762  55.152  0.00  0.00     0.000 A 
ATOM     16  C   UNL d   1      54.275  33.783  55.390  0.00  0.00     0.002 A 
ATOM     17  C   UNL d   1      55.635  33.918  55.716  0.00  0.00     0.000 C 
ATOM     18  C   UNL d   1      53.678  33.628  54.837  0.00  0.00     0.019 A 
ENDBRANCH  11  12
ENDBRANCH   2  11
BRANCH   1  19
ATOM     19  C   UNL d   1      51.848  33.028  52.680  0.00  0.00     0.300 C 
ATOM     20  O   UNL d   1      52.061  33.376  51.970  0.00  0.00    -0.264 OA
ATOM     21  N   UNL d   1      51.195  33.303  53.104  0.00  0.00    -0.102 N 
ENDBRANCH   1  19
BRANCH   9  22
ATOM     22  O   UNL d   1      53.733  29.063  54.083  0.00  0.00    -0.328 OA
ATOM     23  C   UNL d   1      53.489  28.708  54.787  0.00  0.00     0.181 C 
ENDBRANCH   9  22
TORSDOF 4
ENDMDL
MODEL 5
REMARK VINA RESULT:      -8.8      1.204      2.772
REMARK  4 active torsions:
REMARK  status: ('A' for Active; 'I' for Inactive)
REMARK    1  A    between atoms: C_7  and  C_1 
REMARK    2  A    between atoms: N_5  and  C_2 
REMARK    3  A    between atoms: C_12  and  N_5 
REMARK    4  A    between atoms: O_21  and  C_14 
ROOT
ATOM      1  C   UNL d   1      53.039  31.805  53.279  0.00  0.00     0.101 A 
ATOM      2  C   UNL d   1      52.579  32.493  53.159  0.00  0.00     0.187 A 
ATOM      3  C   UNL d   1      53.690  31.839  53.784  0.00  0.00     0.010 A 
ATOM      4  O   UNL d   1      52.785  33.194  53.548  0.00  0.00    -0.289 OA
ATOM      5  C   UNL d   1      53.437  33.222  54.052  0.00  0.00     0.104 A 
ATOM      6  C   UNL d   1      53.897  32.533  54.172  0.00  0.00     0.023 A 
ATOM      7  C   UNL d   1      53.643  33.923  54.441  0.00  0.00     0.049 A 
ATOM      8  C   UNL d   1      54.549  32.568  54.677  0.00  0.00     0.004 A 
ATOM      9  C   UNL d   1      54.298  33.953  54.947  0.00  0.00     0.096 A 
ATOM     10  C   UNL d   1      54.758  33.264  55.067  0.00  0.00     0.024 A 
ENDROOT
BRANCH   2  11
ATOM     11  N   UNL d   1      51.928  32.467  52.657  0.00  0.00    -0.222 NA
BRANCH  11  12
ATOM     12  C   UNL d   1      51.376  33.096  52.661  0.00  0.00     0.084 A 
ATOM     13  C   UNL d   1      51.443  33.705  52.110  0.00  0.00     0.019 A 
ATOM     14  C   UNL d   1      50.896  34.327  52.113  0.00  0.00     0.002 A 
ATOM     15  C   UNL d   1      50.295  34.325  52.667  0.00  0.00     0.000 A 
ATOM     16  C   UNL d   1      50.221  33.727  53.215  0.00  0.00     0.002 A 
ATOM     17  C   UNL d   1      49.741  34.937  52.684  0.00  0.00     0.000 C 
ATOM     18  C   UNL d   1      50.767  33.105  53.212  0.00  0.00     0.019 A 
ENDBRANCH  11  12
ENDBRANCH   2  11
BRANCH   1  19
ATOM     19  C   UNL d   1      52.843  31.097  52.896  0.00  0.00     0.300 C 
ATOM     20  O   UNL d   1      53.046  30.980  52.111  0.00  0.00    -0.264 OA
ATOM     21  N   UNL d   1      52.441  30.512  53.318  0.00  0.00    -0.102 N 
ENDBRANCH   1  19
BRANCH   9  22
ATOM     22  O   UNL d   1      54.502  34.641  55.331  0.00  0.00    -0.328 OA
ATOM     23  C   UNL d   1      53.939  35.238  55.419  0.00  0.00     0.181 C 
ENDBRANCH   9  22
TORSDOF 4
ENDMDL
MODEL 6
REMARK VINA RESULT:      -8.7      1.544      4.145
REMARK  4 active torsions:
REMARK  status: ('A' for Active; 'I' for Inactive)
REMARK    1  A    between atoms: C_7  and  C_1 
REMARK    2  A    between atoms: N_5  and  C_2 
REMARK    3  A    between atoms: C_12  and  N_5 
REMARK    4  A    between atoms: O_21  and  C_14 
ROOT
ATOM      1  C   UNL d   1      52.486  31.689  53.036  0.00  0.00     0.101 A 
ATOM      2  C   UNL d   1      52.979  32.256  53.405  0.00  0.00     0.187 A 
ATOM      3  C   UNL d   1      51.733  31.913  52.787  0.00  0.00     0.010 A 
ATOM      4  O   UNL d   1      52.703  33.029  53.513  0.00  0.00    -0.289 OA
ATOM      5  C   UNL d   1      51.948  33.246  53.262  0.00  0.00     0.104 A 
ATOM      6  C   UNL d   1      51.455  32.679  52.893  0.00  0.00     0.023 A 
ATOM      7  C   UNL d   1      51.671  34.019  53.370  0.00  0.00     0.049 A 
ATOM      8  C   UNL d   1      50.701  32.903  52.644  0.00  0.00     0.004 A 
ATOM      9  C   UNL d   1      50.914  34.238  53.118  0.00  0.00     0.096 A 
ATOM     10  C   UNL d   1      50.421  33.671  52.749  0.00  0.00     0.024 A 
ENDROOT
BRANCH   2  11
ATOM     11  N   UNL d   1      53.732  32.041  53.656  0.00  0.00    -0.222 NA
BRANCH  11  12
ATOM     12  C   UNL d   1      54.180  32.569  54.127  0.00  0.00     0.084 A 
ATOM     13  C   UNL d   1      54.045  32.611  54.938  0.00  0.00     0.019 A 
ATOM     14  C   UNL d   1      54.487  33.133  55.404  0.00  0.00     0.002 A 
ATOM     15  C   UNL d   1      55.055  33.601  55.048  0.00  0.00     0.000 A 
ATOM     16  C   UNL d   1      55.196  33.566  54.246  0.00  0.00     0.002 A 
ATOM     17  C   UNL d   1      55.505  34.127  55.497  0.00  0.00     0.000 C 
ATOM     18  C   UNL d   1      54.753  33.044  53.780  0.00  0.00     0.019 A 
ENDBRANCH  11  12
ENDBRANCH   2  11
BRANCH   1  19
ATOM     19  C   UNL d   1      52.752  30.913  52.923  0.00  0.00     0.300 C 
ATOM     20  O   UNL d   1      53.182  30.715  52.254  0.00  0.00    -0.264 OA
ATOM     21  N   UNL d   1      52.576  30.342  53.493  0.00  0.00    -0.102 N 
ENDBRANCH   1  19
BRANCH   9  22
ATOM     22  O   UNL d   1      50.639  34.998  53.223  0.00  0.00    -0.328 OA
ATOM     23  C   UNL d   1      49.826  35.137  53.223  0.00  0.00     0.181 C 
ENDBRANCH   9  22
TORSDOF 4
ENDMDL
