MODEL 1
REMARK VINA RESULT:      -8.0      0.000      0.000
REMARK  4 active torsions:
REMARK  status: ('A' for Active; 'I' for Inactive)
REMARK       I    between atoms: C_2  and  N_1 
REMARK    1  A    between atoms: C_3  and  N_1 
REMARK    2  A    between atoms: C_5  and  C_2 
REMARK    3  A    between atoms: C_4  and  C_3 
REMARK    4  A    between atoms: N_6  and  C_3 
ROOT
ATOM      1  C   UNL d   1     -49.629  13.452  22.821  0.00  0.00     0.170 C 
ENDROOT
BRANCH   1   2
ATOM      2  N   UNL d   1     -48.986  13.053  23.169  0.00  0.00    -0.191 NA
ATOM      3  C   UNL d   1     -48.276  12.915  22.695  0.00  0.00     0.281 C 
ATOM      4  O   UNL d   1     -48.223  13.168  21.914  0.00  0.00    -0.265 OA
BRANCH   3   5
ATOM      5  C   UNL d   1     -47.625  12.519  23.023  0.00  0.00     0.069 A 
ATOM      6  C   UNL d   1     -46.892  12.885  22.995  0.00  0.00     0.062 A 
ATOM      7 CL   UNL d   1     -46.703  13.549  22.710  0.00  0.00    -0.082 Cl
ATOM      8  C   UNL d   1     -46.201  12.498  23.327  0.00  0.00     0.012 A 
ATOM      9  C   UNL d   1     -46.279  11.760  23.672  0.00  0.00     0.001 A 
ATOM     10  C   UNL d   1     -47.032  11.389  23.698  0.00  0.00     0.000 A 
ATOM     11  C   UNL d   1     -47.705  11.774  23.371  0.00  0.00     0.006 A 
ENDBRANCH   3   5
ENDBRANCH   1   2
BRANCH   1  12
ATOM     12  C   UNL d   1     -50.189  13.009  22.387  0.00  0.00     0.249 C 
ATOM     13 CL   UNL d   1     -50.736  12.572  22.001  0.00  0.00    -0.075 Cl
ATOM     14 CL   UNL d   1     -50.230  13.080  21.495  0.00  0.00    -0.075 Cl
ATOM     15 CL   UNL d   1     -50.644  12.555  22.815  0.00  0.00    -0.075 Cl
ENDBRANCH   1  12
BRANCH   1  16
ATOM     16  N   UNL d   1     -49.715  14.261  22.900  0.00  0.00    -0.286 N 
ATOM     17  C   UNL d   1     -49.876  14.579  23.618  0.00  0.00     0.108 A 
ATOM     18  C   UNL d   1     -49.963  15.395  23.698  0.00  0.00     0.142 A 
ATOM     19  O   UNL d   1     -49.892  15.896  23.080  0.00  0.00    -0.300 OA
ATOM     20  C   UNL d   1     -49.724  15.569  22.327  0.00  0.00     0.142 A 
ATOM     21  C   UNL d   1     -49.637  14.753  22.247  0.00  0.00     0.108 A 
ENDBRANCH   1  16
TORSDOF 4
ENDMDL
MODEL 2
REMARK VINA RESULT:      -7.7      1.636      2.300
REMARK  4 active torsions:
REMARK  status: ('A' for Active; 'I' for Inactive)
REMARK       I    between atoms: C_2  and  N_1 
REMARK    1  A    between atoms: C_3  and  N_1 
REMARK    2  A    between atoms: C_5  and  C_2 
REMARK    3  A    between atoms: C_4  and  C_3 
REMARK    4  A    between atoms: N_6  and  C_3 
ROOT
ATOM      1  C   UNL d   1     -48.926  14.031  22.421  0.00  0.00     0.170 C 
ENDROOT
BRANCH   1   2
ATOM      2  N   UNL d   1     -48.137  13.801  22.282  0.00  0.00    -0.191 NA
ATOM      3  C   UNL d   1     -47.670  13.494  22.941  0.00  0.00     0.281 C 
ATOM      4  O   UNL d   1     -47.987  13.424  23.698  0.00  0.00    -0.265 OA
BRANCH   3   5
ATOM      5  C   UNL d   1     -46.883  13.260  22.823  0.00  0.00     0.069 A 
ATOM      6  C   UNL d   1     -46.623  12.572  23.184  0.00  0.00     0.062 A 
ATOM      7 CL   UNL d   1     -46.994  12.096  23.624  0.00  0.00    -0.082 Cl
ATOM      8  C   UNL d   1     -45.813  12.306  23.079  0.00  0.00     0.012 A 
ATOM      9  C   UNL d   1     -45.302  12.745  22.614  0.00  0.00     0.001 A 
ATOM     10  C   UNL d   1     -45.574  13.450  22.246  0.00  0.00     0.000 A 
ATOM     11  C   UNL d   1     -46.369  13.704  22.354  0.00  0.00     0.006 A 
ENDBRANCH   3   5
ENDBRANCH   1   2
BRANCH   1  12
ATOM     12  C   UNL d   1     -49.075  14.804  22.701  0.00  0.00     0.249 C 
ATOM     13 CL   UNL d   1     -49.208  15.557  22.938  0.00  0.00    -0.075 Cl
ATOM     14 CL   UNL d   1     -49.375  14.935  23.535  0.00  0.00    -0.075 Cl
ATOM     15 CL   UNL d   1     -48.933  15.366  22.191  0.00  0.00    -0.075 Cl
ENDBRANCH   1  12
BRANCH   1  16
ATOM     16  N   UNL d   1     -49.545  13.514  22.289  0.00  0.00    -0.286 N 
ATOM     17  C   UNL d   1     -49.694  13.248  21.548  0.00  0.00     0.108 A 
ATOM     18  C   UNL d   1     -50.318  12.727  21.414  0.00  0.00     0.142 A 
ATOM     19  O   UNL d   1     -50.793  12.468  22.001  0.00  0.00    -0.300 OA
ATOM     20  C   UNL d   1     -50.642  12.743  22.778  0.00  0.00     0.142 A 
ATOM     21  C   UNL d   1     -50.018  13.264  22.912  0.00  0.00     0.108 A 
ENDBRANCH   1  16
TORSDOF 4
ENDMDL
MODEL 3
REMARK VINA RESULT:      -7.6      1.382      3.389
REMARK  4 active torsions:
REMARK  status: ('A' for Active; 'I' for Inactive)
REMARK       I    between atoms: C_2  and  N_1 
REMARK    1  A    between atoms: C_3  and  N_1 
REMARK    2  A    between atoms: C_5  and  C_2 
REMARK    3  A    between atoms: C_4  and  C_3 
REMARK    4  A    between atoms: N_6  and  C_3 
ROOT
ATOM      1  C   UNL d   1     -48.258  12.799  22.824  0.00  0.00     0.170 C 
ENDROOT
BRANCH   1   2
ATOM      2  N   UNL d   1     -48.797  13.331  23.171  0.00  0.00    -0.191 NA
ATOM      3  C   UNL d   1     -49.123  13.968  22.686  0.00  0.00     0.281 C 
ATOM      4  O   UNL d   1     -48.914  14.058  21.895  0.00  0.00    -0.265 OA
BRANCH   3   5
ATOM      5  C   UNL d   1     -49.661  14.509  23.012  0.00  0.00     0.069 A 
ATOM      6  C   UNL d   1     -49.484  15.308  22.970  0.00  0.00     0.062 A 
ATOM      7 CL   UNL d   1     -48.890  15.648  22.671  0.00  0.00    -0.082 Cl
ATOM      8  C   UNL d   1     -50.023  15.889  23.299  0.00  0.00     0.012 A 
ATOM      9  C   UNL d   1     -50.715  15.640  23.657  0.00  0.00     0.001 A 
ATOM     10  C   UNL d   1     -50.892  14.820  23.698  0.00  0.00     0.000 A 
ATOM     11  C   UNL d   1     -50.359  14.256  23.373  0.00  0.00     0.006 A 
ENDBRANCH   3   5
ENDBRANCH   1   2
BRANCH   1  12
ATOM     12  C   UNL d   1     -48.557  12.137  22.412  0.00  0.00     0.249 C 
ATOM     13 CL   UNL d   1     -48.850  11.488  22.047  0.00  0.00    -0.075 Cl
ATOM     14 CL   UNL d   1     -48.586  12.135  21.516  0.00  0.00    -0.075 Cl
ATOM     15 CL   UNL d   1     -48.795  11.555  22.861  0.00  0.00    -0.075 Cl
ENDBRANCH   1  12
BRANCH   1  16
ATOM     16  N   UNL d   1     -47.451  12.917  22.884  0.00  0.00    -0.286 N 
ATOM     17  C   UNL d   1     -47.082  12.819  23.589  0.00  0.00     0.108 A 
ATOM     18  C   UNL d   1     -46.269  12.938  23.649  0.00  0.00     0.142 A 
ATOM     19  O   UNL d   1     -45.820  13.151  23.025  0.00  0.00    -0.300 OA
ATOM     20  C   UNL d   1     -46.200  13.255  22.285  0.00  0.00     0.142 A 
ATOM     21  C   UNL d   1     -47.014  13.136  22.225  0.00  0.00     0.108 A 
ENDBRANCH   1  16
TORSDOF 4
ENDMDL
MODEL 4
REMARK VINA RESULT:      -6.5      1.209      3.948
REMARK  4 active torsions:
REMARK  status: ('A' for Active; 'I' for Inactive)
REMARK       I    between atoms: C_2  and  N_1 
REMARK    1  A    between atoms: C_3  and  N_1 
REMARK    2  A    between atoms: C_5  and  C_2 
REMARK    3  A    between atoms: C_4  and  C_3 
REMARK    4  A    between atoms: N_6  and  C_3 
ROOT
ATOM      1  C   UNL d   1     -47.374  13.262  23.001  0.00  0.00     0.170 C 
ENDROOT
BRANCH   1   2
ATOM      2  N   UNL d   1     -48.151  13.562  22.970  0.00  0.00    -0.191 NA
ATOM      3  C   UNL d   1     -48.546  13.618  22.203  0.00  0.00     0.281 C 
ATOM      4  O   UNL d   1     -48.172  13.384  21.509  0.00  0.00    -0.265 OA
BRANCH   3   5
ATOM      5  C   UNL d   1     -49.319  13.914  22.152  0.00  0.00     0.069 A 
ATOM      6  C   UNL d   1     -49.843  13.546  21.639  0.00  0.00     0.062 A 
ATOM      7 CL   UNL d   1     -49.735  12.960  21.189  0.00  0.00    -0.082 Cl
ATOM      8  C   UNL d   1     -50.649  13.831  21.566  0.00  0.00     0.012 A 
ATOM      9  C   UNL d   1     -50.892  14.473  22.012  0.00  0.00     0.001 A 
ATOM     10  C   UNL d   1     -50.351  14.846  22.536  0.00  0.00     0.000 A 
ATOM     11  C   UNL d   1     -49.563  14.561  22.602  0.00  0.00     0.006 A 
ENDBRANCH   3   5
ENDBRANCH   1   2
BRANCH   1  12
ATOM     12  C   UNL d   1     -46.742  13.766  22.790  0.00  0.00     0.249 C 
ATOM     13 CL   UNL d   1     -46.142  14.266  22.617  0.00  0.00    -0.075 Cl
ATOM     14 CL   UNL d   1     -46.280  13.622  22.036  0.00  0.00    -0.075 Cl
ATOM     15 CL   UNL d   1     -46.604  14.340  23.289  0.00  0.00    -0.075 Cl
ENDBRANCH   1  12
BRANCH   1  16
ATOM     16  N   UNL d   1     -47.228  12.492  23.233  0.00  0.00    -0.286 N 
ATOM     17  C   UNL d   1     -46.478  12.209  23.235  0.00  0.00     0.108 A 
ATOM     18  C   UNL d   1     -46.331  11.433  23.468  0.00  0.00     0.142 A 
ATOM     19  O   UNL d   1     -46.913  10.937  23.698  0.00  0.00    -0.300 OA
ATOM     20  C   UNL d   1     -47.699  11.227  23.698  0.00  0.00     0.142 A 
ATOM     21  C   UNL d   1     -47.846  12.004  23.464  0.00  0.00     0.108 A 
ENDBRANCH   1  16
TORSDOF 4
ENDMDL
MODEL 5
REMARK VINA RESULT:      -6.3      1.226      1.946
REMARK  4 active torsions:
REMARK  status: ('A' for Active; 'I' for Inactive)
REMARK       I    between atoms: C_2  and  N_1 
REMARK    1  A    between atoms: C_3  and  N_1 
REMARK    2  A    between atoms: C_5  and  C_2 
REMARK    3  A    between atoms: C_4  and  C_3 
REMARK    4  A    between atoms: N_6  and  C_3 
ROOT
ATOM      1  C   UNL d   1     -48.568  14.520  22.792  0.00  0.00     0.170 C 
ENDROOT
BRANCH   1   2
ATOM      2  N   UNL d   1     -48.204  13.858  23.144  0.00  0.00    -0.191 NA
ATOM      3  C   UNL d   1     -48.017  13.174  22.651  0.00  0.00     0.281 C 
ATOM      4  O   UNL d   1     -48.189  13.163  21.846  0.00  0.00    -0.265 OA
BRANCH   3   5
ATOM      5  C   UNL d   1     -47.655  12.505  22.983  0.00  0.00     0.069 A 
ATOM      6  C   UNL d   1     -48.062  11.794  22.967  0.00  0.00     0.062 A 
ATOM      7 CL   UNL d   1     -48.738  11.639  22.689  0.00  0.00    -0.082 Cl
ATOM      8  C   UNL d   1     -47.711  11.086  23.303  0.00  0.00     0.012 A 
ATOM      9  C   UNL d   1     -46.967  11.127  23.641  0.00  0.00     0.001 A 
ATOM     10  C   UNL d   1     -46.554  11.858  23.655  0.00  0.00     0.000 A 
ATOM     11  C   UNL d   1     -46.904  12.547  23.323  0.00  0.00     0.006 A 
ENDBRANCH   3   5
ENDBRANCH   1   2
BRANCH   1  12
ATOM     12  C   UNL d   1     -48.091  15.062  22.371  0.00  0.00     0.249 C 
ATOM     13 CL   UNL d   1     -47.616  15.585  21.996  0.00  0.00    -0.075 Cl
ATOM     14 CL   UNL d   1     -48.274  15.259  21.516  0.00  0.00    -0.075 Cl
ATOM     15 CL   UNL d   1     -47.506  15.362  22.776  0.00  0.00    -0.075 Cl
ENDBRANCH   1  12
BRANCH   1  16
ATOM     16  N   UNL d   1     -49.374  14.641  22.854  0.00  0.00    -0.286 N 
ATOM     17  C   UNL d   1     -49.692  14.870  23.553  0.00  0.00     0.108 A 
ATOM     18  C   UNL d   1     -50.505  14.992  23.615  0.00  0.00     0.142 A 
ATOM     19  O   UNL d   1     -51.002  14.891  22.999  0.00  0.00    -0.300 OA
ATOM     20  C   UNL d   1     -50.674  14.652  22.266  0.00  0.00     0.142 A 
ATOM     21  C   UNL d   1     -49.862  14.530  22.203  0.00  0.00     0.108 A 
ENDBRANCH   1  16
TORSDOF 4
ENDMDL
MODEL 6
REMARK VINA RESULT:      -6.0      8.594      9.957
REMARK  4 active torsions:
REMARK  status: ('A' for Active; 'I' for Inactive)
REMARK       I    between atoms: C_2  and  N_1 
REMARK    1  A    between atoms: C_3  and  N_1 
REMARK    2  A    between atoms: C_5  and  C_2 
REMARK    3  A    between atoms: C_4  and  C_3 
REMARK    4  A    between atoms: N_6  and  C_3 
ROOT
ATOM      1  C   UNL d   1     -40.277  15.315  20.238  0.00  0.00     0.170 C 
ENDROOT
BRANCH   1   2
ATOM      2  N   UNL d   1     -40.308  15.528  19.433  0.00  0.00    -0.191 NA
ATOM      3  C   UNL d   1     -40.455  14.912  18.844  0.00  0.00     0.281 C 
ATOM      4  O   UNL d   1     -40.564  14.126  19.061  0.00  0.00    -0.265 OA
BRANCH   3   5
ATOM      5  C   UNL d   1     -40.489  15.104  18.038  0.00  0.00     0.069 A 
ATOM      6  C   UNL d   1     -40.066  14.642  17.509  0.00  0.00     0.062 A 
ATOM      7 CL   UNL d   1     -39.633  14.047  17.638  0.00  0.00    -0.082 Cl
ATOM      8  C   UNL d   1     -40.083  14.818  16.669  0.00  0.00     0.012 A 
ATOM      9  C   UNL d   1     -40.526  15.451  16.399  0.00  0.00     0.001 A 
ATOM     10  C   UNL d   1     -40.958  15.922  16.945  0.00  0.00     0.000 A 
ATOM     11  C   UNL d   1     -40.936  15.743  17.767  0.00  0.00     0.006 A 
ENDBRANCH   3   5
ENDBRANCH   1   2
BRANCH   1  12
ATOM     12  C   UNL d   1     -40.993  15.247  20.662  0.00  0.00     0.249 C 
ATOM     13 CL   UNL d   1     -41.681  15.217  21.069  0.00  0.00    -0.075 Cl
ATOM     14 CL   UNL d   1     -41.325  14.441  20.868  0.00  0.00    -0.075 Cl
ATOM     15 CL   UNL d   1     -41.323  15.920  20.849  0.00  0.00    -0.075 Cl
ENDBRANCH   1  12
BRANCH   1  16
ATOM     16  N   UNL d   1     -39.563  15.173  20.609  0.00  0.00    -0.286 N 
ATOM     17  C   UNL d   1     -39.022  15.761  20.676  0.00  0.00     0.108 A 
ATOM     18  C   UNL d   1     -38.302  15.618  21.051  0.00  0.00     0.142 A 
ATOM     19  O   UNL d   1     -38.112  14.906  21.357  0.00  0.00    -0.300 OA
ATOM     20  C   UNL d   1     -38.674  14.288  21.290  0.00  0.00     0.142 A 
ATOM     21  C   UNL d   1     -39.394  14.430  20.915  0.00  0.00     0.108 A 
ENDBRANCH   1  16
TORSDOF 4
ENDMDL
MODEL 7
REMARK VINA RESULT:      -5.4      9.089     10.531
REMARK  4 active torsions:
REMARK  status: ('A' for Active; 'I' for Inactive)
REMARK       I    between atoms: C_2  and  N_1 
REMARK    1  A    between atoms: C_3  and  N_1 
REMARK    2  A    between atoms: C_5  and  C_2 
REMARK    3  A    between atoms: C_4  and  C_3 
REMARK    4  A    between atoms: N_6  and  C_3 
ROOT
ATOM      1  C   UNL d   1     -39.746  15.073  17.890  0.00  0.00     0.170 C 
ENDROOT
BRANCH   1   2
ATOM      2  N   UNL d   1     -39.632  15.405  18.646  0.00  0.00    -0.191 NA
ATOM      3  C   UNL d   1     -39.928  14.980  19.338  0.00  0.00     0.281 C 
ATOM      4  O   UNL d   1     -40.318  14.259  19.265  0.00  0.00    -0.265 OA
BRANCH   3   5
ATOM      5  C   UNL d   1     -39.824  15.295  20.098  0.00  0.00     0.069 A 
ATOM      6  C   UNL d   1     -40.475  15.337  20.594  0.00  0.00     0.062 A 
ATOM      7 CL   UNL d   1     -41.182  15.130  20.470  0.00  0.00    -0.082 Cl
ATOM      8  C   UNL d   1     -40.396  15.658  21.386  0.00  0.00     0.012 A 
ATOM      9  C   UNL d   1     -39.666  15.922  21.643  0.00  0.00     0.001 A 
ATOM     10  C   UNL d   1     -39.001  15.876  21.131  0.00  0.00     0.000 A 
ATOM     11  C   UNL d   1     -39.086  15.560  20.356  0.00  0.00     0.006 A 
ENDBRANCH   3   5
ENDBRANCH   1   2
BRANCH   1  12
ATOM     12  C   UNL d   1     -40.446  15.257  17.473  0.00  0.00     0.249 C 
ATOM     13 CL   UNL d   1     -41.102  15.463  17.062  0.00  0.00    -0.075 Cl
ATOM     14 CL   UNL d   1     -41.152  14.706  17.503  0.00  0.00    -0.075 Cl
ATOM     15 CL   UNL d   1     -40.423  15.920  17.078  0.00  0.00    -0.075 Cl
ENDBRANCH   1  12
BRANCH   1  16
ATOM     16  N   UNL d   1     -39.189  14.575  17.560  0.00  0.00    -0.286 N 
ATOM     17  C   UNL d   1     -38.518  14.879  17.243  0.00  0.00     0.108 A 
ATOM     18  C   UNL d   1     -37.955  14.377  16.910  0.00  0.00     0.142 A 
ATOM     19  O   UNL d   1     -38.048  13.584  16.887  0.00  0.00    -0.300 OA
ATOM     20  C   UNL d   1     -38.747  13.262  17.216  0.00  0.00     0.142 A 
ATOM     21  C   UNL d   1     -39.310  13.763  17.550  0.00  0.00     0.108 A 
ENDBRANCH   1  16
TORSDOF 4
ENDMDL
