MODEL 1
REMARK VINA RESULT:      29.1      0.000      0.000
REMARK  4 active torsions:
REMARK  status: ('A' for Active; 'I' for Inactive)
REMARK       I    between atoms: C_2  and  N_1 
REMARK       I    between atoms: C_3  and  N_1 
REMARK    1  A    between atoms: C_4  and  C_2 
REMARK       I    between atoms: N_7  and  C_3 
REMARK    2  A    between atoms: C_15  and  N_7 
REMARK    3  A    between atoms: N_11  and  C_16 
REMARK    4  A    between atoms: C_16  and  C_15 
ROOT
ATOM      1  N   UNL d   1      13.610  13.191  -3.172  0.00  0.00    -0.152 NA
ATOM      2  C   UNL d   1      13.713  12.410  -2.915  0.00  0.00     0.283 C 
ATOM      3  C   UNL d   1      13.245  13.347  -3.898  0.00  0.00     0.371 C 
ATOM      4  O   UNL d   1      13.449  11.781  -3.389  0.00  0.00    -0.265 OA
ATOM      5  O   UNL d   1      12.981  12.731  -4.373  0.00  0.00    -0.242 OA
ATOM      6  N   UNL d   1      13.142  14.132  -4.154  0.00  0.00    -0.188 NA
ENDROOT
BRANCH   2   7
ATOM      7  C   UNL d   1      14.076  12.253  -2.193  0.00  0.00     0.058 A 
ATOM      8  C   UNL d   1      14.902  12.295  -2.130  0.00  0.00     0.006 A 
ATOM      9  C   UNL d   1      15.272  12.140  -1.413  0.00  0.00     0.012 A 
ATOM     10  C   UNL d   1      14.816  11.939  -0.744  0.00  0.00     0.058 A 
ATOM     11  C   UNL d   1      13.984  11.898  -0.814  0.00  0.00     0.012 A 
ATOM     12 CL   UNL d   1      15.170  11.779  -0.015  0.00  0.00    -0.082 Cl
ATOM     13  C   UNL d   1      13.619  12.056  -1.540  0.00  0.00     0.006 A 
ENDBRANCH   2   7
BRANCH   6  14
ATOM     14  C   UNL d   1      12.771  14.088  -4.880  0.00  0.00     0.123 C 
BRANCH  14  15
ATOM     15  C   UNL d   1      12.773  14.739  -5.383  0.00  0.00     0.101 C 
BRANCH  15  16
ATOM     16  N   UNL d   1      13.349  15.316  -5.305  0.00  0.00    -0.299 N 
ATOM     17  C   UNL d   1      13.960  15.353  -5.846  0.00  0.00     0.100 C 
ATOM     18  C   UNL d   1      13.486  15.928  -4.774  0.00  0.00     0.100 C 
ENDBRANCH  15  16
ENDBRANCH  14  15
ENDBRANCH   6  14
TORSDOF 4
ENDMDL
