MODEL 1
REMARK VINA RESULT:     -10.9      0.000      0.000
REMARK  3 active torsions:
REMARK  status: ('A' for Active; 'I' for Inactive)
REMARK       I    between atoms: C_6  and  N_1 
REMARK    1  A    between atoms: C_11  and  C_5 
REMARK    2  A    between atoms: C_12  and  C_6 
REMARK    3  A    between atoms: C_14  and  C_15 
ROOT
ATOM      1  N   UNL d   1      53.036  33.242  53.814  0.00  0.00    -0.264 N 
ATOM      2  C   UNL d   1      53.730  33.033  54.214  0.00  0.00     0.198 A 
ATOM      3  C   UNL d   1      52.721  32.567  53.483  0.00  0.00     0.138 A 
ATOM      4  N   UNL d   1      53.844  32.230  54.128  0.00  0.00    -0.243 NA
ATOM      5  C   UNL d   1      53.218  31.938  53.674  0.00  0.00     0.105 A 
ATOM      6  C   UNL d   1      52.697  34.002  53.749  0.00  0.00     0.263 C 
ATOM      7  C   UNL d   1      54.383  32.667  54.556  0.00  0.00     0.041 A 
ATOM      8  C   UNL d   1      53.620  33.843  54.303  0.00  0.00     0.041 A 
ATOM      9  S   UNL d   1      52.025  32.524  53.033  0.00  0.00    -0.058 SA
ATOM     10  N   UNL d   1      54.822  33.928  55.081  0.00  0.00    -0.302 N 
ATOM     11  O   UNL d   1      53.061  34.647  54.106  0.00  0.00    -0.267 OA
ATOM     12  C   UNL d   1      54.169  34.293  54.739  0.00  0.00     0.080 A 
ATOM     13  C   UNL d   1      54.932  33.118  54.992  0.00  0.00     0.080 A 
ATOM     14  C   UNL d   1      55.365  34.374  55.513  0.00  0.00     0.100 C 
ENDROOT
BRANCH   6  15
ATOM     15  C   UNL d   1      52.003  34.101  53.327  0.00  0.00     0.056 A 
ATOM     16  C   UNL d   1      51.277  33.972  53.689  0.00  0.00     0.004 A 
ATOM     17  C   UNL d   1      50.582  34.071  53.263  0.00  0.00    -0.004 A 
ATOM     18  C   UNL d   1      50.612  34.301  52.471  0.00  0.00    -0.023 A 
ATOM     19  C   UNL d   1      51.339  34.430  52.109  0.00  0.00    -0.004 A 
ATOM     20  C   UNL d   1      52.035  34.329  52.539  0.00  0.00     0.004 A 
BRANCH  18  21
ATOM     21  C   UNL d   1      49.912  34.401  52.041  0.00  0.00     0.019 C 
ATOM     22  C   UNL d   1      49.549  34.725  52.714  0.00  0.00     0.004 C 
ATOM     23  C   UNL d   1      50.270  34.082  51.378  0.00  0.00     0.004 C 
ATOM     24  C   UNL d   1      49.209  34.503  51.613  0.00  0.00     0.004 C 
ENDBRANCH  18  21
ENDBRANCH   6  15
BRANCH   5  25
ATOM     25  C   UNL d   1      53.075  31.167  53.432  0.00  0.00     0.020 A 
ATOM     26  C   UNL d   1      53.210  30.943  52.646  0.00  0.00     0.004 A 
ATOM     27  C   UNL d   1      53.065  30.166  52.409  0.00  0.00     0.030 A 
ATOM     28  C   UNL d   1      52.785  29.611  52.954  0.00  0.00     0.140 A 
ATOM     29  C   UNL d   1      52.652  29.837  53.737  0.00  0.00     0.030 A 
ATOM     30  F   UNL d   1      52.640  28.828  52.710  0.00  0.00    -0.204 F 
ATOM     31  C   UNL d   1      52.794  30.608  53.979  0.00  0.00     0.004 A 
ENDBRANCH   5  25
TORSDOF 3
ENDMDL
MODEL 2
REMARK VINA RESULT:      -9.1      1.757      3.230
REMARK  3 active torsions:
REMARK  status: ('A' for Active; 'I' for Inactive)
REMARK       I    between atoms: C_6  and  N_1 
REMARK    1  A    between atoms: C_11  and  C_5 
REMARK    2  A    between atoms: C_12  and  C_6 
REMARK    3  A    between atoms: C_14  and  C_15 
ROOT
ATOM      1  N   UNL d   1      52.754  31.883  53.460  0.00  0.00    -0.264 N 
ATOM      2  C   UNL d   1      53.274  31.253  53.599  0.00  0.00     0.198 A 
ATOM      3  C   UNL d   1      53.100  32.564  53.741  0.00  0.00     0.138 A 
ATOM      4  N   UNL d   1      53.940  31.547  53.966  0.00  0.00    -0.243 NA
ATOM      5  C   UNL d   1      53.835  32.362  54.056  0.00  0.00     0.105 A 
ATOM      6  C   UNL d   1      52.003  31.850  53.097  0.00  0.00     0.263 C 
ATOM      7  C   UNL d   1      53.890  30.748  53.805  0.00  0.00     0.041 A 
ATOM      8  C   UNL d   1      52.604  30.952  53.229  0.00  0.00     0.041 A 
ATOM      9  S   UNL d   1      52.771  33.325  53.715  0.00  0.00    -0.058 SA
ATOM     10  N   UNL d   1      53.165  29.633  53.269  0.00  0.00    -0.302 N 
ATOM     11  O   UNL d   1      51.704  31.132  52.831  0.00  0.00    -0.267 OA
ATOM     12  C   UNL d   1      52.549  30.138  53.063  0.00  0.00     0.080 A 
ATOM     13  C   UNL d   1      53.835  29.934  53.639  0.00  0.00     0.080 A 
ATOM     14  C   UNL d   1      53.111  28.826  53.105  0.00  0.00     0.100 C 
ENDROOT
BRANCH   6  15
ATOM     15  C   UNL d   1      51.567  32.537  53.007  0.00  0.00     0.056 A 
ATOM     16  C   UNL d   1      51.716  33.043  52.378  0.00  0.00     0.004 A 
ATOM     17  C   UNL d   1      51.277  33.732  52.292  0.00  0.00    -0.004 A 
ATOM     18  C   UNL d   1      50.685  33.915  52.838  0.00  0.00    -0.023 A 
ATOM     19  C   UNL d   1      50.536  33.408  53.467  0.00  0.00    -0.004 A 
ATOM     20  C   UNL d   1      50.978  32.718  53.552  0.00  0.00     0.004 A 
BRANCH  18  21
ATOM     21  C   UNL d   1      50.242  34.608  52.751  0.00  0.00     0.019 C 
ATOM     22  C   UNL d   1      50.018  34.367  51.989  0.00  0.00     0.004 C 
ATOM     23  C   UNL d   1      50.462  34.847  53.502  0.00  0.00     0.004 C 
ATOM     24  C   UNL d   1      49.797  35.303  52.661  0.00  0.00     0.004 C 
ENDBRANCH  18  21
ENDBRANCH   6  15
BRANCH   5  25
ATOM     25  C   UNL d   1      54.344  32.911  54.392  0.00  0.00     0.020 A 
ATOM     26  C   UNL d   1      54.927  33.277  53.932  0.00  0.00     0.004 A 
ATOM     27  C   UNL d   1      55.436  33.828  54.276  0.00  0.00     0.030 A 
ATOM     28  C   UNL d   1      55.365  34.015  55.078  0.00  0.00     0.140 A 
ATOM     29  C   UNL d   1      54.783  33.648  55.534  0.00  0.00     0.030 A 
ATOM     30  F   UNL d   1      55.881  34.572  55.420  0.00  0.00    -0.204 F 
ATOM     31  C   UNL d   1      54.274  33.100  55.198  0.00  0.00     0.004 A 
ENDBRANCH   5  25
TORSDOF 3
ENDMDL
MODEL 3
REMARK VINA RESULT:      -8.2      1.389      3.846
REMARK  3 active torsions:
REMARK  status: ('A' for Active; 'I' for Inactive)
REMARK       I    between atoms: C_6  and  N_1 
REMARK    1  A    between atoms: C_11  and  C_5 
REMARK    2  A    between atoms: C_12  and  C_6 
REMARK    3  A    between atoms: C_14  and  C_15 
ROOT
ATOM      1  N   UNL d   1      53.319  33.041  54.004  0.00  0.00    -0.264 N 
ATOM      2  C   UNL d   1      53.443  33.840  54.186  0.00  0.00     0.198 A 
ATOM      3  C   UNL d   1      52.641  32.985  53.557  0.00  0.00     0.138 A 
ATOM      4  N   UNL d   1      52.842  34.275  53.851  0.00  0.00    -0.243 NA
ATOM      5  C   UNL d   1      52.341  33.747  53.459  0.00  0.00     0.105 A 
ATOM      6  C   UNL d   1      53.792  32.390  54.229  0.00  0.00     0.263 C 
ATOM      7  C   UNL d   1      53.423  34.657  54.277  0.00  0.00     0.041 A 
ATOM      8  C   UNL d   1      54.053  33.404  54.527  0.00  0.00     0.041 A 
ATOM      9  S   UNL d   1      52.313  32.286  53.254  0.00  0.00    -0.058 SA
ATOM     10  N   UNL d   1      54.628  34.607  55.054  0.00  0.00    -0.302 N 
ATOM     11  O   UNL d   1      54.468  32.508  54.682  0.00  0.00    -0.267 OA
ATOM     12  C   UNL d   1      54.648  33.790  54.963  0.00  0.00     0.080 A 
ATOM     13  C   UNL d   1      54.019  35.043  54.713  0.00  0.00     0.080 A 
ATOM     14  C   UNL d   1      55.218  34.990  55.485  0.00  0.00     0.100 C 
ENDROOT
BRANCH   6  15
ATOM     15  C   UNL d   1      53.579  31.636  53.994  0.00  0.00     0.056 A 
ATOM     16  C   UNL d   1      53.797  31.355  53.254  0.00  0.00     0.004 A 
ATOM     17  C   UNL d   1      53.581  30.597  53.022  0.00  0.00    -0.004 A 
ATOM     18  C   UNL d   1      53.144  30.118  53.533  0.00  0.00    -0.023 A 
ATOM     19  C   UNL d   1      52.925  30.400  54.273  0.00  0.00    -0.004 A 
ATOM     20  C   UNL d   1      53.143  31.160  54.504  0.00  0.00     0.004 A 
BRANCH  18  21
ATOM     21  C   UNL d   1      52.926  29.355  53.299  0.00  0.00     0.019 C 
ATOM     22  C   UNL d   1      53.142  29.067  54.047  0.00  0.00     0.004 C 
ATOM     23  C   UNL d   1      52.713  29.638  52.561  0.00  0.00     0.004 C 
ATOM     24  C   UNL d   1      52.708  28.588  53.067  0.00  0.00     0.004 C 
ENDBRANCH  18  21
ENDBRANCH   6  15
BRANCH   5  25
ATOM     25  C   UNL d   1      51.657  33.907  53.035  0.00  0.00     0.020 A 
ATOM     26  C   UNL d   1      50.918  33.871  53.406  0.00  0.00     0.004 A 
ATOM     27  C   UNL d   1      50.233  34.033  52.974  0.00  0.00     0.030 A 
ATOM     28  C   UNL d   1      50.284  34.230  52.173  0.00  0.00     0.140 A 
ATOM     29  C   UNL d   1      51.023  34.264  51.806  0.00  0.00     0.030 A 
ATOM     30  F   UNL d   1      49.590  34.392  51.742  0.00  0.00    -0.204 F 
ATOM     31  C   UNL d   1      51.706  34.104  52.229  0.00  0.00     0.004 A 
ENDBRANCH   5  25
TORSDOF 3
ENDMDL
MODEL 4
REMARK VINA RESULT:      -8.1      1.755      4.482
REMARK  3 active torsions:
REMARK  status: ('A' for Active; 'I' for Inactive)
REMARK       I    between atoms: C_6  and  N_1 
REMARK    1  A    between atoms: C_11  and  C_5 
REMARK    2  A    between atoms: C_12  and  C_6 
REMARK    3  A    between atoms: C_14  and  C_15 
ROOT
ATOM      1  N   UNL d   1      52.681  32.614  53.325  0.00  0.00    -0.264 N 
ATOM      2  C   UNL d   1      52.510  33.403  53.138  0.00  0.00     0.198 A 
ATOM      3  C   UNL d   1      53.297  32.609  53.859  0.00  0.00     0.138 A 
ATOM      4  N   UNL d   1      53.019  33.883  53.556  0.00  0.00    -0.243 NA
ATOM      5  C   UNL d   1      53.510  33.392  54.005  0.00  0.00     0.105 A 
ATOM      6  C   UNL d   1      52.304  31.929  53.032  0.00  0.00     0.263 C 
ATOM      7  C   UNL d   1      52.466  34.220  53.060  0.00  0.00     0.041 A 
ATOM      8  C   UNL d   1      51.993  32.922  52.714  0.00  0.00     0.041 A 
ATOM      9  S   UNL d   1      53.646  31.935  54.194  0.00  0.00    -0.058 SA
ATOM     10  N   UNL d   1      51.384  34.081  52.129  0.00  0.00    -0.302 N 
ATOM     11  O   UNL d   1      51.687  31.997  52.494  0.00  0.00    -0.267 OA
ATOM     12  C   UNL d   1      51.427  33.264  52.207  0.00  0.00     0.080 A 
ATOM     13  C   UNL d   1      51.900  34.562  52.553  0.00  0.00     0.080 A 
ATOM     14  C   UNL d   1      50.823  34.419  51.627  0.00  0.00     0.100 C 
ENDROOT
BRANCH   6  15
ATOM     15  C   UNL d   1      52.554  31.192  53.285  0.00  0.00     0.056 A 
ATOM     16  C   UNL d   1      53.196  30.826  52.926  0.00  0.00     0.004 A 
ATOM     17  C   UNL d   1      53.443  30.086  53.182  0.00  0.00    -0.004 A 
ATOM     18  C   UNL d   1      53.046  29.709  53.800  0.00  0.00    -0.023 A 
ATOM     19  C   UNL d   1      52.404  30.075  54.159  0.00  0.00    -0.004 A 
ATOM     20  C   UNL d   1      52.158  30.818  53.900  0.00  0.00     0.004 A 
BRANCH  18  21
ATOM     21  C   UNL d   1      53.295  28.964  54.058  0.00  0.00     0.019 C 
ATOM     22  C   UNL d   1      53.290  28.693  53.274  0.00  0.00     0.004 C 
ATOM     23  C   UNL d   1      53.301  29.230  54.833  0.00  0.00     0.004 C 
ATOM     24  C   UNL d   1      53.545  28.215  54.315  0.00  0.00     0.004 C 
ENDBRANCH  18  21
ENDBRANCH   6  15
BRANCH   5  25
ATOM     25  C   UNL d   1      54.114  33.603  54.518  0.00  0.00     0.020 A 
ATOM     26  C   UNL d   1      54.898  33.632  54.251  0.00  0.00     0.004 A 
ATOM     27  C   UNL d   1      55.502  33.845  54.773  0.00  0.00     0.030 A 
ATOM     28  C   UNL d   1      55.326  34.028  55.560  0.00  0.00     0.140 A 
ATOM     29  C   UNL d   1      54.544  33.997  55.822  0.00  0.00     0.030 A 
ATOM     30  F   UNL d   1      55.939  34.241  56.081  0.00  0.00    -0.204 F 
ATOM     31  C   UNL d   1      53.940  33.787  55.309  0.00  0.00     0.004 A 
ENDBRANCH   5  25
TORSDOF 3
ENDMDL
