MODEL 1
REMARK VINA RESULT:      -4.8      0.000      0.000
REMARK  3 active torsions:
REMARK  status: ('A' for Active; 'I' for Inactive)
REMARK    1  A    between atoms: S_6  and  C_2 
REMARK    2  A    between atoms: C_8  and  S_6 
REMARK    3  A    between atoms: C_9  and  C_8 
ROOT
ATOM      1  S   UNL d   1     -41.169-122.572 -52.733  0.00  0.00    -0.048 SA
ENDROOT
BRANCH   1   2
ATOM      2  C   UNL d   1     -41.156-122.888 -51.963  0.00  0.00     0.203 A 
ATOM      3  N   UNL d   1     -41.146-122.452 -51.263  0.00  0.00    -0.193 NA
ATOM      4  C   UNL d   1     -41.134-122.987 -50.632  0.00  0.00     0.234 A 
ATOM      5  S   UNL d   1     -41.136-123.748 -50.942  0.00  0.00     0.056 SA
ATOM      6  N   UNL d   1     -41.123-122.785 -49.835  0.00  0.00    -0.118 N 
ATOM      7  N   UNL d   1     -41.150-123.692 -51.766  0.00  0.00    -0.181 NA
ENDBRANCH   1   2
BRANCH   1   8
ATOM      8  C   UNL d   1     -41.535-122.993 -53.342  0.00  0.00     0.038 C 
BRANCH   8   9
ATOM      9  C   UNL d   1     -41.673-122.635 -54.068  0.00  0.00     0.007 A 
ATOM     10  C   UNL d   1     -42.365-122.187 -54.170  0.00  0.00     0.001 A 
ATOM     11  C   UNL d   1     -42.509-121.823 -54.901  0.00  0.00     0.000 A 
ATOM     12  C   UNL d   1     -41.967-121.909 -55.517  0.00  0.00     0.000 A 
ATOM     13  C   UNL d   1     -41.276-122.361 -55.404  0.00  0.00     0.000 A 
ATOM     14  C   UNL d   1     -41.137-122.720 -54.678  0.00  0.00     0.001 A 
ENDBRANCH   8   9
ENDBRANCH   1   8
TORSDOF 3
ENDMDL
MODEL 2
REMARK VINA RESULT:      -4.4      1.533      4.115
REMARK  3 active torsions:
REMARK  status: ('A' for Active; 'I' for Inactive)
REMARK    1  A    between atoms: S_6  and  C_2 
REMARK    2  A    between atoms: C_8  and  S_6 
REMARK    3  A    between atoms: C_9  and  C_8 
ROOT
ATOM      1  S   UNL d   1     -41.232-123.153 -51.504  0.00  0.00    -0.048 SA
ENDROOT
BRANCH   1   2
ATOM      2  C   UNL d   1     -41.224-123.011 -52.324  0.00  0.00     0.203 A 
ATOM      3  N   UNL d   1     -41.314-123.581 -52.912  0.00  0.00    -0.193 NA
ATOM      4  C   UNL d   1     -41.270-123.199 -53.645  0.00  0.00     0.234 A 
ATOM      5  S   UNL d   1     -41.152-122.397 -53.507  0.00  0.00     0.056 SA
ATOM      6  N   UNL d   1     -41.333-123.563 -54.379  0.00  0.00    -0.118 N 
ATOM      7  N   UNL d   1     -41.123-122.276 -52.690  0.00  0.00    -0.181 NA
ENDBRANCH   1   2
BRANCH   1   8
ATOM      8  C   UNL d   1     -41.587-122.605 -50.998  0.00  0.00     0.038 C 
BRANCH   8   9
ATOM      9  C   UNL d   1     -41.739-122.803 -50.215  0.00  0.00     0.007 A 
ATOM     10  C   UNL d   1     -42.513-122.736 -49.926  0.00  0.00     0.001 A 
ATOM     11  C   UNL d   1     -42.671-122.935 -49.136  0.00  0.00     0.000 A 
ATOM     12  C   UNL d   1     -42.060-123.195 -48.648  0.00  0.00     0.000 A 
ATOM     13  C   UNL d   1     -41.285-123.258 -48.948  0.00  0.00     0.000 A 
ATOM     14  C   UNL d   1     -41.133-123.061 -49.731  0.00  0.00     0.001 A 
ENDBRANCH   8   9
ENDBRANCH   1   8
TORSDOF 3
ENDMDL
MODEL 3
REMARK VINA RESULT:      -3.6      2.169      5.010
REMARK  3 active torsions:
REMARK  status: ('A' for Active; 'I' for Inactive)
REMARK    1  A    between atoms: S_6  and  C_2 
REMARK    2  A    between atoms: C_8  and  S_6 
REMARK    3  A    between atoms: C_9  and  C_8 
ROOT
ATOM      1  S   UNL d   1     -41.937-123.003 -49.953  0.00  0.00    -0.048 SA
ENDROOT
BRANCH   1   2
ATOM      2  C   UNL d   1     -41.660-122.967 -50.737  0.00  0.00     0.203 A 
ATOM      3  N   UNL d   1     -41.688-122.306 -51.228  0.00  0.00    -0.193 NA
ATOM      4  C   UNL d   1     -41.355-122.516 -51.955  0.00  0.00     0.234 A 
ATOM      5  S   UNL d   1     -41.123-123.304 -51.912  0.00  0.00     0.056 SA
ATOM      6  N   UNL d   1     -41.273-122.019 -52.605  0.00  0.00    -0.118 N 
ATOM      7  N   UNL d   1     -41.310-123.588 -51.159  0.00  0.00    -0.181 NA
ENDBRANCH   1   2
BRANCH   1   8
ATOM      8  C   UNL d   1     -41.569-123.507 -49.412  0.00  0.00     0.038 C 
BRANCH   8   9
ATOM      9  C   UNL d   1     -41.800-123.507 -48.623  0.00  0.00     0.007 A 
ATOM     10  C   UNL d   1     -41.278-123.208 -48.051  0.00  0.00     0.001 A 
ATOM     11  C   UNL d   1     -41.507-123.206 -47.254  0.00  0.00     0.000 A 
ATOM     12  C   UNL d   1     -42.246-123.499 -47.038  0.00  0.00     0.000 A 
ATOM     13  C   UNL d   1     -42.763-123.797 -47.620  0.00  0.00     0.000 A 
ATOM     14  C   UNL d   1     -42.532-123.797 -48.409  0.00  0.00     0.001 A 
ENDBRANCH   8   9
ENDBRANCH   1   8
TORSDOF 3
ENDMDL
MODEL 4
REMARK VINA RESULT:      -3.4      2.265      3.164
REMARK  3 active torsions:
REMARK  status: ('A' for Active; 'I' for Inactive)
REMARK    1  A    between atoms: S_6  and  C_2 
REMARK    2  A    between atoms: C_8  and  S_6 
REMARK    3  A    between atoms: C_9  and  C_8 
ROOT
ATOM      1  S   UNL d   1     -42.271-122.874 -49.925  0.00  0.00    -0.048 SA
ENDROOT
BRANCH   1   2
ATOM      2  C   UNL d   1     -42.436-123.139 -49.154  0.00  0.00     0.203 A 
ATOM      3  N   UNL d   1     -42.024-122.926 -48.472  0.00  0.00    -0.193 NA
ATOM      4  C   UNL d   1     -42.373-123.317 -47.832  0.00  0.00     0.234 A 
ATOM      5  S   UNL d   1     -42.997-123.770 -48.119  0.00  0.00     0.056 SA
ATOM      6  N   UNL d   1     -42.133-123.259 -47.048  0.00  0.00    -0.118 N 
ATOM      7  N   UNL d   1     -43.040-123.663 -48.937  0.00  0.00    -0.181 NA
ENDBRANCH   1   2
BRANCH   1   8
ATOM      8  C   UNL d   1     -41.526-123.010 -50.255  0.00  0.00     0.038 C 
BRANCH   8   9
ATOM      9  C   UNL d   1     -41.392-122.860 -51.052  0.00  0.00     0.007 A 
ATOM     10  C   UNL d   1     -41.258-123.498 -51.564  0.00  0.00     0.001 A 
ATOM     11  C   UNL d   1     -41.122-123.351 -52.370  0.00  0.00     0.000 A 
ATOM     12  C   UNL d   1     -41.123-122.576 -52.651  0.00  0.00     0.000 A 
ATOM     13  C   UNL d   1     -41.259-121.942 -52.128  0.00  0.00     0.000 A 
ATOM     14  C   UNL d   1     -41.393-122.093 -51.331  0.00  0.00     0.001 A 
ENDBRANCH   8   9
ENDBRANCH   1   8
TORSDOF 3
ENDMDL
MODEL 5
REMARK VINA RESULT:      -3.1      1.964      3.858
REMARK  3 active torsions:
REMARK  status: ('A' for Active; 'I' for Inactive)
REMARK    1  A    between atoms: S_6  and  C_2 
REMARK    2  A    between atoms: C_8  and  S_6 
REMARK    3  A    between atoms: C_9  and  C_8 
ROOT
ATOM      1  S   UNL d   1     -41.726-122.295 -53.172  0.00  0.00    -0.048 SA
ENDROOT
BRANCH   1   2
ATOM      2  C   UNL d   1     -41.789-122.269 -54.001  0.00  0.00     0.203 A 
ATOM      3  N   UNL d   1     -42.461-122.056 -54.428  0.00  0.00    -0.193 NA
ATOM      4  C   UNL d   1     -42.278-122.107 -55.233  0.00  0.00     0.234 A 
ATOM      5  S   UNL d   1     -41.495-122.351 -55.301  0.00  0.00     0.056 SA
ATOM      6  N   UNL d   1     -42.792-121.942 -55.852  0.00  0.00    -0.118 N 
ATOM      7  N   UNL d   1     -41.188-122.452 -54.541  0.00  0.00    -0.181 NA
ENDBRANCH   1   2
BRANCH   1   8
ATOM      8  C   UNL d   1     -41.124-122.737 -52.821  0.00  0.00     0.038 C 
BRANCH   8   9
ATOM      9  C   UNL d   1     -41.126-122.868 -52.009  0.00  0.00     0.007 A 
ATOM     10  C   UNL d   1     -41.131-123.648 -51.728  0.00  0.00     0.001 A 
ATOM     11  C   UNL d   1     -41.133-123.784 -50.909  0.00  0.00     0.000 A 
ATOM     12  C   UNL d   1     -41.130-123.147 -50.386  0.00  0.00     0.000 A 
ATOM     13  C   UNL d   1     -41.125-122.367 -50.680  0.00  0.00     0.000 A 
ATOM     14  C   UNL d   1     -41.122-122.236 -51.491  0.00  0.00     0.001 A 
ENDBRANCH   8   9
ENDBRANCH   1   8
TORSDOF 3
ENDMDL
