MODEL 1
REMARK VINA RESULT:      -3.2      0.000      0.000
REMARK  0 active torsions:
REMARK  status: ('A' for Active; 'I' for Inactive)
REMARK       I    between atoms: N_3  and  C_1 
REMARK       I    between atoms: N_5  and  C_1 
REMARK       I    between atoms: C_2  and  N_4 
REMARK       I    between atoms: N_6  and  C_2 
ROOT
ATOM      1  C   UNL d   1      33.232  20.808 -20.972  0.00  0.00     0.339 C 
ATOM      2  C   UNL d   1      33.237  19.241 -23.876  0.00  0.00     0.340 C 
ATOM      3  N   UNL d   1      33.233  20.414 -21.711  0.00  0.00    -0.254 N 
ATOM      4  N   UNL d   1      33.236  19.637 -23.152  0.00  0.00    -0.254 N 
ATOM      5  N   UNL d   1      33.233  21.633 -20.943  0.00  0.00    -0.258 N 
ATOM      6  N   UNL d   1      33.236  18.420 -23.897  0.00  0.00    -0.253 N 
ATOM      7  O   UNL d   1      33.229  20.373 -20.278  0.00  0.00    -0.245 OA
ATOM      8  O   UNL d   1      33.240  19.669 -24.584  0.00  0.00    -0.245 OA
ATOM      9  C   UNL d   1      33.238  20.478 -23.137  0.00  0.00     0.104 A 
ATOM     10  C   UNL d   1      33.233  19.213 -22.455  0.00  0.00     0.104 A 
ATOM     11  C   UNL d   1      33.232  19.605 -21.728  0.00  0.00     0.104 A 
ATOM     12  C   UNL d   1      33.236  20.870 -22.411  0.00  0.00     0.104 A 
ATOM     13  O   UNL d   1      33.233  16.774 -23.922  0.00  0.00    -0.300 OA
ATOM     14  C   UNL d   1      33.233  17.993 -23.188  0.00  0.00     0.111 A 
ATOM     15  C   UNL d   1      33.237  18.029 -24.623  0.00  0.00     0.111 A 
ATOM     16  C   UNL d   1      33.232  21.968 -20.191  0.00  0.00     0.085 A 
ATOM     17  C   UNL d   1      33.236  22.019 -21.676  0.00  0.00     0.085 A 
ATOM     18  C   UNL d   1      33.236  17.199 -24.634  0.00  0.00     0.142 A 
ATOM     19  C   UNL d   1      33.231  17.176 -23.202  0.00  0.00     0.142 A 
ATOM     20  C   UNL d   1      33.233  22.763 -19.981  0.00  0.00     0.019 A 
ATOM     21  C   UNL d   1      33.238  22.830 -21.830  0.00  0.00     0.019 A 
ATOM     22  C   UNL d   1      33.236  23.424 -20.465  0.00  0.00     0.002 A 
ATOM     23  C   UNL d   1      33.238  23.453 -21.291  0.00  0.00     0.002 A 
ENDROOT
TORSDOF 0
ENDMDL
MODEL 2
REMARK VINA RESULT:      -3.2      0.835      4.925
REMARK  0 active torsions:
REMARK  status: ('A' for Active; 'I' for Inactive)
REMARK       I    between atoms: N_3  and  C_1 
REMARK       I    between atoms: N_5  and  C_1 
REMARK       I    between atoms: C_2  and  N_4 
REMARK       I    between atoms: N_6  and  C_2 
ROOT
ATOM      1  C   UNL d   1      33.239  19.648 -23.592  0.00  0.00     0.339 C 
ATOM      2  C   UNL d   1      33.239  21.180 -20.669  0.00  0.00     0.340 C 
ATOM      3  N   UNL d   1      33.239  20.033 -22.849  0.00  0.00    -0.254 N 
ATOM      4  N   UNL d   1      33.239  20.794 -21.398  0.00  0.00    -0.254 N 
ATOM      5  N   UNL d   1      33.239  18.824 -23.631  0.00  0.00    -0.258 N 
ATOM      6  N   UNL d   1      33.239  22.001 -20.639  0.00  0.00    -0.253 N 
ATOM      7  O   UNL d   1      33.240  20.092 -24.281  0.00  0.00    -0.245 OA
ATOM      8  O   UNL d   1      33.238  20.744 -19.967  0.00  0.00    -0.245 OA
ATOM      9  C   UNL d   1      33.239  19.953 -21.424  0.00  0.00     0.104 A 
ATOM     10  C   UNL d   1      33.239  21.225 -22.091  0.00  0.00     0.104 A 
ATOM     11  C   UNL d   1      33.239  20.842 -22.821  0.00  0.00     0.104 A 
ATOM     12  C   UNL d   1      33.239  19.570 -22.154  0.00  0.00     0.104 A 
ATOM     13  O   UNL d   1      33.239  23.647 -20.594  0.00  0.00    -0.300 OA
ATOM     14  C   UNL d   1      33.239  22.436 -21.342  0.00  0.00     0.111 A 
ATOM     15  C   UNL d   1      33.239  22.384 -19.908  0.00  0.00     0.111 A 
ATOM     16  C   UNL d   1      33.239  18.498 -24.387  0.00  0.00     0.085 A 
ATOM     17  C   UNL d   1      33.239  18.429 -22.902  0.00  0.00     0.085 A 
ATOM     18  C   UNL d   1      33.239  23.214 -19.887  0.00  0.00     0.142 A 
ATOM     19  C   UNL d   1      33.240  23.253 -21.319  0.00  0.00     0.142 A 
ATOM     20  C   UNL d   1      33.239  17.705 -24.606  0.00  0.00     0.019 A 
ATOM     21  C   UNL d   1      33.238  17.616 -22.758  0.00  0.00     0.019 A 
ATOM     22  C   UNL d   1      33.239  17.038 -24.130  0.00  0.00     0.002 A 
ATOM     23  C   UNL d   1      33.238  17.000 -23.305  0.00  0.00     0.002 A 
ENDROOT
TORSDOF 0
ENDMDL
MODEL 3
REMARK VINA RESULT:      -3.0      1.140      4.682
REMARK  0 active torsions:
REMARK  status: ('A' for Active; 'I' for Inactive)
REMARK       I    between atoms: N_3  and  C_1 
REMARK       I    between atoms: N_5  and  C_1 
REMARK       I    between atoms: C_2  and  N_4 
REMARK       I    between atoms: N_6  and  C_2 
ROOT
ATOM      1  C   UNL d   1      33.234  19.002 -22.466  0.00  0.00     0.339 C 
ATOM      2  C   UNL d   1      33.236  22.225 -21.754  0.00  0.00     0.340 C 
ATOM      3  N   UNL d   1      33.234  19.821 -22.289  0.00  0.00    -0.254 N 
ATOM      4  N   UNL d   1      33.235  21.420 -21.936  0.00  0.00    -0.254 N 
ATOM      5  N   UNL d   1      33.235  18.749 -23.251  0.00  0.00    -0.258 N 
ATOM      6  N   UNL d   1      33.234  22.469 -20.969  0.00  0.00    -0.253 N 
ATOM      7  O   UNL d   1      33.231  18.454 -21.857  0.00  0.00    -0.245 OA
ATOM      8  O   UNL d   1      33.238  22.788 -22.358  0.00  0.00    -0.245 OA
ATOM      9  C   UNL d   1      33.237  21.175 -22.740  0.00  0.00     0.104 A 
ATOM     10  C   UNL d   1      33.233  20.865 -21.337  0.00  0.00     0.104 A 
ATOM     11  C   UNL d   1      33.233  20.059 -21.515  0.00  0.00     0.104 A 
ATOM     12  C   UNL d   1      33.237  20.369 -22.918  0.00  0.00     0.104 A 
ATOM     13  O   UNL d   1      33.231  22.944 -19.393  0.00  0.00    -0.300 OA
ATOM     14  C   UNL d   1      33.232  21.905 -20.365  0.00  0.00     0.111 A 
ATOM     15  C   UNL d   1      33.235  23.275 -20.791  0.00  0.00     0.111 A 
ATOM     16  C   UNL d   1      33.234  17.934 -23.367  0.00  0.00     0.085 A 
ATOM     17  C   UNL d   1      33.237  19.348 -23.823  0.00  0.00     0.085 A 
ATOM     18  C   UNL d   1      33.233  23.513 -19.996  0.00  0.00     0.142 A 
ATOM     19  C   UNL d   1      33.231  22.141 -19.582  0.00  0.00     0.142 A 
ATOM     20  C   UNL d   1      33.236  17.514 -24.075  0.00  0.00     0.019 A 
ATOM     21  C   UNL d   1      33.239  19.274 -24.645  0.00  0.00     0.019 A 
ATOM     22  C   UNL d   1      33.238  17.799 -24.843  0.00  0.00     0.002 A 
ATOM     23  C   UNL d   1      33.240  18.585 -25.097  0.00  0.00     0.002 A 
ENDROOT
TORSDOF 0
ENDMDL
MODEL 4
REMARK VINA RESULT:      -1.8      1.565      4.790
REMARK  0 active torsions:
REMARK  status: ('A' for Active; 'I' for Inactive)
REMARK       I    between atoms: N_3  and  C_1 
REMARK       I    between atoms: N_5  and  C_1 
REMARK       I    between atoms: C_2  and  N_4 
REMARK       I    between atoms: N_6  and  C_2 
ROOT
ATOM      1  C   UNL d   1      33.230  17.975 -22.998  0.00  0.00     0.339 C 
ATOM      2  C   UNL d   1      33.221  21.054 -24.186  0.00  0.00     0.340 C 
ATOM      3  N   UNL d   1      33.228  18.754 -23.303  0.00  0.00    -0.254 N 
ATOM      4  N   UNL d   1      33.223  20.282 -23.893  0.00  0.00    -0.254 N 
ATOM      5  N   UNL d   1      33.227  17.329 -23.512  0.00  0.00    -0.258 N 
ATOM      6  N   UNL d   1      33.224  21.691 -23.668  0.00  0.00    -0.253 N 
ATOM      7  O   UNL d   1      33.235  17.855 -22.187  0.00  0.00    -0.245 OA
ATOM      8  O   UNL d   1      33.215  21.189 -25.001  0.00  0.00    -0.245 OA
ATOM      9  C   UNL d   1      33.220  19.633 -24.428  0.00  0.00     0.104 A 
ATOM     10  C   UNL d   1      33.228  20.151 -23.087  0.00  0.00     0.104 A 
ATOM     11  C   UNL d   1      33.231  19.381 -22.790  0.00  0.00     0.104 A 
ATOM     12  C   UNL d   1      33.222  18.864 -24.131  0.00  0.00     0.104 A 
ATOM     13  O   UNL d   1      33.230  22.958 -22.617  0.00  0.00    -0.300 OA
ATOM     14  C   UNL d   1      33.229  21.554 -22.852  0.00  0.00     0.111 A 
ATOM     15  C   UNL d   1      33.221  22.461 -23.965  0.00  0.00     0.111 A 
ATOM     16  C   UNL d   1      33.230  16.586 -23.159  0.00  0.00     0.085 A 
ATOM     17  C   UNL d   1      33.222  17.513 -24.320  0.00  0.00     0.085 A 
ATOM     18  C   UNL d   1      33.225  23.098 -23.434  0.00  0.00     0.142 A 
ATOM     19  C   UNL d   1      33.232  22.184 -22.331  0.00  0.00     0.142 A 
ATOM     20  C   UNL d   1      33.228  15.845 -23.516  0.00  0.00     0.019 A 
ATOM     21  C   UNL d   1      33.218  16.996 -24.964  0.00  0.00     0.019 A 
ATOM     22  C   UNL d   1      33.223  15.658 -24.314  0.00  0.00     0.002 A 
ATOM     23  C   UNL d   1      33.218  16.173 -24.960  0.00  0.00     0.002 A 
ENDROOT
TORSDOF 0
ENDMDL
