MODEL 1
REMARK VINA RESULT:      -2.9      0.000      0.000
REMARK  7 active torsions:
REMARK  status: ('A' for Active; 'I' for Inactive)
REMARK    1  A    between atoms: C_6  and  C_1 
REMARK    2  A    between atoms: C_7  and  C_3 
REMARK    3  A    between atoms: O_14  and  C_6 
REMARK    4  A    between atoms: C_8  and  C_7 
REMARK    5  A    between atoms: S_10  and  C_8 
REMARK    6  A    between atoms: C_13  and  S_10 
REMARK    7  A    between atoms: C_22  and  O_14 
ROOT
ATOM      1  C   UNL d   1      31.014  16.670 -24.127  0.00  0.00     0.083 A 
ATOM      2  C   UNL d   1      31.364  17.396 -24.299  0.00  0.00     0.028 A 
ATOM      3  C   UNL d   1      32.054  17.423 -23.915  0.00  0.00     0.121 A 
ATOM      4  N   UNL d   1      32.151  16.716 -23.493  0.00  0.00    -0.242 NA
ATOM      5  C   UNL d   1      31.507  16.285 -23.643  0.00  0.00     0.087 A 
ATOM      6  C   UNL d   1      31.024  17.954 -24.784  0.00  0.00     0.002 C 
ATOM      7  C   UNL d   1      31.333  15.502 -23.339  0.00  0.00     0.021 C 
ENDROOT
BRANCH   3   8
ATOM      8  C   UNL d   1      32.534  18.103 -23.988  0.00  0.00     0.220 C 
ATOM      9  O   UNL d   1      32.911  18.270 -24.682  0.00  0.00    -0.284 OA
BRANCH   8  10
ATOM     10  C   UNL d   1      32.622  18.609 -23.336  0.00  0.00     0.079 C 
BRANCH  10  11
ATOM     11  S   UNL d   1      33.234  19.140 -23.309  0.00  0.00    -0.083 SA
BRANCH  11  12
ATOM     12  C   UNL d   1      33.208  19.761 -22.744  0.00  0.00     0.030 A 
ATOM     13  C   UNL d   1      33.229  19.587 -21.933  0.00  0.00     0.007 A 
ATOM     14  C   UNL d   1      33.203  20.194 -21.410  0.00  0.00     0.012 A 
ATOM     15  C   UNL d   1      33.156  20.985 -21.642  0.00  0.00     0.058 A 
ATOM     16  C   UNL d   1      33.137  21.133 -22.424  0.00  0.00     0.012 A 
ATOM     17 CL   UNL d   1      33.128  21.630 -21.113  0.00  0.00    -0.082 Cl
ATOM     18  C   UNL d   1      33.161  20.547 -22.988  0.00  0.00     0.007 A 
ENDBRANCH  11  12
ENDBRANCH  10  11
ENDBRANCH   8  10
ENDBRANCH   3   8
BRANCH   1  19
ATOM     19  C   UNL d   1      30.269  16.401 -24.419  0.00  0.00     0.302 C 
ATOM     20  O   UNL d   1      30.247  15.841 -25.044  0.00  0.00    -0.259 OA
BRANCH  19  21
ATOM     21  O   UNL d   1      29.547  16.676 -24.104  0.00  0.00    -0.271 OA
BRANCH  21  22
ATOM     22  C   UNL d   1      28.897  16.164 -24.125  0.00  0.00     0.126 C 
ATOM     23  C   UNL d   1      28.139  16.429 -23.868  0.00  0.00     0.029 C 
ENDBRANCH  21  22
ENDBRANCH  19  21
ENDBRANCH   1  19
TORSDOF 7
ENDMDL
MODEL 2
REMARK VINA RESULT:      -2.6      2.917      5.610
REMARK  7 active torsions:
REMARK  status: ('A' for Active; 'I' for Inactive)
REMARK    1  A    between atoms: C_6  and  C_1 
REMARK    2  A    between atoms: C_7  and  C_3 
REMARK    3  A    between atoms: O_14  and  C_6 
REMARK    4  A    between atoms: C_8  and  C_7 
REMARK    5  A    between atoms: S_10  and  C_8 
REMARK    6  A    between atoms: C_13  and  S_10 
REMARK    7  A    between atoms: C_22  and  O_14 
ROOT
ATOM      1  C   UNL d   1      32.800  21.878 -21.657  0.00  0.00     0.083 A 
ATOM      2  C   UNL d   1      32.808  21.088 -21.427  0.00  0.00     0.028 A 
ATOM      3  C   UNL d   1      33.047  20.662 -22.048  0.00  0.00     0.121 A 
ATOM      4  N   UNL d   1      33.195  21.176 -22.681  0.00  0.00    -0.242 NA
ATOM      5  C   UNL d   1      33.036  21.900 -22.412  0.00  0.00     0.087 A 
ATOM      6  C   UNL d   1      32.598  20.837 -20.682  0.00  0.00     0.002 C 
ATOM      7  C   UNL d   1      33.100  22.635 -22.852  0.00  0.00     0.021 C 
ENDROOT
BRANCH   3   8
ATOM      8  C   UNL d   1      33.109  19.832 -21.973  0.00  0.00     0.220 C 
ATOM      9  O   UNL d   1      33.240  19.490 -21.253  0.00  0.00    -0.284 OA
BRANCH   8  10
ATOM     10  C   UNL d   1      33.033  19.358 -22.650  0.00  0.00     0.079 C 
BRANCH  10  11
ATOM     11  S   UNL d   1      33.154  18.557 -22.605  0.00  0.00    -0.083 SA
BRANCH  11  12
ATOM     12  C   UNL d   1      32.897  18.072 -23.240  0.00  0.00     0.030 A 
ATOM     13  C   UNL d   1      32.402  18.384 -23.828  0.00  0.00     0.007 A 
ATOM     14  C   UNL d   1      32.167  17.904 -24.426  0.00  0.00     0.012 A 
ATOM     15  C   UNL d   1      32.396  17.112 -24.482  0.00  0.00     0.058 A 
ATOM     16  C   UNL d   1      32.871  16.830 -23.909  0.00  0.00     0.012 A 
ATOM     17 CL   UNL d   1      32.162  16.597 -25.097  0.00  0.00    -0.082 Cl
ATOM     18  C   UNL d   1      33.131  17.283 -23.286  0.00  0.00     0.007 A 
ENDBRANCH  11  12
ENDBRANCH  10  11
ENDBRANCH   8  10
ENDBRANCH   3   8
BRANCH   1  19
ATOM     19  C   UNL d   1      32.579  22.531 -21.171  0.00  0.00     0.302 C 
ATOM     20  O   UNL d   1      31.872  22.953 -21.338  0.00  0.00    -0.259 OA
BRANCH  19  21
ATOM     21  O   UNL d   1      33.046  22.775 -20.522  0.00  0.00    -0.271 OA
BRANCH  21  22
ATOM     22  C   UNL d   1      32.771  23.410 -20.066  0.00  0.00     0.126 C 
ATOM     23  C   UNL d   1      33.232  23.701 -19.424  0.00  0.00     0.029 C 
ENDBRANCH  21  22
ENDBRANCH  19  21
ENDBRANCH   1  19
TORSDOF 7
ENDMDL
MODEL 3
REMARK VINA RESULT:      -1.1      2.852      5.511
REMARK  7 active torsions:
REMARK  status: ('A' for Active; 'I' for Inactive)
REMARK    1  A    between atoms: C_6  and  C_1 
REMARK    2  A    between atoms: C_7  and  C_3 
REMARK    3  A    between atoms: O_14  and  C_6 
REMARK    4  A    between atoms: C_8  and  C_7 
REMARK    5  A    between atoms: S_10  and  C_8 
REMARK    6  A    between atoms: C_13  and  S_10 
REMARK    7  A    between atoms: C_22  and  O_14 
ROOT
ATOM      1  C   UNL d   1      32.728  21.590 -20.883  0.00  0.00     0.083 A 
ATOM      2  C   UNL d   1      32.713  21.397 -21.683  0.00  0.00     0.028 A 
ATOM      3  C   UNL d   1      33.023  20.674 -21.758  0.00  0.00     0.121 A 
ATOM      4  N   UNL d   1      33.241  20.399 -21.007  0.00  0.00    -0.242 NA
ATOM      5  C   UNL d   1      33.050  20.975 -20.503  0.00  0.00     0.087 A 
ATOM      6  C   UNL d   1      32.420  21.893 -22.258  0.00  0.00     0.002 C 
ATOM      7  C   UNL d   1      33.161  20.968 -19.652  0.00  0.00     0.021 C 
ENDROOT
BRANCH   3   8
ATOM      8  C   UNL d   1      33.079  20.332 -22.518  0.00  0.00     0.220 C 
ATOM      9  O   UNL d   1      33.241  20.787 -23.166  0.00  0.00    -0.284 OA
BRANCH   8  10
ATOM     10  C   UNL d   1      32.965  19.514 -22.604  0.00  0.00     0.079 C 
BRANCH  10  11
ATOM     11  S   UNL d   1      32.995  19.171 -23.338  0.00  0.00    -0.083 SA
BRANCH  11  12
ATOM     12  C   UNL d   1      32.706  18.388 -23.431  0.00  0.00     0.030 A 
ATOM     13  C   UNL d   1      33.236  17.753 -23.495  0.00  0.00     0.007 A 
ATOM     14  C   UNL d   1      32.940  17.013 -23.583  0.00  0.00     0.012 A 
ATOM     15  C   UNL d   1      32.129  16.855 -23.613  0.00  0.00     0.058 A 
ATOM     16  C   UNL d   1      31.635  17.476 -23.550  0.00  0.00     0.012 A 
ATOM     17 CL   UNL d   1      31.802  16.092 -23.704  0.00  0.00    -0.082 Cl
ATOM     18  C   UNL d   1      31.894  18.242 -23.460  0.00  0.00     0.007 A 
ENDBRANCH  11  12
ENDBRANCH  10  11
ENDBRANCH   8  10
ENDBRANCH   3   8
BRANCH   1  19
ATOM     19  C   UNL d   1      32.451  22.312 -20.545  0.00  0.00     0.302 C 
ATOM     20  O   UNL d   1      31.808  22.717 -20.902  0.00  0.00    -0.259 OA
BRANCH  19  21
ATOM     21  O   UNL d   1      32.799  22.641 -19.860  0.00  0.00    -0.271 OA
BRANCH  21  22
ATOM     22  C   UNL d   1      32.545  23.391 -19.621  0.00  0.00     0.126 C 
ATOM     23  C   UNL d   1      32.544  23.599 -18.804  0.00  0.00     0.029 C 
ENDBRANCH  21  22
ENDBRANCH  19  21
ENDBRANCH   1  19
TORSDOF 7
ENDMDL
MODEL 4
REMARK VINA RESULT:      -0.7      2.348      4.897
REMARK  7 active torsions:
REMARK  status: ('A' for Active; 'I' for Inactive)
REMARK    1  A    between atoms: C_6  and  C_1 
REMARK    2  A    between atoms: C_7  and  C_3 
REMARK    3  A    between atoms: O_14  and  C_6 
REMARK    4  A    between atoms: C_8  and  C_7 
REMARK    5  A    between atoms: S_10  and  C_8 
REMARK    6  A    between atoms: C_13  and  S_10 
REMARK    7  A    between atoms: C_22  and  O_14 
ROOT
ATOM      1  C   UNL d   1      32.938  19.266 -23.547  0.00  0.00     0.083 A 
ATOM      2  C   UNL d   1      32.808  18.481 -23.335  0.00  0.00     0.028 A 
ATOM      3  C   UNL d   1      32.706  18.070 -24.002  0.00  0.00     0.121 A 
ATOM      4  N   UNL d   1      32.770  18.588 -24.646  0.00  0.00    -0.242 NA
ATOM      5  C   UNL d   1      32.910  19.300 -24.337  0.00  0.00     0.087 A 
ATOM      6  C   UNL d   1      32.795  18.222 -22.564  0.00  0.00     0.002 C 
ATOM      7  C   UNL d   1      33.021  20.033 -24.769  0.00  0.00     0.021 C 
ENDROOT
BRANCH   3   8
ATOM      8  C   UNL d   1      32.562  17.248 -23.955  0.00  0.00     0.220 C 
ATOM      9  O   UNL d   1      33.174  16.721 -23.944  0.00  0.00    -0.284 OA
BRANCH   8  10
ATOM     10  C   UNL d   1      31.779  16.975 -23.920  0.00  0.00     0.079 C 
BRANCH  10  11
ATOM     11  S   UNL d   1      31.569  16.287 -24.295  0.00  0.00    -0.083 SA
BRANCH  11  12
ATOM     12  C   UNL d   1      30.755  16.085 -24.342  0.00  0.00     0.030 A 
ATOM     13  C   UNL d   1      30.351  15.825 -23.666  0.00  0.00     0.007 A 
ATOM     14  C   UNL d   1      29.574  15.637 -23.732  0.00  0.00     0.012 A 
ATOM     15  C   UNL d   1      29.158  15.689 -24.444  0.00  0.00     0.058 A 
ATOM     16  C   UNL d   1      29.562  15.940 -25.083  0.00  0.00     0.012 A 
ATOM     17 CL   UNL d   1      28.350  15.497 -24.533  0.00  0.00    -0.082 Cl
ATOM     18  C   UNL d   1      30.350  16.141 -25.059  0.00  0.00     0.007 A 
ENDBRANCH  11  12
ENDBRANCH  10  11
ENDBRANCH   8  10
ENDBRANCH   3   8
BRANCH   1  19
ATOM     19  C   UNL d   1      33.074  19.905 -23.012  0.00  0.00     0.302 C 
ATOM     20  O   UNL d   1      33.211  20.676 -23.314  0.00  0.00    -0.259 OA
BRANCH  19  21
ATOM     21  O   UNL d   1      33.077  19.794 -22.185  0.00  0.00    -0.271 OA
BRANCH  21  22
ATOM     22  C   UNL d   1      33.235  20.452 -21.707  0.00  0.00     0.126 C 
ATOM     23  C   UNL d   1      33.241  20.376 -20.868  0.00  0.00     0.029 C 
ENDBRANCH  21  22
ENDBRANCH  19  21
ENDBRANCH   1  19
TORSDOF 7
ENDMDL
