MODEL 1
REMARK VINA RESULT:      10.5      0.000      0.000
REMARK  3 active torsions:
REMARK  status: ('A' for Active; 'I' for Inactive)
REMARK    1  A    between atoms: C_7  and  C_4 
REMARK    2  A    between atoms: C_8  and  C_7 
REMARK    3  A    between atoms: C_11  and  C_8 
ROOT
ATOM      1  N   UNL d   1      46.484 -19.229  43.703  0.00  0.00    -0.269 N 
ATOM      2  C   UNL d   1      46.396 -18.529  44.129  0.00  0.00     0.282 A 
ATOM      3  N   UNL d   1      46.385 -17.793  42.910  0.00  0.00    -0.239 NA
ATOM      4  C   UNL d   1      46.347 -17.812  43.733  0.00  0.00     0.138 A 
ATOM      5  C   UNL d   1      46.522 -19.210  42.880  0.00  0.00     0.085 A 
ATOM      6  C   UNL d   1      46.472 -18.494  42.484  0.00  0.00     0.098 A 
ATOM      7  O   UNL d   1      46.359 -18.548  44.953  0.00  0.00    -0.265 OA
ATOM      8  C   UNL d   1      46.482 -19.655  44.593  0.00  0.00     0.102 C 
ATOM      9  C   UNL d   1      46.609 -19.911  42.454  0.00  0.00     0.019 A 
ATOM     10  C   UNL d   1      46.510 -18.475  41.660  0.00  0.00     0.021 A 
ATOM     11  C   UNL d   1      46.642 -19.865  41.679  0.00  0.00     0.002 A 
ATOM     12  C   UNL d   1      46.593 -19.148  41.284  0.00  0.00     0.002 A 
ENDROOT
BRANCH   4  13
ATOM     13  C   UNL d   1      46.259 -17.111  44.160  0.00  0.00     0.024 C 
BRANCH  13  14
ATOM     14  C   UNL d   1      45.552 -16.690  44.120  0.00  0.00     0.002 C 
BRANCH  14  15
ATOM     15  C   UNL d   1      45.528 -15.899  44.356  0.00  0.00     0.000 A 
ATOM     16  C   UNL d   1      44.848 -15.596  44.714  0.00  0.00     0.000 A 
ATOM     17  C   UNL d   1      44.824 -14.807  44.950  0.00  0.00     0.000 A 
ATOM     18  C   UNL d   1      45.479 -14.319  44.829  0.00  0.00     0.000 A 
ATOM     19  C   UNL d   1      46.159 -14.622  44.471  0.00  0.00     0.000 A 
ATOM     20  C   UNL d   1      46.182 -15.412  44.235  0.00  0.00     0.000 A 
ENDBRANCH  14  15
ENDBRANCH  13  14
ENDBRANCH   4  13
TORSDOF 3
ENDMDL
