MODEL 1
REMARK VINA RESULT:       5.6      0.000      0.000
REMARK  2 active torsions:
REMARK  status: ('A' for Active; 'I' for Inactive)
REMARK    1  A    between atoms: C_3  and  C_1 
REMARK       I    between atoms: C_2  and  N_4 
REMARK    2  A    between atoms: N_4  and  C_9 
ROOT
ATOM      1  C   UNL d   1     -54.783-101.936 -36.918  0.00  0.00     0.065 A 
ATOM      2  C   UNL d   1     -54.770-101.319 -37.463  0.00  0.00     0.008 A 
ATOM      3  C   UNL d   1     -54.772-102.716 -37.180  0.00  0.00     0.008 A 
ATOM      4  C   UNL d   1     -54.735-102.266 -38.542  0.00  0.00     0.085 A 
ATOM      5  C   UNL d   1     -54.746-101.485 -38.279  0.00  0.00     0.019 A 
ATOM      6  C   UNL d   1     -54.748-102.880 -37.988  0.00  0.00     0.019 A 
ENDROOT
BRANCH   4   7
ATOM      7  N   UNL d   1     -54.711-102.433 -39.350  0.00  0.00    -0.208 NA
ATOM      8  C   UNL d   1     -55.393-102.705 -39.731  0.00  0.00     0.279 C 
ATOM      9  O   UNL d   1     -55.368-102.872 -40.538  0.00  0.00    -0.265 OA
ATOM     10  C   UNL d   1     -56.090-102.806 -39.306  0.00  0.00     0.068 C 
ENDBRANCH   4   7
BRANCH   1  11
ATOM     11  C   UNL d   1     -54.807-101.772 -36.105  0.00  0.00     0.211 C 
ATOM     12  O   UNL d   1     -54.739-100.995 -35.840  0.00  0.00    -0.644 OA
ATOM     13  O   UNL d   1     -54.898-102.384 -35.563  0.00  0.00    -0.644 OA
ENDBRANCH   1  11
TORSDOF 2
ENDMDL
