MODEL 1
REMARK VINA RESULT:      30.6      0.000      0.000
REMARK  4 active torsions:
REMARK  status: ('A' for Active; 'I' for Inactive)
REMARK    1  A    between atoms: C_2  and  S_1 
REMARK    2  A    between atoms: N_9  and  S_1 
REMARK    3  A    between atoms: C_18  and  N_9 
REMARK    4  A    between atoms: C_19  and  N_9 
ROOT
ATOM      1  C   UNL d   1      58.427  49.597  50.314  0.00  0.00     0.104 A 
ATOM      2  C   UNL d   1      60.865  49.659  51.598  0.00  0.00     0.225 A 
ATOM      3  S   UNL d   1      60.857  49.604  50.511  0.00  0.00    -0.046 SA
ATOM      4  C   UNL d   1      59.651  49.633  51.061  0.00  0.00     0.010 A 
ATOM      5  C   UNL d   1      60.075  49.596  50.328  0.00  0.00     0.033 A 
ATOM      6  C   UNL d   1      58.828  49.634  51.059  0.00  0.00     0.013 A 
ATOM      7  C   UNL d   1      60.058  49.669  51.768  0.00  0.00     0.046 A 
ATOM      8  C   UNL d   1      58.833  49.561  49.612  0.00  0.00     0.013 A 
ATOM      9  C   UNL d   1      59.658  49.561  49.624  0.00  0.00     0.007 A 
ATOM     10  O   UNL d   1      61.381  49.692  52.255  0.00  0.00    -0.279 OA
ATOM     11  C   UNL d   1      58.405  49.672  51.791  0.00  0.00     0.001 A 
ATOM     12  C   UNL d   1      59.634  49.706  52.501  0.00  0.00     0.004 A 
ATOM     13  C   UNL d   1      58.821  49.707  52.497  0.00  0.00     0.000 A 
ENDROOT
BRANCH   1  14
ATOM     14  S   UNL d   1      57.584  49.597  50.293  0.00  0.00     0.271 S 
ATOM     15  O   UNL d   1      57.637  49.708  49.474  0.00  0.00    -0.200 OA
ATOM     16  O   UNL d   1      57.555  49.482  51.140  0.00  0.00    -0.200 OA
BRANCH  14  17
ATOM     17  N   UNL d   1      56.734  49.595  50.282  0.00  0.00    -0.229 N 
BRANCH  17  18
ATOM     18  C   UNL d   1      56.369  49.673  51.024  0.00  0.00     0.092 C 
ATOM     19  C   UNL d   1      56.119  49.043  51.473  0.00  0.00     0.021 C 
ENDBRANCH  17  18
BRANCH  17  20
ATOM     20  C   UNL d   1      56.308  49.523  49.594  0.00  0.00     0.092 C 
ATOM     21  C   UNL d   1      56.270  48.790  49.207  0.00  0.00     0.021 C 
ENDBRANCH  17  20
ENDBRANCH  14  17
ENDBRANCH   1  14
TORSDOF 4
ENDMDL
