MODEL 1
REMARK VINA RESULT:      14.6      0.000      0.000
REMARK  2 active torsions:
REMARK  status: ('A' for Active; 'I' for Inactive)
REMARK    1  A    between atoms: C_6  and  C_1 
REMARK    2  A    between atoms: O_16  and  C_13 
ROOT
ATOM      1  C   UNL d   1      46.266 -18.981  43.749  0.00  0.00     0.148 A 
ATOM      2  N   UNL d   1      46.376 -19.139  42.960  0.00  0.00    -0.289 N 
ATOM      3  N   UNL d   1      46.322 -19.684  44.164  0.00  0.00    -0.225 NA
ATOM      4  C   UNL d   1      46.506 -19.954  42.857  0.00  0.00     0.085 A 
ATOM      5  C   UNL d   1      46.470 -20.289  43.622  0.00  0.00     0.118 A 
ATOM      6  C   UNL d   1      46.379 -18.628  42.258  0.00  0.00     0.082 A 
ATOM      7  C   UNL d   1      46.634 -20.274  42.120  0.00  0.00     0.019 A 
ATOM      8  C   UNL d   1      46.508 -18.948  41.522  0.00  0.00     0.019 A 
ATOM      9  C   UNL d   1      46.641 -19.802  41.436  0.00  0.00     0.003 A 
ENDROOT
BRANCH   1  10
ATOM     10  C   UNL d   1      46.122 -18.196  44.009  0.00  0.00     0.035 A 
ATOM     11  C   UNL d   1      45.629 -17.689  43.574  0.00  0.00     0.005 A 
ATOM     12  C   UNL d   1      45.494 -16.923  43.833  0.00  0.00     0.024 A 
ATOM     13  C   UNL d   1      45.845 -16.650  44.526  0.00  0.00     0.094 A 
ATOM     14  C   UNL d   1      46.328 -17.143  44.954  0.00  0.00     0.024 A 
ATOM     15  C   UNL d   1      46.473 -17.926  44.699  0.00  0.00     0.005 A 
BRANCH  13  16
ATOM     16  O   UNL d   1      45.720 -15.862  44.815  0.00  0.00    -0.328 OA
ATOM     17  C   UNL d   1      45.747 -15.217  44.303  0.00  0.00     0.181 C 
ENDBRANCH  13  16
ENDBRANCH   1  10
TORSDOF 2
ENDMDL
MODEL 2
REMARK VINA RESULT:      15.6      2.648      5.244
REMARK  2 active torsions:
REMARK  status: ('A' for Active; 'I' for Inactive)
REMARK    1  A    between atoms: C_6  and  C_1 
REMARK    2  A    between atoms: O_16  and  C_13 
ROOT
ATOM      1  C   UNL d   1      45.062 -14.209  44.152  0.00  0.00     0.148 A 
ATOM      2  N   UNL d   1      45.526 -13.586  44.389  0.00  0.00    -0.289 N 
ATOM      3  N   UNL d   1      44.379 -13.909  43.817  0.00  0.00    -0.225 NA
ATOM      4  C   UNL d   1      45.142 -12.871  44.207  0.00  0.00     0.085 A 
ATOM      5  C   UNL d   1      44.419 -13.085  43.846  0.00  0.00     0.118 A 
ATOM      6  C   UNL d   1      46.302 -13.552  44.775  0.00  0.00     0.082 A 
ATOM      7  C   UNL d   1      45.479 -12.152  44.382  0.00  0.00     0.019 A 
ATOM      8  C   UNL d   1      46.639 -12.833  44.950  0.00  0.00     0.019 A 
ATOM      9  C   UNL d   1      46.222 -12.098  44.751  0.00  0.00     0.003 A 
ENDROOT
BRANCH   1  10
ATOM     10  C   UNL d   1      45.319 -14.999  44.271  0.00  0.00     0.035 A 
ATOM     11  C   UNL d   1      45.939 -15.316  43.818  0.00  0.00     0.005 A 
ATOM     12  C   UNL d   1      46.185 -16.088  43.939  0.00  0.00     0.024 A 
ATOM     13  C   UNL d   1      45.820 -16.556  44.510  0.00  0.00     0.094 A 
ATOM     14  C   UNL d   1      45.213 -16.250  44.955  0.00  0.00     0.024 A 
ATOM     15  C   UNL d   1      44.954 -15.463  44.840  0.00  0.00     0.005 A 
BRANCH  13  16
ATOM     16  O   UNL d   1      46.056 -17.359  44.654  0.00  0.00    -0.328 OA
ATOM     17  C   UNL d   1      46.193 -17.876  44.027  0.00  0.00     0.181 C 
ENDBRANCH  13  16
ENDBRANCH   1  10
TORSDOF 2
ENDMDL
MODEL 3
REMARK VINA RESULT:      16.4      7.562      8.112
REMARK  2 active torsions:
REMARK  status: ('A' for Active; 'I' for Inactive)
REMARK    1  A    between atoms: C_6  and  C_1 
REMARK    2  A    between atoms: O_16  and  C_13 
ROOT
ATOM      1  C   UNL d   1      45.201 -15.454  36.657  0.00  0.00     0.148 A 
ATOM      2  N   UNL d   1      45.430 -14.789  37.064  0.00  0.00    -0.289 N 
ATOM      3  N   UNL d   1      45.873 -15.837  36.390  0.00  0.00    -0.225 NA
ATOM      4  C   UNL d   1      46.260 -14.735  37.063  0.00  0.00     0.085 A 
ATOM      5  C   UNL d   1      46.531 -15.401  36.635  0.00  0.00     0.118 A 
ATOM      6  C   UNL d   1      44.977 -14.170  37.470  0.00  0.00     0.082 A 
ATOM      7  C   UNL d   1      46.647 -14.122  37.430  0.00  0.00     0.019 A 
ATOM      8  C   UNL d   1      45.364 -13.556  37.837  0.00  0.00     0.019 A 
ATOM      9  C   UNL d   1      46.231 -13.519  37.824  0.00  0.00     0.003 A 
ENDROOT
BRANCH   1  10
ATOM     10  C   UNL d   1      44.388 -15.642  36.573  0.00  0.00     0.035 A 
ATOM     11  C   UNL d   1      44.146 -16.421  36.418  0.00  0.00     0.005 A 
ATOM     12  C   UNL d   1      43.351 -16.598  36.337  0.00  0.00     0.024 A 
ATOM     13  C   UNL d   1      42.783 -16.005  36.410  0.00  0.00     0.094 A 
ATOM     14  C   UNL d   1      43.015 -15.241  36.561  0.00  0.00     0.024 A 
ATOM     15  C   UNL d   1      43.825 -15.050  36.646  0.00  0.00     0.005 A 
BRANCH  13  16
ATOM     16  O   UNL d   1      41.953 -16.162  36.330  0.00  0.00    -0.328 OA
ATOM     17  C   UNL d   1      41.405 -15.547  36.349  0.00  0.00     0.181 C 
ENDBRANCH  13  16
ENDBRANCH   1  10
TORSDOF 2
ENDMDL
MODEL 4
REMARK VINA RESULT:      16.4      0.821      1.694
REMARK  2 active torsions:
REMARK  status: ('A' for Active; 'I' for Inactive)
REMARK    1  A    between atoms: C_6  and  C_1 
REMARK    2  A    between atoms: O_16  and  C_13 
ROOT
ATOM      1  C   UNL d   1      46.093 -18.060  43.335  0.00  0.00     0.148 A 
ATOM      2  N   UNL d   1      46.268 -18.742  43.740  0.00  0.00    -0.289 N 
ATOM      3  N   UNL d   1      46.093 -18.227  42.535  0.00  0.00    -0.225 NA
ATOM      4  C   UNL d   1      46.384 -19.362  43.199  0.00  0.00     0.085 A 
ATOM      5  C   UNL d   1      46.271 -19.028  42.441  0.00  0.00     0.118 A 
ATOM      6  C   UNL d   1      46.347 -18.912  44.587  0.00  0.00     0.082 A 
ATOM      7  C   UNL d   1      46.567 -20.115  43.447  0.00  0.00     0.019 A 
ATOM      8  C   UNL d   1      46.530 -19.665  44.836  0.00  0.00     0.019 A 
ATOM      9  C   UNL d   1      46.647 -20.298  44.255  0.00  0.00     0.003 A 
ENDROOT
BRANCH   1  10
ATOM     10  C   UNL d   1      45.949 -17.344  43.751  0.00  0.00     0.035 A 
ATOM     11  C   UNL d   1      45.686 -17.357  44.538  0.00  0.00     0.005 A 
ATOM     12  C   UNL d   1      45.548 -16.655  44.938  0.00  0.00     0.024 A 
ATOM     13  C   UNL d   1      45.669 -15.932  44.562  0.00  0.00     0.094 A 
ATOM     14  C   UNL d   1      45.926 -15.915  43.793  0.00  0.00     0.024 A 
ATOM     15  C   UNL d   1      46.070 -16.626  43.375  0.00  0.00     0.005 A 
BRANCH  13  16
ATOM     16  O   UNL d   1      45.533 -15.192  44.955  0.00  0.00    -0.328 OA
ATOM     17  C   UNL d   1      45.163 -14.569  44.561  0.00  0.00     0.181 C 
ENDBRANCH  13  16
ENDBRANCH   1  10
TORSDOF 2
ENDMDL
