MODEL 1
REMARK VINA RESULT:      43.1      0.000      0.000
REMARK  4 active torsions:
REMARK  status: ('A' for Active; 'I' for Inactive)
REMARK    1  A    between atoms: C_2  and  C_1 
REMARK    2  A    between atoms: N_8  and  C_3 
REMARK    3  A    between atoms: C_15  and  N_8 
REMARK    4  A    between atoms: O_18  and  C_16 
ROOT
ATOM      1  C   UNL d   1      46.151 -17.516  42.850  0.00  0.00     0.077 A 
ATOM      2  C   UNL d   1      46.317 -17.880  43.571  0.00  0.00     0.185 A 
ATOM      3  C   UNL d   1      45.876 -16.742  42.833  0.00  0.00     0.009 A 
ATOM      4  O   UNL d   1      46.208 -17.472  44.275  0.00  0.00    -0.289 OA
ATOM      5  C   UNL d   1      45.766 -16.327  43.539  0.00  0.00     0.025 A 
ATOM      6  C   UNL d   1      45.932 -16.692  44.261  0.00  0.00     0.102 A 
ATOM      7  C   UNL d   1      45.497 -15.573  43.511  0.00  0.00     0.026 A 
ATOM      8  C   UNL d   1      45.829 -16.302  44.954  0.00  0.00     0.027 A 
ATOM      9  C   UNL d   1      45.385 -15.154  44.220  0.00  0.00     0.094 A 
ATOM     10  C   UNL d   1      45.551 -15.519  44.942  0.00  0.00     0.026 A 
ENDROOT
BRANCH   1  11
ATOM     11  C   UNL d   1      46.259 -17.923  42.154  0.00  0.00     0.166 A 
ATOM     12  N   UNL d   1      46.367 -17.587  41.443  0.00  0.00    -0.225 NA
ATOM     13  C   UNL d   1      46.455 -18.149  40.888  0.00  0.00     0.101 A 
ATOM     14  C   UNL d   1      46.581 -18.146  40.066  0.00  0.00     0.021 A 
ATOM     15  C   UNL d   1      46.396 -18.879  41.289  0.00  0.00     0.101 A 
ATOM     16  C   UNL d   1      46.646 -18.884  39.665  0.00  0.00     0.002 A 
ATOM     17  C   UNL d   1      46.586 -19.607  40.077  0.00  0.00     0.002 A 
ATOM     18  C   UNL d   1      46.467 -19.623  40.852  0.00  0.00     0.021 A 
ATOM     19  N   UNL d   1      46.272 -18.715  42.095  0.00  0.00    -0.225 NA
ENDBRANCH   1  11
BRANCH   2  20
ATOM     20  N   UNL d   1      46.593 -18.659  43.586  0.00  0.00    -0.222 NA
BRANCH  20  21
ATOM     21  C   UNL d   1      46.214 -19.216  44.041  0.00  0.00     0.084 A 
ATOM     22  C   UNL d   1      45.401 -19.255  44.023  0.00  0.00     0.019 A 
ATOM     23  C   UNL d   1      45.024 -19.809  44.475  0.00  0.00     0.002 A 
ATOM     24  C   UNL d   1      45.437 -20.329  44.949  0.00  0.00     0.000 A 
ATOM     25  C   UNL d   1      46.251 -20.277  44.955  0.00  0.00     0.002 A 
ATOM     26  C   UNL d   1      46.646 -19.716  44.497  0.00  0.00     0.019 A 
ENDBRANCH  20  21
ENDBRANCH   2  20
BRANCH   9  27
ATOM     27  O   UNL d   1      45.117 -14.397  44.201  0.00  0.00    -0.328 OA
ATOM     28  C   UNL d   1      45.531 -13.817  44.542  0.00  0.00     0.181 C 
ENDBRANCH   9  27
TORSDOF 4
ENDMDL
