MODEL 1
REMARK VINA RESULT:      11.2      0.000      0.000
REMARK  5 active torsions:
REMARK  status: ('A' for Active; 'I' for Inactive)
REMARK    1  A    between atoms: C_12  and  C_3 
REMARK    2  A    between atoms: C_13  and  N_5 
REMARK    3  A    between atoms: C_11  and  C_6 
REMARK    4  A    between atoms: O_24  and  C_12 
REMARK    5  A    between atoms: C_14  and  C_13 
ROOT
ATOM      1  C   UNL d   1     -41.603-121.662 -52.846  0.00  0.00     0.080 A 
ATOM      2  C   UNL d   1     -41.489-122.382 -52.438  0.00  0.00     0.267 A 
ATOM      3  C   UNL d   1     -41.872-120.961 -54.056  0.00  0.00     0.106 A 
ATOM      4  C   UNL d   1     -41.556-120.952 -52.436  0.00  0.00     0.108 A 
ATOM      5  N   UNL d   1     -41.330-122.378 -51.623  0.00  0.00    -0.271 N 
ATOM      6  C   UNL d   1     -41.761-121.666 -53.656  0.00  0.00     0.015 A 
ATOM      7  C   UNL d   1     -41.825-120.242 -53.646  0.00  0.00     0.208 A 
ATOM      8  O   UNL d   1     -41.667-120.237 -52.836  0.00  0.00    -0.288 OA
ATOM      9  C   UNL d   1     -41.398-120.938 -51.626  0.00  0.00     0.043 A 
ATOM     10  C   UNL d   1     -41.285-121.646 -51.216  0.00  0.00     0.069 A 
ATOM     11  O   UNL d   1     -41.536-123.106 -52.849  0.00  0.00    -0.267 OA
ATOM     12  N   UNL d   1     -41.938-119.529 -54.050  0.00  0.00    -0.121 N 
ATOM     13  C   UNL d   1     -41.125-121.637 -50.396  0.00  0.00     0.019 C 
ENDROOT
BRANCH   6  14
ATOM     14  C   UNL d   1     -41.806-122.383 -54.061  0.00  0.00     0.001 A 
ATOM     15  C   UNL d   1     -42.539-122.658 -54.327  0.00  0.00     0.011 A 
ATOM     16  C   UNL d   1     -42.589-123.373 -54.731  0.00  0.00     0.058 A 
ATOM     17 CL   UNL d   1     -43.326-123.643 -54.995  0.00  0.00    -0.082 Cl
ATOM     18  C   UNL d   1     -41.901-123.817 -54.871  0.00  0.00     0.011 A 
ATOM     19  C   UNL d   1     -41.169-123.543 -54.606  0.00  0.00     0.001 A 
ATOM     20  C   UNL d   1     -41.123-122.825 -54.200  0.00  0.00     0.000 A 
ENDBRANCH   6  14
BRANCH   3  21
ATOM     21  C   UNL d   1     -42.030-120.965 -54.865  0.00  0.00     0.299 C 
ATOM     22  O   UNL d   1     -42.795-121.084 -55.138  0.00  0.00    -0.259 OA
BRANCH  21  23
ATOM     23  O   UNL d   1     -41.417-120.849 -55.407  0.00  0.00    -0.296 OA
ATOM     24  C   UNL d   1     -41.574-120.819 -56.222  0.00  0.00     0.185 C 
ENDBRANCH  21  23
ENDBRANCH   3  21
BRANCH   5  25
ATOM     25  C   UNL d   1     -41.218-123.091 -51.219  0.00  0.00     0.108 C 
BRANCH  25  26
ATOM     26  C   UNL d   1     -41.748-123.319 -50.629  0.00  0.00     0.118 A 
ATOM     27  O   UNL d   1     -42.479-123.688 -50.746  0.00  0.00    -0.304 OA
ATOM     28  C   UNL d   1     -42.826-123.817 -50.009  0.00  0.00     0.123 A 
ATOM     29  C   UNL d   1     -42.310-123.530 -49.434  0.00  0.00     0.029 A 
ATOM     30  C   UNL d   1     -41.639-123.220 -49.814  0.00  0.00     0.028 A 
ENDBRANCH  25  26
ENDBRANCH   5  25
TORSDOF 5
ENDMDL
MODEL 2
REMARK VINA RESULT:      12.2      1.838      4.739
REMARK  5 active torsions:
REMARK  status: ('A' for Active; 'I' for Inactive)
REMARK    1  A    between atoms: C_12  and  C_3 
REMARK    2  A    between atoms: C_13  and  N_5 
REMARK    3  A    between atoms: C_11  and  C_6 
REMARK    4  A    between atoms: O_24  and  C_12 
REMARK    5  A    between atoms: C_14  and  C_13 
ROOT
ATOM      1  C   UNL d   1     -42.170-123.129 -51.125  0.00  0.00     0.080 A 
ATOM      2  C   UNL d   1     -42.521-122.898 -51.846  0.00  0.00     0.267 A 
ATOM      3  C   UNL d   1     -42.165-123.131 -49.701  0.00  0.00     0.106 A 
ATOM      4  C   UNL d   1     -41.484-123.581 -51.135  0.00  0.00     0.108 A 
ATOM      5  N   UNL d   1     -42.179-123.125 -52.568  0.00  0.00    -0.271 N 
ATOM      6  C   UNL d   1     -42.510-122.905 -50.407  0.00  0.00     0.015 A 
ATOM      7  C   UNL d   1     -41.473-123.587 -49.706  0.00  0.00     0.208 A 
ATOM      8  O   UNL d   1     -41.132-123.812 -50.423  0.00  0.00    -0.288 OA
ATOM      9  C   UNL d   1     -41.136-123.810 -51.847  0.00  0.00     0.043 A 
ATOM     10  C   UNL d   1     -41.478-123.585 -52.564  0.00  0.00     0.069 A 
ATOM     11  O   UNL d   1     -43.218-122.440 -51.842  0.00  0.00    -0.267 OA
ATOM     12  N   UNL d   1     -41.124-123.816 -48.992  0.00  0.00    -0.121 N 
ATOM     13  C   UNL d   1     -41.129-123.816 -53.288  0.00  0.00     0.019 C 
ENDROOT
BRANCH   6  14
ATOM     14  C   UNL d   1     -43.199-122.451 -50.405  0.00  0.00     0.001 A 
ATOM     15  C   UNL d   1     -43.935-122.824 -50.371  0.00  0.00     0.011 A 
ATOM     16  C   UNL d   1     -44.625-122.376 -50.369  0.00  0.00     0.058 A 
ATOM     17 CL   UNL d   1     -45.360-122.756 -50.334  0.00  0.00    -0.082 Cl
ATOM     18  C   UNL d   1     -44.579-121.547 -50.401  0.00  0.00     0.011 A 
ATOM     19  C   UNL d   1     -43.844-121.174 -50.436  0.00  0.00     0.001 A 
ATOM     20  C   UNL d   1     -43.153-121.627 -50.438  0.00  0.00     0.000 A 
ENDBRANCH   6  14
BRANCH   3  21
ATOM     21  C   UNL d   1     -42.506-122.907 -48.985  0.00  0.00     0.299 C 
ATOM     22  O   UNL d   1     -42.534-122.114 -48.768  0.00  0.00    -0.259 OA
BRANCH  21  23
ATOM     23  O   UNL d   1     -42.821-123.479 -48.478  0.00  0.00    -0.296 OA
ATOM     24  C   UNL d   1     -42.662-123.455 -47.663  0.00  0.00     0.185 C 
ENDBRANCH  21  23
ENDBRANCH   3  21
BRANCH   5  25
ATOM     25  C   UNL d   1     -42.527-122.896 -53.283  0.00  0.00     0.108 C 
BRANCH  25  26
ATOM     26  C   UNL d   1     -42.118-122.404 -53.803  0.00  0.00     0.118 A 
ATOM     27  O   UNL d   1     -41.441-121.961 -53.626  0.00  0.00    -0.304 OA
ATOM     28  C   UNL d   1     -41.215-121.550 -54.304  0.00  0.00     0.123 A 
ATOM     29  C   UNL d   1     -41.751-121.737 -54.903  0.00  0.00     0.029 A 
ATOM     30  C   UNL d   1     -42.313-122.266 -54.596  0.00  0.00     0.028 A 
ENDBRANCH  25  26
ENDBRANCH   5  25
TORSDOF 5
ENDMDL
