MODEL 1
REMARK VINA RESULT:      -2.9      0.000      0.000
REMARK  3 active torsions:
REMARK  status: ('A' for Active; 'I' for Inactive)
REMARK    1  A    between atoms: N_6  and  C_1 
REMARK    2  A    between atoms: C_14  and  N_4 
REMARK    3  A    between atoms: C_7  and  N_6 
ROOT
ATOM      1  C   UNL d   1      32.336  17.357 -23.786  0.00  0.00     0.157 A 
ATOM      2  C   UNL d   1      31.517  17.459 -23.771  0.00  0.00     0.298 A 
ATOM      3  N   UNL d   1      31.812  16.350 -24.375  0.00  0.00    -0.238 N 
ATOM      4  N   UNL d   1      31.183  16.844 -24.131  0.00  0.00    -0.209 N 
ATOM      5  C   UNL d   1      32.483  16.716 -24.136  0.00  0.00     0.104 A 
ATOM      6  O   UNL d   1      31.112  18.105 -23.431  0.00  0.00    -0.263 OA
ATOM      7  C   UNL d   1      31.787  15.619 -24.784  0.00  0.00     0.120 C 
ATOM      8  C   UNL d   1      33.216  16.423 -24.262  0.00  0.00     0.022 C 
ENDROOT
BRANCH   1   9
ATOM      9  N   UNL d   1      32.909  17.858 -23.476  0.00  0.00    -0.239 NA
BRANCH   9  10
ATOM     10  C   UNL d   1      32.989  18.604 -23.771  0.00  0.00     0.082 A 
ATOM     11  C   UNL d   1      33.076  19.274 -23.262  0.00  0.00     0.021 A 
ATOM     12  C   UNL d   1      33.157  20.034 -23.554  0.00  0.00     0.040 A 
ATOM     13  C   UNL d   1      33.078  19.150 -22.452  0.00  0.00     0.002 A 
ATOM     14  C   UNL d   1      33.241  20.678 -23.049  0.00  0.00     0.003 A 
ATOM     15  C   UNL d   1      33.154  20.157 -24.363  0.00  0.00     0.196 A 
ATOM     16  C   UNL d   1      33.241  20.535 -22.235  0.00  0.00     0.000 A 
ATOM     17  C   UNL d   1      33.161  19.784 -21.936  0.00  0.00     0.000 A 
ATOM     18  C   UNL d   1      33.071  19.520 -24.880  0.00  0.00     0.044 A 
ATOM     19  O   UNL d   1      33.240  20.955 -24.662  0.00  0.00    -0.287 OA
ATOM     20  C   UNL d   1      32.986  18.726 -24.569  0.00  0.00     0.022 A 
ENDBRANCH   9  10
ENDBRANCH   1   9
BRANCH   4  21
ATOM     21  C   UNL d   1      30.379  16.725 -24.239  0.00  0.00     0.085 A 
ATOM     22  C   UNL d   1      29.936  16.328 -23.644  0.00  0.00     0.019 A 
ATOM     23  C   UNL d   1      29.121  16.202 -23.742  0.00  0.00     0.002 A 
ATOM     24  C   UNL d   1      28.726  16.464 -24.426  0.00  0.00     0.000 A 
ATOM     25  C   UNL d   1      29.156  16.860 -25.023  0.00  0.00     0.002 A 
ATOM     26  C   UNL d   1      29.973  16.982 -24.917  0.00  0.00     0.019 A 
ENDBRANCH   4  21
TORSDOF 3
ENDMDL
MODEL 2
REMARK VINA RESULT:      -2.1      1.295      4.434
REMARK  3 active torsions:
REMARK  status: ('A' for Active; 'I' for Inactive)
REMARK    1  A    between atoms: N_6  and  C_1 
REMARK    2  A    between atoms: C_14  and  N_4 
REMARK    3  A    between atoms: C_7  and  N_6 
ROOT
ATOM      1  C   UNL d   1      32.957  18.950 -23.916  0.00  0.00     0.157 A 
ATOM      2  C   UNL d   1      32.975  19.128 -23.110  0.00  0.00     0.298 A 
ATOM      3  N   UNL d   1      33.128  20.213 -23.805  0.00  0.00    -0.238 N 
ATOM      4  N   UNL d   1      33.080  19.904 -23.030  0.00  0.00    -0.209 N 
ATOM      5  C   UNL d   1      33.046  19.585 -24.296  0.00  0.00     0.104 A 
ATOM      6  O   UNL d   1      32.896  18.579 -22.487  0.00  0.00    -0.263 OA
ATOM      7  C   UNL d   1      33.237  21.004 -24.058  0.00  0.00     0.120 C 
ATOM      8  C   UNL d   1      33.059  19.641 -25.093  0.00  0.00     0.022 C 
ENDROOT
BRANCH   1   9
ATOM      9  N   UNL d   1      32.859  18.211 -24.263  0.00  0.00    -0.239 NA
BRANCH   9  10
ATOM     10  C   UNL d   1      32.118  17.907 -24.354  0.00  0.00     0.082 A 
ATOM     11  C   UNL d   1      31.990  17.077 -24.445  0.00  0.00     0.021 A 
ATOM     12  C   UNL d   1      31.240  16.760 -24.537  0.00  0.00     0.040 A 
ATOM     13  C   UNL d   1      32.640  16.578 -24.439  0.00  0.00     0.002 A 
ATOM     14  C   UNL d   1      31.127  15.950 -24.625  0.00  0.00     0.003 A 
ATOM     15  C   UNL d   1      30.590  17.259 -24.543  0.00  0.00     0.196 A 
ATOM     16  C   UNL d   1      31.794  15.463 -24.617  0.00  0.00     0.000 A 
ATOM     17  C   UNL d   1      32.541  15.767 -24.526  0.00  0.00     0.000 A 
ATOM     18  C   UNL d   1      30.691  18.073 -24.456  0.00  0.00     0.044 A 
ATOM     19  O   UNL d   1      29.809  16.922 -24.640  0.00  0.00    -0.287 OA
ATOM     20  C   UNL d   1      31.477  18.399 -24.359  0.00  0.00     0.022 A 
ENDBRANCH   9  10
ENDBRANCH   1   9
BRANCH   4  21
ATOM     21  C   UNL d   1      33.131  20.314 -22.321  0.00  0.00     0.085 A 
ATOM     22  C   UNL d   1      33.142  21.156 -22.330  0.00  0.00     0.019 A 
ATOM     23  C   UNL d   1      33.193  21.581 -21.618  0.00  0.00     0.002 A 
ATOM     24  C   UNL d   1      33.234  21.189 -20.886  0.00  0.00     0.000 A 
ATOM     25  C   UNL d   1      33.224  20.354 -20.866  0.00  0.00     0.002 A 
ATOM     26  C   UNL d   1      33.173  19.934 -21.583  0.00  0.00     0.019 A 
ENDBRANCH   4  21
TORSDOF 3
ENDMDL
MODEL 3
REMARK VINA RESULT:      -1.2      1.311      4.516
REMARK  3 active torsions:
REMARK  status: ('A' for Active; 'I' for Inactive)
REMARK    1  A    between atoms: N_6  and  C_1 
REMARK    2  A    between atoms: C_14  and  N_4 
REMARK    3  A    between atoms: C_7  and  N_6 
ROOT
ATOM      1  C   UNL d   1      33.204  19.062 -23.523  0.00  0.00     0.157 A 
ATOM      2  C   UNL d   1      33.219  19.798 -23.897  0.00  0.00     0.298 A 
ATOM      3  N   UNL d   1      33.189  19.957 -22.610  0.00  0.00    -0.238 N 
ATOM      4  N   UNL d   1      33.209  20.357 -23.344  0.00  0.00    -0.209 N 
ATOM      5  C   UNL d   1      33.187  19.176 -22.787  0.00  0.00     0.104 A 
ATOM      6  O   UNL d   1      33.240  19.927 -24.721  0.00  0.00    -0.263 OA
ATOM      7  C   UNL d   1      33.172  20.269 -21.833  0.00  0.00     0.120 C 
ATOM      8  C   UNL d   1      33.169  18.597 -22.237  0.00  0.00     0.022 C 
ENDROOT
BRANCH   1   9
ATOM      9  N   UNL d   1      33.207  18.320 -23.878  0.00  0.00    -0.239 NA
BRANCH   9  10
ATOM     10  C   UNL d   1      32.510  17.974 -24.088  0.00  0.00     0.082 A 
ATOM     11  C   UNL d   1      32.485  17.196 -24.417  0.00  0.00     0.021 A 
ATOM     12  C   UNL d   1      31.780  16.838 -24.632  0.00  0.00     0.040 A 
ATOM     13  C   UNL d   1      33.190  16.792 -24.521  0.00  0.00     0.002 A 
ATOM     14  C   UNL d   1      31.768  16.080 -24.951  0.00  0.00     0.003 A 
ATOM     15  C   UNL d   1      31.075  17.242 -24.528  0.00  0.00     0.196 A 
ATOM     16  C   UNL d   1      32.488  15.688 -25.049  0.00  0.00     0.000 A 
ATOM     17  C   UNL d   1      33.192  16.035 -24.838  0.00  0.00     0.000 A 
ATOM     18  C   UNL d   1      31.075  18.002 -24.209  0.00  0.00     0.044 A 
ATOM     19  O   UNL d   1      30.342  16.862 -24.755  0.00  0.00    -0.287 OA
ATOM     20  C   UNL d   1      31.815  18.372 -23.985  0.00  0.00     0.022 A 
ENDBRANCH   9  10
ENDBRANCH   1   9
BRANCH   4  21
ATOM     21  C   UNL d   1      33.219  21.167 -23.475  0.00  0.00     0.085 A 
ATOM     22  C   UNL d   1      33.231  21.692 -22.818  0.00  0.00     0.019 A 
ATOM     23  C   UNL d   1      33.241  22.514 -22.939  0.00  0.00     0.002 A 
ATOM     24  C   UNL d   1      33.238  22.835 -23.707  0.00  0.00     0.000 A 
ATOM     25  C   UNL d   1      33.225  22.322 -24.366  0.00  0.00     0.002 A 
ATOM     26  C   UNL d   1      33.216  21.500 -24.237  0.00  0.00     0.019 A 
ENDBRANCH   4  21
TORSDOF 3
ENDMDL
MODEL 4
REMARK VINA RESULT:      -0.8      1.502      2.588
REMARK  3 active torsions:
REMARK  status: ('A' for Active; 'I' for Inactive)
REMARK    1  A    between atoms: N_6  and  C_1 
REMARK    2  A    between atoms: C_14  and  N_4 
REMARK    3  A    between atoms: C_7  and  N_6 
ROOT
ATOM      1  C   UNL d   1      32.820  19.103 -23.687  0.00  0.00     0.157 A 
ATOM      2  C   UNL d   1      32.797  18.340 -23.373  0.00  0.00     0.298 A 
ATOM      3  N   UNL d   1      32.047  18.405 -24.428  0.00  0.00    -0.238 N 
ATOM      4  N   UNL d   1      32.324  17.900 -23.822  0.00  0.00    -0.209 N 
ATOM      5  C   UNL d   1      32.383  19.118 -24.290  0.00  0.00     0.104 A 
ATOM      6  O   UNL d   1      33.207  18.079 -22.695  0.00  0.00    -0.263 OA
ATOM      7  C   UNL d   1      31.527  18.238 -25.064  0.00  0.00     0.120 C 
ATOM      8  C   UNL d   1      32.261  19.762 -24.748  0.00  0.00     0.022 C 
ENDROOT
BRANCH   1   9
ATOM      9  N   UNL d   1      33.241  19.749 -23.402  0.00  0.00    -0.239 NA
BRANCH   9  10
ATOM     10  C   UNL d   1      33.022  20.095 -22.708  0.00  0.00     0.082 A 
ATOM     11  C   UNL d   1      33.016  20.935 -22.616  0.00  0.00     0.021 A 
ATOM     12  C   UNL d   1      32.795  21.293 -21.913  0.00  0.00     0.040 A 
ATOM     13  C   UNL d   1      33.239  21.400 -23.252  0.00  0.00     0.002 A 
ATOM     14  C   UNL d   1      32.792  22.112 -21.835  0.00  0.00     0.003 A 
ATOM     15  C   UNL d   1      32.572  20.829 -21.276  0.00  0.00     0.196 A 
ATOM     16  C   UNL d   1      33.020  22.565 -22.487  0.00  0.00     0.000 A 
ATOM     17  C   UNL d   1      33.241  22.219 -23.188  0.00  0.00     0.000 A 
ATOM     18  C   UNL d   1      32.570  20.007 -21.343  0.00  0.00     0.044 A 
ATOM     19  O   UNL d   1      32.342  21.210 -20.545  0.00  0.00    -0.287 OA
ATOM     20  C   UNL d   1      32.802  19.637 -22.080  0.00  0.00     0.022 A 
ENDBRANCH   9  10
ENDBRANCH   1   9
BRANCH   4  21
ATOM     21  C   UNL d   1      32.146  17.108 -23.706  0.00  0.00     0.085 A 
ATOM     22  C   UNL d   1      32.711  16.522 -23.921  0.00  0.00     0.019 A 
ATOM     23  C   UNL d   1      32.542  15.717 -23.808  0.00  0.00     0.002 A 
ATOM     24  C   UNL d   1      31.817  15.472 -23.484  0.00  0.00     0.000 A 
ATOM     25  C   UNL d   1      31.249  16.045 -23.268  0.00  0.00     0.002 A 
ATOM     26  C   UNL d   1      31.425  16.850 -23.384  0.00  0.00     0.019 A 
ENDBRANCH   4  21
TORSDOF 3
ENDMDL
