MODEL 1
REMARK VINA RESULT:      76.5      0.000      0.000
REMARK  4 active torsions:
REMARK  status: ('A' for Active; 'I' for Inactive)
REMARK    1  A    between atoms: N_7  and  C_1 
REMARK    2  A    between atoms: S_3  and  N_7 
REMARK    3  A    between atoms: N_8  and  S_3 
REMARK    4  A    between atoms: C_12  and  N_5 
ROOT
ATOM      1  C   UNL d   1      59.418  49.594  50.790  0.00  0.00     0.170 A 
ATOM      2  C   UNL d   1      59.083  49.618  51.488  0.00  0.00     0.299 A 
ATOM      3  N   UNL d   1      58.213  49.596  50.576  0.00  0.00    -0.238 N 
ATOM      4  N   UNL d   1      58.272  49.620  51.339  0.00  0.00    -0.209 N 
ATOM      5  C   UNL d   1      58.978  49.578  50.203  0.00  0.00     0.105 A 
ATOM      6  O   UNL d   1      59.457  49.640  52.235  0.00  0.00    -0.263 OA
ATOM      7  C   UNL d   1      57.480  49.588  50.159  0.00  0.00     0.120 C 
ATOM      8  C   UNL d   1      58.801  49.558  49.508  0.00  0.00     0.022 C 
ENDROOT
BRANCH   1   9
ATOM      9  N   UNL d   1      60.241  49.584  50.652  0.00  0.00    -0.137 NA
BRANCH   9  10
ATOM     10  S   UNL d   1      60.641  48.861  50.485  0.00  0.00     0.351 S 
ATOM     11  O   UNL d   1      60.229  48.436  51.086  0.00  0.00    -0.180 OA
ATOM     12  O   UNL d   1      61.048  49.286  49.890  0.00  0.00    -0.180 OA
BRANCH  10  13
ATOM     13  N   UNL d   1      61.086  48.200  50.248  0.00  0.00    -0.215 N 
ATOM     14  C   UNL d   1      61.808  48.016  50.641  0.00  0.00     0.093 A 
ATOM     15  C   UNL d   1      62.249  47.353  50.401  0.00  0.00     0.020 A 
ATOM     16  C   UNL d   1      61.980  46.868  49.772  0.00  0.00     0.003 A 
ATOM     17  C   UNL d   1      61.264  47.051  49.382  0.00  0.00     0.020 A 
ATOM     18  C   UNL d   1      60.811  47.722  49.621  0.00  0.00     0.093 A 
ENDBRANCH  10  13
ENDBRANCH   9  10
ENDBRANCH   1   9
BRANCH   4  19
ATOM     19  C   UNL d   1      57.593  49.641  51.848  0.00  0.00     0.085 A 
ATOM     20  C   UNL d   1      56.847  49.622  51.498  0.00  0.00     0.019 A 
ATOM     21  C   UNL d   1      56.179  49.642  51.987  0.00  0.00     0.002 A 
ATOM     22  C   UNL d   1      56.281  49.680  52.800  0.00  0.00     0.000 A 
ATOM     23  C   UNL d   1      57.018  49.696  53.096  0.00  0.00     0.002 A 
ATOM     24  C   UNL d   1      57.677  49.675  52.603  0.00  0.00     0.019 A 
ENDBRANCH   4  19
TORSDOF 4
ENDMDL
