MODEL 1
REMARK VINA RESULT:       3.0      0.000      0.000
REMARK  8 active torsions:
REMARK  status: ('A' for Active; 'I' for Inactive)
REMARK    1  A    between atoms: O_8  and  C_1 
REMARK    2  A    between atoms: C_10  and  C_5 
REMARK    3  A    between atoms: C_12  and  O_8 
REMARK    4  A    between atoms: N_9  and  C_10 
REMARK    5  A    between atoms: C_25  and  N_14 
REMARK    6  A    between atoms: O_24  and  C_17 
REMARK    7  A    between atoms: C_30  and  O_24 
REMARK    8  A    between atoms: C_29  and  C_25 
ROOT
ATOM      1  C   UNL d   1     -41.192-122.384 -53.489  0.00  0.00     0.161 A 
ATOM      2  C   UNL d   1     -41.161-122.526 -51.835  0.00  0.00     0.108 A 
ATOM      3  C   UNL d   1     -41.185-121.771 -52.185  0.00  0.00     0.064 A 
ATOM      4  C   UNL d   1     -41.200-121.703 -53.009  0.00  0.00     0.222 A 
ATOM      5  C   UNL d   1     -41.146-122.594 -51.010  0.00  0.00     0.079 A 
ATOM      6  O   UNL d   1     -41.153-123.214 -52.298  0.00  0.00    -0.305 OA
ATOM      7  C   UNL d   1     -41.169-123.138 -53.135  0.00  0.00     0.126 A 
ATOM      8  C   UNL d   1     -41.193-121.102 -51.712  0.00  0.00     0.009 A 
ATOM      9  C   UNL d   1     -41.154-121.918 -50.542  0.00  0.00     0.199 A 
ATOM     10  O   UNL d   1     -41.224-120.956 -53.360  0.00  0.00    -0.284 OA
ATOM     11  C   UNL d   1     -41.177-121.172 -50.893  0.00  0.00     0.042 A 
ATOM     12  O   UNL d   1     -41.139-121.988 -49.721  0.00  0.00    -0.286 OA
ATOM     13  C   UNL d   1     -41.161-123.815 -53.604  0.00  0.00     0.029 C 
ENDROOT
BRANCH   1  14
ATOM     14  O   UNL d   1     -41.208-122.311 -54.312  0.00  0.00    -0.300 OA
BRANCH  14  15
ATOM     15  C   UNL d   1     -41.909-122.452 -54.719  0.00  0.00     0.123 A 
ATOM     16  C   UNL d   1     -42.081-122.022 -55.401  0.00  0.00     0.123 A 
ATOM     17  C   UNL d   1     -42.777-122.159 -55.811  0.00  0.00     0.027 A 
ATOM     18  C   UNL d   1     -43.310-122.727 -55.544  0.00  0.00     0.002 A 
ATOM     19  C   UNL d   1     -43.139-123.164 -54.855  0.00  0.00     0.002 A 
ATOM     20  C   UNL d   1     -42.438-123.023 -54.446  0.00  0.00     0.027 A 
BRANCH  16  21
ATOM     21  O   UNL d   1     -41.549-121.452 -55.671  0.00  0.00    -0.303 OA
BRANCH  21  22
ATOM     22  C   UNL d   1     -41.723-121.020 -56.349  0.00  0.00     0.123 C 
ATOM     23  C   UNL d   1     -41.293-121.138 -57.041  0.00  0.00     0.029 C 
ENDBRANCH  21  22
ENDBRANCH  16  21
ENDBRANCH  14  15
ENDBRANCH   1  14
BRANCH   5  24
ATOM     24  C   UNL d   1     -41.123-123.337 -50.652  0.00  0.00     0.086 C 
BRANCH  24  25
ATOM     25  N   UNL d   1     -41.535-123.458 -49.942  0.00  0.00    -0.300 N 
ATOM     26  C   UNL d   1     -41.125-123.511 -49.226  0.00  0.00     0.100 A 
ATOM     27  C   UNL d   1     -41.537-123.631 -48.527  0.00  0.00     0.100 A 
ATOM     28  N   UNL d   1     -42.360-123.698 -48.533  0.00  0.00    -0.297 N 
ATOM     29  C   UNL d   1     -42.770-123.644 -49.249  0.00  0.00     0.100 A 
ATOM     30  C   UNL d   1     -42.357-123.524 -49.960  0.00  0.00     0.100 A 
BRANCH  28  31
ATOM     31  C   UNL d   1     -42.773-123.817 -47.831  0.00  0.00     0.126 C 
BRANCH  31  32
ATOM     32  C   UNL d   1     -43.422-123.342 -47.651  0.00  0.00     0.253 C 
ATOM     33  O   UNL d   1     -44.010-123.626 -47.150  0.00  0.00    -0.281 OA
ENDBRANCH  31  32
ENDBRANCH  28  31
ENDBRANCH  24  25
ENDBRANCH   5  24
TORSDOF 8
ENDMDL
MODEL 2
REMARK VINA RESULT:       3.3      1.705      5.922
REMARK  8 active torsions:
REMARK  status: ('A' for Active; 'I' for Inactive)
REMARK    1  A    between atoms: O_8  and  C_1 
REMARK    2  A    between atoms: C_10  and  C_5 
REMARK    3  A    between atoms: C_12  and  O_8 
REMARK    4  A    between atoms: N_9  and  C_10 
REMARK    5  A    between atoms: C_25  and  N_14 
REMARK    6  A    between atoms: O_24  and  C_17 
REMARK    7  A    between atoms: C_30  and  O_24 
REMARK    8  A    between atoms: C_29  and  C_25 
ROOT
ATOM      1  C   UNL d   1     -41.758-122.470 -50.378  0.00  0.00     0.161 A 
ATOM      2  C   UNL d   1     -41.664-122.421 -52.035  0.00  0.00     0.108 A 
ATOM      3  C   UNL d   1     -41.438-123.112 -51.628  0.00  0.00     0.064 A 
ATOM      4  C   UNL d   1     -41.486-123.133 -50.803  0.00  0.00     0.222 A 
ATOM      5  C   UNL d   1     -41.616-122.399 -52.861  0.00  0.00     0.079 A 
ATOM      6  O   UNL d   1     -41.937-121.753 -51.627  0.00  0.00    -0.305 OA
ATOM      7  C   UNL d   1     -41.984-121.781 -50.789  0.00  0.00     0.126 A 
ATOM      8  C   UNL d   1     -41.170-123.763 -52.046  0.00  0.00     0.009 A 
ATOM      9  C   UNL d   1     -41.346-123.057 -53.275  0.00  0.00     0.199 A 
ATOM     10  O   UNL d   1     -41.263-123.816 -50.395  0.00  0.00    -0.284 OA
ATOM     11  C   UNL d   1     -41.123-123.739 -52.867  0.00  0.00     0.042 A 
ATOM     12  O   UNL d   1     -41.299-123.033 -54.097  0.00  0.00    -0.286 OA
ATOM     13  C   UNL d   1     -42.254-121.123 -50.374  0.00  0.00     0.029 C 
ENDROOT
BRANCH   1  14
ATOM     14  O   UNL d   1     -41.804-122.497 -49.553  0.00  0.00    -0.300 OA
BRANCH  14  15
ATOM     15  C   UNL d   1     -42.471-122.821 -49.194  0.00  0.00     0.123 A 
ATOM     16  C   UNL d   1     -42.453-123.008 -48.392  0.00  0.00     0.123 A 
ATOM     17  C   UNL d   1     -43.113-123.330 -48.029  0.00  0.00     0.027 A 
ATOM     18  C   UNL d   1     -43.799-123.470 -48.463  0.00  0.00     0.002 A 
ATOM     19  C   UNL d   1     -43.820-123.281 -49.276  0.00  0.00     0.002 A 
ATOM     20  C   UNL d   1     -43.154-122.957 -49.636  0.00  0.00     0.027 A 
BRANCH  16  21
ATOM     21  O   UNL d   1     -41.768-122.870 -47.953  0.00  0.00    -0.303 OA
BRANCH  21  22
ATOM     22  C   UNL d   1     -41.805-122.856 -47.132  0.00  0.00     0.123 C 
ATOM     23  C   UNL d   1     -41.123-122.945 -46.681  0.00  0.00     0.029 C 
ENDBRANCH  21  22
ENDBRANCH  16  21
ENDBRANCH  14  15
ENDBRANCH   1  14
BRANCH   5  24
ATOM     24  C   UNL d   1     -41.837-121.721 -53.275  0.00  0.00     0.086 C 
BRANCH  24  25
ATOM     25  N   UNL d   1     -42.098-121.792 -54.059  0.00  0.00    -0.300 N 
ATOM     26  C   UNL d   1     -41.556-121.770 -54.684  0.00  0.00     0.100 A 
ATOM     27  C   UNL d   1     -41.820-121.841 -55.457  0.00  0.00     0.100 A 
ATOM     28  N   UNL d   1     -42.623-121.934 -55.618  0.00  0.00    -0.297 N 
ATOM     29  C   UNL d   1     -43.166-121.957 -54.994  0.00  0.00     0.100 A 
ATOM     30  C   UNL d   1     -42.904-121.885 -54.208  0.00  0.00     0.100 A 
BRANCH  28  31
ATOM     31  C   UNL d   1     -42.887-122.006 -56.394  0.00  0.00     0.126 C 
BRANCH  31  32
ATOM     32  C   UNL d   1     -42.390-121.796 -57.017  0.00  0.00     0.253 C 
ATOM     33  O   UNL d   1     -42.556-121.126 -57.466  0.00  0.00    -0.281 OA
ENDBRANCH  31  32
ENDBRANCH  28  31
ENDBRANCH  24  25
ENDBRANCH   5  24
TORSDOF 8
ENDMDL
