MODEL 1
REMARK VINA RESULT:      -4.3      0.000      0.000
REMARK  6 active torsions:
REMARK  status: ('A' for Active; 'I' for Inactive)
REMARK    1  A    between atoms: C_9  and  N_1 
REMARK    2  A    between atoms: C_8  and  C_3 
REMARK       I    between atoms: N_12  and  C_8 
REMARK    3  A    between atoms: C_17  and  C_9 
REMARK    4  A    between atoms: C_23  and  N_12 
REMARK    5  A    between atoms: C_13  and  C_23 
REMARK    6  A    between atoms: C_20  and  C_17 
ROOT
ATOM      1  N   UNL d   1     -39.923  14.470  19.646  0.00  0.00    -0.273 N 
ATOM      2  C   UNL d   1     -40.723  14.633  19.712  0.00  0.00     0.177 A 
ATOM      3  C   UNL d   1     -40.954  14.480  20.492  0.00  0.00     0.115 A 
ATOM      4  C   UNL d   1     -39.645  14.214  20.382  0.00  0.00     0.167 A 
ATOM      5  C   UNL d   1     -40.283  14.221  20.905  0.00  0.00     0.123 A 
ATOM      6  N   UNL d   1     -38.901  13.979  20.642  0.00  0.00    -0.225 NA
ATOM      7  N   UNL d   1     -40.177  13.992  21.689  0.00  0.00    -0.241 NA
ATOM      8  C   UNL d   1     -38.794  13.749  21.426  0.00  0.00     0.101 A 
ATOM      9  C   UNL d   1     -39.432  13.756  21.949  0.00  0.00     0.099 A 
ATOM     10  N   UNL d   1     -41.213  14.902  19.106  0.00  0.00    -0.128 N 
ATOM     11  C   UNL d   1     -38.049  13.513  21.686  0.00  0.00     0.021 A 
ATOM     12  C   UNL d   1     -39.325  13.526  22.733  0.00  0.00     0.021 A 
ATOM     13  C   UNL d   1     -37.940  13.283  22.473  0.00  0.00     0.002 A 
ATOM     14  C   UNL d   1     -38.577  13.289  22.996  0.00  0.00     0.002 A 
ENDROOT
BRANCH   1  15
ATOM     15  C   UNL d   1     -39.463  14.545  18.963  0.00  0.00     0.083 C 
BRANCH  15  16
ATOM     16  C   UNL d   1     -39.450  13.934  18.407  0.00  0.00     0.021 C 
BRANCH  16  17
ATOM     17  C   UNL d   1     -38.949  13.993  17.755  0.00  0.00     0.029 A 
ATOM     18  C   UNL d   1     -38.757  13.317  17.333  0.00  0.00     0.140 A 
ATOM     19  F   UNL d   1     -39.150  12.681  17.699  0.00  0.00    -0.204 F 
ATOM     20  C   UNL d   1     -38.263  13.364  16.688  0.00  0.00     0.030 A 
ATOM     21  C   UNL d   1     -37.954  14.101  16.459  0.00  0.00     0.002 A 
ATOM     22  C   UNL d   1     -38.151  14.774  16.887  0.00  0.00     0.000 A 
ATOM     23  C   UNL d   1     -38.647  14.718  17.533  0.00  0.00     0.002 A 
ENDBRANCH  16  17
ENDBRANCH  15  16
ENDBRANCH   1  15
BRANCH   3  24
ATOM     24  C   UNL d   1     -41.712  14.568  20.808  0.00  0.00     0.284 C 
ATOM     25  N   UNL d   1     -42.189  13.901  20.905  0.00  0.00    -0.204 NA
ATOM     26  O   UNL d   1     -41.991  15.312  21.025  0.00  0.00    -0.265 OA
BRANCH  25  27
ATOM     27  C   UNL d   1     -42.956  13.988  21.225  0.00  0.00     0.127 C 
BRANCH  27  28
ATOM     28  C   UNL d   1     -43.377  13.328  21.467  0.00  0.00     0.119 A 
ATOM     29  O   UNL d   1     -43.057  12.588  21.636  0.00  0.00    -0.304 OA
ATOM     30  C   UNL d   1     -43.676  12.090  21.857  0.00  0.00     0.123 A 
ATOM     31  C   UNL d   1     -44.380  12.537  21.821  0.00  0.00     0.029 A 
ATOM     32  C   UNL d   1     -44.192  13.287  21.584  0.00  0.00     0.028 A 
ENDBRANCH  27  28
ENDBRANCH  25  27
ENDBRANCH   3  24
TORSDOF 6
ENDMDL
MODEL 2
REMARK VINA RESULT:      -2.1      6.253      8.042
REMARK  6 active torsions:
REMARK  status: ('A' for Active; 'I' for Inactive)
REMARK    1  A    between atoms: C_9  and  N_1 
REMARK    2  A    between atoms: C_8  and  C_3 
REMARK       I    between atoms: N_12  and  C_8 
REMARK    3  A    between atoms: C_17  and  C_9 
REMARK    4  A    between atoms: C_23  and  N_12 
REMARK    5  A    between atoms: C_13  and  C_23 
REMARK    6  A    between atoms: C_20  and  C_17 
ROOT
ATOM      1  N   UNL d   1     -46.492  11.743  23.420  0.00  0.00    -0.273 N 
ATOM      2  C   UNL d   1     -47.222  11.373  23.389  0.00  0.00     0.177 A 
ATOM      3  C   UNL d   1     -47.790  11.942  23.196  0.00  0.00     0.115 A 
ATOM      4  C   UNL d   1     -46.596  12.545  23.248  0.00  0.00     0.167 A 
ATOM      5  C   UNL d   1     -47.399  12.668  23.110  0.00  0.00     0.123 A 
ATOM      6  N   UNL d   1     -46.067  13.174  23.200  0.00  0.00    -0.225 NA
ATOM      7  N   UNL d   1     -47.676  13.421  22.923  0.00  0.00    -0.241 NA
ATOM      8  C   UNL d   1     -46.343  13.928  23.013  0.00  0.00     0.101 A 
ATOM      9  C   UNL d   1     -47.147  14.051  22.875  0.00  0.00     0.099 A 
ATOM     10  N   UNL d   1     -47.365  10.572  23.526  0.00  0.00    -0.128 N 
ATOM     11  C   UNL d   1     -45.814  14.558  22.965  0.00  0.00     0.021 A 
ATOM     12  C   UNL d   1     -47.423  14.804  22.688  0.00  0.00     0.021 A 
ATOM     13  C   UNL d   1     -46.090  15.315  22.777  0.00  0.00     0.002 A 
ATOM     14  C   UNL d   1     -46.894  15.438  22.639  0.00  0.00     0.002 A 
ENDROOT
BRANCH   1  15
ATOM     15  C   UNL d   1     -45.768  11.383  23.594  0.00  0.00     0.083 C 
BRANCH  15  16
ATOM     16  C   UNL d   1     -45.359  10.976  23.002  0.00  0.00     0.021 C 
BRANCH  16  17
ATOM     17  C   UNL d   1     -44.631  10.631  23.178  0.00  0.00     0.029 A 
ATOM     18  C   UNL d   1     -43.941  11.037  23.006  0.00  0.00     0.140 A 
ATOM     19  F   UNL d   1     -44.163  11.762  22.664  0.00  0.00    -0.204 F 
ATOM     20  C   UNL d   1     -43.217  10.705  23.176  0.00  0.00     0.030 A 
ATOM     21  C   UNL d   1     -43.183   9.952  23.527  0.00  0.00     0.002 A 
ATOM     22  C   UNL d   1     -43.879   9.551  23.697  0.00  0.00     0.000 A 
ATOM     23  C   UNL d   1     -44.600   9.891  23.522  0.00  0.00     0.002 A 
ENDBRANCH  16  17
ENDBRANCH  15  16
ENDBRANCH   1  15
BRANCH   3  24
ATOM     24  C   UNL d   1     -48.603  11.817  23.105  0.00  0.00     0.284 C 
ATOM     25  N   UNL d   1     -48.975  12.071  22.414  0.00  0.00    -0.204 NA
ATOM     26  O   UNL d   1     -49.037  11.445  23.697  0.00  0.00    -0.265 OA
BRANCH  25  27
ATOM     27  C   UNL d   1     -49.796  11.945  22.320  0.00  0.00     0.127 C 
BRANCH  27  28
ATOM     28  C   UNL d   1     -50.257  12.508  21.943  0.00  0.00     0.119 A 
ATOM     29  O   UNL d   1     -50.369  12.572  21.130  0.00  0.00    -0.304 OA
ATOM     30  C   UNL d   1     -50.870  13.212  20.994  0.00  0.00     0.123 A 
ATOM     31  C   UNL d   1     -51.063  13.539  21.737  0.00  0.00     0.029 A 
ATOM     32  C   UNL d   1     -50.688  13.107  22.309  0.00  0.00     0.028 A 
ENDBRANCH  27  28
ENDBRANCH  25  27
ENDBRANCH   3  24
TORSDOF 6
ENDMDL
MODEL 3
REMARK VINA RESULT:      -1.9      4.576      8.672
REMARK  6 active torsions:
REMARK  status: ('A' for Active; 'I' for Inactive)
REMARK    1  A    between atoms: C_9  and  N_1 
REMARK    2  A    between atoms: C_8  and  C_3 
REMARK       I    between atoms: N_12  and  C_8 
REMARK    3  A    between atoms: C_17  and  C_9 
REMARK    4  A    between atoms: C_23  and  N_12 
REMARK    5  A    between atoms: C_13  and  C_23 
REMARK    6  A    between atoms: C_20  and  C_17 
ROOT
ATOM      1  N   UNL d   1     -47.402  12.054  23.370  0.00  0.00    -0.273 N 
ATOM      2  C   UNL d   1     -46.712  11.612  23.383  0.00  0.00     0.177 A 
ATOM      3  C   UNL d   1     -46.082  12.113  23.190  0.00  0.00     0.115 A 
ATOM      4  C   UNL d   1     -47.212  12.833  23.168  0.00  0.00     0.167 A 
ATOM      5  C   UNL d   1     -46.395  12.869  23.057  0.00  0.00     0.123 A 
ATOM      6  N   UNL d   1     -47.672  13.508  23.072  0.00  0.00    -0.225 NA
ATOM      7  N   UNL d   1     -46.038  13.581  22.849  0.00  0.00    -0.241 NA
ATOM      8  C   UNL d   1     -47.315  14.221  22.864  0.00  0.00     0.101 A 
ATOM      9  C   UNL d   1     -46.498  14.257  22.753  0.00  0.00     0.099 A 
ATOM     10  N   UNL d   1     -46.656  10.808  23.560  0.00  0.00    -0.128 N 
ATOM     11  C   UNL d   1     -47.776  14.897  22.768  0.00  0.00     0.021 A 
ATOM     12  C   UNL d   1     -46.141  14.970  22.545  0.00  0.00     0.021 A 
ATOM     13  C   UNL d   1     -47.419  15.614  22.559  0.00  0.00     0.002 A 
ATOM     14  C   UNL d   1     -46.602  15.651  22.448  0.00  0.00     0.002 A 
ENDROOT
BRANCH   1  15
ATOM     15  C   UNL d   1     -48.164  11.775  23.529  0.00  0.00     0.083 C 
BRANCH  15  16
ATOM     16  C   UNL d   1     -48.661  11.558  22.906  0.00  0.00     0.021 C 
BRANCH  16  17
ATOM     17  C   UNL d   1     -49.462  11.753  22.942  0.00  0.00     0.029 A 
ATOM     18  C   UNL d   1     -49.876  11.880  22.247  0.00  0.00     0.140 A 
ATOM     19  F   UNL d   1     -49.341  11.772  21.619  0.00  0.00    -0.204 F 
ATOM     20  C   UNL d   1     -50.667  12.072  22.272  0.00  0.00     0.030 A 
ATOM     21  C   UNL d   1     -51.052  12.139  23.006  0.00  0.00     0.002 A 
ATOM     22  C   UNL d   1     -50.629  12.010  23.698  0.00  0.00     0.000 A 
ATOM     23  C   UNL d   1     -49.836  11.818  23.664  0.00  0.00     0.002 A 
ENDBRANCH  16  17
ENDBRANCH  15  16
ENDBRANCH   1  15
BRANCH   3  24
ATOM     24  C   UNL d   1     -45.284  11.904  23.137  0.00  0.00     0.284 C 
ATOM     25  N   UNL d   1     -44.828  12.205  22.519  0.00  0.00    -0.204 NA
ATOM     26  O   UNL d   1     -44.946  11.401  23.694  0.00  0.00    -0.265 OA
BRANCH  25  27
ATOM     27  C   UNL d   1     -44.021  11.996  22.463  0.00  0.00     0.127 C 
BRANCH  27  28
ATOM     28  C   UNL d   1     -43.541  12.355  21.906  0.00  0.00     0.119 A 
ATOM     29  O   UNL d   1     -43.763  12.559  21.139  0.00  0.00    -0.304 OA
ATOM     30  C   UNL d   1     -43.111  12.906  20.772  0.00  0.00     0.123 A 
ATOM     31  C   UNL d   1     -42.487  12.910  21.325  0.00  0.00     0.029 A 
ATOM     32  C   UNL d   1     -42.754  12.574  22.011  0.00  0.00     0.028 A 
ENDBRANCH  27  28
ENDBRANCH  25  27
ENDBRANCH   3  24
TORSDOF 6
ENDMDL
