MODEL 1
REMARK VINA RESULT:      -3.3      0.000      0.000
REMARK  12 active torsions:
REMARK  status: ('A' for Active; 'I' for Inactive)
REMARK    1  A    between atoms: C_7  and  C_1 
REMARK    2  A    between atoms: C_8  and  N_2 
REMARK    3  A    between atoms: C_6  and  C_5 
REMARK    4  A    between atoms: C_9  and  C_7 
REMARK    5  A    between atoms: C_24  and  C_8 
REMARK    6  A    between atoms: C_12  and  C_9 
REMARK    7  A    between atoms: C_11  and  C_12 
REMARK    8  A    between atoms: O_27  and  C_13 
REMARK    9  A    between atoms: N_14  and  C_24 
REMARK   10  A    between atoms: O_28  and  C_18 
REMARK   11  A    between atoms: C_33  and  O_28 
REMARK   12  A    between atoms: C_35  and  C_33 
ROOT
ATOM      1  C   UNL d   1      51.658  34.243  52.856  0.00  0.00     0.099 A 
ATOM      2  N   UNL d   1      52.442  34.226  53.937  0.00  0.00    -0.269 N 
ATOM      3  C   UNL d   1      51.703  35.009  53.160  0.00  0.00     0.256 A 
ATOM      4  C   UNL d   1      52.186  35.002  53.825  0.00  0.00     0.304 A 
ATOM      5  C   UNL d   1      52.117  33.756  53.339  0.00  0.00     0.073 A 
ATOM      6  O   UNL d   1      52.379  35.650  54.295  0.00  0.00    -0.263 OA
ATOM      7  O   UNL d   1      51.327  35.671  52.847  0.00  0.00    -0.281 OA
ENDROOT
BRANCH   5   8
ATOM      8  C   UNL d   1      52.233  32.948  53.246  0.00  0.00     0.018 A 
ATOM      9  C   UNL d   1      52.910  32.670  52.888  0.00  0.00     0.028 A 
ATOM     10  C   UNL d   1      53.026  31.861  52.795  0.00  0.00     0.117 A 
ATOM     11  C   UNL d   1      52.449  31.326  53.068  0.00  0.00     0.122 A 
ATOM     12  C   UNL d   1      51.766  31.613  53.430  0.00  0.00     0.027 A 
ATOM     13  C   UNL d   1      51.654  32.428  53.522  0.00  0.00     0.004 A 
BRANCH  10  14
ATOM     14  O   UNL d   1      53.707  31.580  52.434  0.00  0.00    -0.326 OA
ATOM     15  C   UNL d   1      54.451  31.817  52.713  0.00  0.00     0.181 C 
ENDBRANCH  10  14
BRANCH  11  16
ATOM     16  O   UNL d   1      52.565  30.518  52.975  0.00  0.00    -0.303 OA
BRANCH  16  17
ATOM     17  C   UNL d   1      52.419  30.007  53.611  0.00  0.00     0.123 C 
BRANCH  17  18
ATOM     18  C   UNL d   1      52.680  29.225  53.578  0.00  0.00     0.027 C 
ATOM     19  C   UNL d   1      53.026  28.884  54.240  0.00  0.00     0.002 C 
ENDBRANCH  17  18
ENDBRANCH  16  17
ENDBRANCH  11  16
ENDBRANCH   5   8
BRANCH   2  20
ATOM     20  C   UNL d   1      52.939  33.962  54.542  0.00  0.00     0.102 C 
BRANCH  20  21
ATOM     21  C   UNL d   1      53.484  34.478  54.886  0.00  0.00     0.100 C 
BRANCH  21  22
ATOM     22  N   UNL d   1      54.185  34.187  55.197  0.00  0.00    -0.298 N 
ATOM     23  C   UNL d   1      54.160  33.638  55.801  0.00  0.00     0.107 A 
ATOM     24  C   UNL d   1      54.865  33.343  56.116  0.00  0.00     0.142 A 
ATOM     25  O   UNL d   1      55.590  33.604  55.820  0.00  0.00    -0.300 OA
ATOM     26  C   UNL d   1      55.610  34.159  55.209  0.00  0.00     0.142 A 
ATOM     27  C   UNL d   1      54.911  34.450  54.898  0.00  0.00     0.107 A 
ENDBRANCH  21  22
ENDBRANCH  20  21
ENDBRANCH   2  20
BRANCH   1  28
ATOM     28  C   UNL d   1      51.234  34.006  52.197  0.00  0.00     0.200 C 
ATOM     29  O   UNL d   1      51.624  33.659  51.555  0.00  0.00    -0.286 OA
BRANCH  28  30
ATOM     30  C   UNL d   1      50.413  34.115  52.171  0.00  0.00     0.044 C 
BRANCH  30  31
ATOM     31  C   UNL d   1      50.013  34.072  51.446  0.00  0.00     0.028 C 
BRANCH  31  32
ATOM     32  C   UNL d   1      49.263  34.387  51.377  0.00  0.00     0.100 A 
ATOM     33  O   UNL d   1      48.797  34.670  51.989  0.00  0.00    -0.305 OA
ATOM     34  C   UNL d   1      48.080  34.937  51.672  0.00  0.00     0.123 A 
ATOM     35  C   UNL d   1      48.103  34.819  50.860  0.00  0.00     0.029 A 
ATOM     36  C   UNL d   1      48.835  34.477  50.672  0.00  0.00     0.027 A 
ENDBRANCH  31  32
ENDBRANCH  30  31
ENDBRANCH  28  30
ENDBRANCH   1  28
TORSDOF 12
ENDMDL
MODEL 2
REMARK VINA RESULT:      -3.3      1.310      4.443
REMARK  12 active torsions:
REMARK  status: ('A' for Active; 'I' for Inactive)
REMARK    1  A    between atoms: C_7  and  C_1 
REMARK    2  A    between atoms: C_8  and  N_2 
REMARK    3  A    between atoms: C_6  and  C_5 
REMARK    4  A    between atoms: C_9  and  C_7 
REMARK    5  A    between atoms: C_24  and  C_8 
REMARK    6  A    between atoms: C_12  and  C_9 
REMARK    7  A    between atoms: C_11  and  C_12 
REMARK    8  A    between atoms: O_27  and  C_13 
REMARK    9  A    between atoms: N_14  and  C_24 
REMARK   10  A    between atoms: O_28  and  C_18 
REMARK   11  A    between atoms: C_33  and  O_28 
REMARK   12  A    between atoms: C_35  and  C_33 
ROOT
ATOM      1  C   UNL d   1      53.368  32.177  53.219  0.00  0.00     0.099 A 
ATOM      2  N   UNL d   1      53.665  33.437  53.546  0.00  0.00    -0.269 N 
ATOM      3  C   UNL d   1      54.158  32.207  53.455  0.00  0.00     0.256 A 
ATOM      4  C   UNL d   1      54.344  32.982  53.657  0.00  0.00     0.304 A 
ATOM      5  C   UNL d   1      53.062  32.941  53.275  0.00  0.00     0.073 A 
ATOM      6  O   UNL d   1      55.075  33.255  53.922  0.00  0.00    -0.263 OA
ATOM      7  O   UNL d   1      54.674  31.567  53.483  0.00  0.00    -0.281 OA
ENDROOT
BRANCH   5   8
ATOM      8  C   UNL d   1      52.294  33.173  53.096  0.00  0.00     0.018 A 
ATOM      9  C   UNL d   1      52.129  33.524  52.378  0.00  0.00     0.028 A 
ATOM     10  C   UNL d   1      51.362  33.756  52.199  0.00  0.00     0.117 A 
ATOM     11  C   UNL d   1      50.751  33.630  52.751  0.00  0.00     0.122 A 
ATOM     12  C   UNL d   1      50.923  33.275  53.475  0.00  0.00     0.027 A 
ATOM     13  C   UNL d   1      51.698  33.043  53.652  0.00  0.00     0.004 A 
BRANCH  10  14
ATOM     14  O   UNL d   1      51.195  34.110  51.477  0.00  0.00    -0.326 OA
ATOM     15  C   UNL d   1      51.787  34.525  51.074  0.00  0.00     0.181 C 
ENDBRANCH  10  14
BRANCH  11  16
ATOM     16  O   UNL d   1      49.983  33.862  52.572  0.00  0.00    -0.303 OA
BRANCH  16  17
ATOM     17  C   UNL d   1      49.632  34.482  52.995  0.00  0.00     0.123 C 
BRANCH  17  18
ATOM     18  C   UNL d   1      48.914  34.798  52.739  0.00  0.00     0.027 C 
ATOM     19  C   UNL d   1      48.622  35.479  53.094  0.00  0.00     0.002 C 
ENDBRANCH  17  18
ENDBRANCH  16  17
ENDBRANCH  11  16
ENDBRANCH   5   8
BRANCH   2  20
ATOM     20  C   UNL d   1      53.599  34.249  53.682  0.00  0.00     0.102 C 
BRANCH  20  21
ATOM     21  C   UNL d   1      53.838  34.570  54.404  0.00  0.00     0.100 C 
BRANCH  21  22
ATOM     22  N   UNL d   1      53.522  35.283  54.661  0.00  0.00    -0.298 N 
ATOM     23  C   UNL d   1      53.628  35.956  54.211  0.00  0.00     0.107 A 
ATOM     24  C   UNL d   1      53.311  36.675  54.468  0.00  0.00     0.142 A 
ATOM     25  O   UNL d   1      52.888  36.709  55.177  0.00  0.00    -0.300 OA
ATOM     26  C   UNL d   1      52.784  36.025  55.627  0.00  0.00     0.142 A 
ATOM     27  C   UNL d   1      53.099  35.314  55.372  0.00  0.00     0.107 A 
ENDBRANCH  21  22
ENDBRANCH  20  21
ENDBRANCH   2  20
BRANCH   1  28
ATOM     28  C   UNL d   1      52.960  31.511  52.973  0.00  0.00     0.200 C 
ATOM     29  O   UNL d   1      52.752  31.421  52.178  0.00  0.00    -0.286 OA
BRANCH  28  30
ATOM     30  C   UNL d   1      52.754  30.926  53.522  0.00  0.00     0.044 C 
BRANCH  30  31
ATOM     31  C   UNL d   1      52.795  30.126  53.308  0.00  0.00     0.028 C 
BRANCH  31  32
ATOM     32  C   UNL d   1      52.929  29.559  53.880  0.00  0.00     0.100 A 
ATOM     33  O   UNL d   1      52.570  29.516  54.615  0.00  0.00    -0.305 OA
ATOM     34  C   UNL d   1      52.869  28.855  55.016  0.00  0.00     0.123 A 
ATOM     35  C   UNL d   1      53.416  28.489  54.526  0.00  0.00     0.029 A 
ATOM     36  C   UNL d   1      53.457  28.922  53.819  0.00  0.00     0.027 A 
ENDBRANCH  31  32
ENDBRANCH  30  31
ENDBRANCH  28  30
ENDBRANCH   1  28
TORSDOF 12
ENDMDL
