MODEL 1
REMARK VINA RESULT:      10.2      0.000      0.000
REMARK  3 active torsions:
REMARK  status: ('A' for Active; 'I' for Inactive)
REMARK    1  A    between atoms: S_6  and  C_2 
REMARK    2  A    between atoms: C_9  and  S_6 
REMARK    3  A    between atoms: C_7  and  C_9 
ROOT
ATOM      1  N   UNL d   1     -58.888 -98.756 -45.264  0.00  0.00    -0.243 NA
ATOM      2  C   UNL d   1     -57.798 -98.757 -44.505  0.00  0.00     0.046 A 
ATOM      3  C   UNL d   1     -58.458 -98.757 -44.010  0.00  0.00     0.025 A 
ATOM      4  C   UNL d   1     -58.063 -98.756 -45.276  0.00  0.00     0.105 A 
ATOM      5  C   UNL d   1     -59.136 -98.756 -44.480  0.00  0.00     0.082 A 
ATOM      6  C   UNL d   1     -58.528 -98.758 -43.191  0.00  0.00     0.002 A 
ATOM      7  C   UNL d   1     -59.889 -98.756 -44.128  0.00  0.00     0.019 A 
ATOM      8  C   UNL d   1     -59.286 -98.758 -42.824  0.00  0.00     0.000 A 
ATOM      9  C   UNL d   1     -59.956 -98.757 -43.296  0.00  0.00     0.002 A 
ENDROOT
BRANCH   2  10
ATOM     10  S   UNL d   1     -57.001 -98.757 -44.273  0.00  0.00    -0.101 SA
BRANCH  10  11
ATOM     11  C   UNL d   1     -56.400 -98.786 -44.844  0.00  0.00     0.160 C 
BRANCH  11  12
ATOM     12  C   UNL d   1     -55.692 -99.185 -44.692  0.00  0.00     0.197 C 
ATOM     13  O   UNL d   1     -55.696-100.017 -44.629  0.00  0.00    -0.647 OA
ATOM     14  O   UNL d   1     -54.982 -98.777 -44.602  0.00  0.00    -0.647 OA
ENDBRANCH  11  12
ENDBRANCH  10  11
ENDBRANCH   2  10
TORSDOF 3
ENDMDL
