MODEL 1
REMARK VINA RESULT:      15.6      0.000      0.000
REMARK  3 active torsions:
REMARK  status: ('A' for Active; 'I' for Inactive)
REMARK    1  A    between atoms: S_3  and  C_1 
REMARK    2  A    between atoms: C_7  and  N_2 
REMARK    3  A    between atoms: C_13  and  C_7 
ROOT
ATOM      1  C   UNL d   1     -54.765-101.522 -37.557  0.00  0.00     0.255 A 
ATOM      2  N   UNL d   1     -54.763-101.686 -36.746  0.00  0.00    -0.278 N 
ATOM      3  N   UNL d   1     -54.750-100.727 -37.683  0.00  0.00    -0.215 NA
ATOM      4  C   UNL d   1     -54.746-100.955 -36.343  0.00  0.00     0.084 A 
ATOM      5  C   UNL d   1     -54.738-100.364 -36.921  0.00  0.00     0.100 A 
ATOM      6  C   UNL d   1     -54.737-100.747 -35.544  0.00  0.00     0.019 A 
ATOM      7  C   UNL d   1     -54.721 -99.567 -36.697  0.00  0.00     0.021 A 
ATOM      8  C   UNL d   1     -54.721 -99.954 -35.318  0.00  0.00     0.002 A 
ATOM      9  C   UNL d   1     -54.713 -99.362 -35.896  0.00  0.00     0.002 A 
ENDROOT
BRANCH   1  10
ATOM     10  S   UNL d   1     -54.779-102.100 -38.149  0.00  0.00     0.174 S 
ATOM     11  O   UNL d   1     -54.848-101.510 -38.724  0.00  0.00    -0.589 OA
ATOM     12  O   UNL d   1     -54.794-102.677 -38.740  0.00  0.00    -0.589 OA
ATOM     13  O   UNL d   1     -54.711-102.689 -37.575  0.00  0.00    -0.589 OA
ENDBRANCH   1  10
BRANCH   2  14
ATOM     14  C   UNL d   1     -54.775-102.415 -36.382  0.00  0.00     0.082 C 
BRANCH  14  15
ATOM     15  C   UNL d   1     -55.504-102.699 -36.144  0.00  0.00     0.018 C 
ATOM     16  C   UNL d   1     -55.657-102.879 -35.354  0.00  0.00     0.002 C 
ATOM     17  C   UNL d   1     -56.116-102.816 -36.678  0.00  0.00     0.002 C 
ENDBRANCH  14  15
ENDBRANCH   2  14
TORSDOF 3
ENDMDL
