MODEL 1
REMARK VINA RESULT:      65.4      0.000      0.000
REMARK  3 active torsions:
REMARK  status: ('A' for Active; 'I' for Inactive)
REMARK    1  A    between atoms: C_8  and  N_1 
REMARK    2  A    between atoms: N_10  and  C_5 
REMARK    3  A    between atoms: C_15  and  N_10 
ROOT
ATOM      1  N   UNL d   1      61.380  47.271  50.512  0.00  0.00    -0.212 N 
ATOM      2  C   UNL d   1      61.259  48.069  50.336  0.00  0.00     0.170 A 
ATOM      3  C   UNL d   1      60.920  48.426  50.998  0.00  0.00     0.093 A 
ATOM      4  N   UNL d   1      61.114  47.137  51.287  0.00  0.00    -0.162 NA
ATOM      5  C   UNL d   1      60.735  49.235  50.984  0.00  0.00     0.169 A 
ATOM      6  C   UNL d   1      60.831  47.856  51.582  0.00  0.00     0.127 A 
ATOM      7  N   UNL d   1      61.417  48.511  49.653  0.00  0.00    -0.205 NA
ATOM      8  N   UNL d   1      60.893  49.678  50.301  0.00  0.00    -0.205 NA
ATOM      9  C   UNL d   1      61.232  49.313  49.643  0.00  0.00     0.202 A 
ENDROOT
BRANCH   1  10
ATOM     10  C   UNL d   1      61.707  46.705  50.007  0.00  0.00     0.085 A 
ATOM     11  C   UNL d   1      61.268  46.051  49.781  0.00  0.00     0.019 A 
ATOM     12  C   UNL d   1      61.600  45.483  49.273  0.00  0.00     0.002 A 
ATOM     13  C   UNL d   1      61.165  44.826  49.043  0.00  0.00     0.000 C 
ATOM     14  C   UNL d   1      62.363  45.574  48.998  0.00  0.00     0.000 A 
ATOM     15  C   UNL d   1      62.810  46.239  49.228  0.00  0.00     0.002 A 
ATOM     16  C   UNL d   1      62.491  46.799  49.725  0.00  0.00     0.019 A 
ENDBRANCH   1  10
BRANCH   5  17
ATOM     17  N   UNL d   1      60.399  49.596  51.635  0.00  0.00    -0.227 NA
BRANCH  17  18
ATOM     18  C   UNL d   1      59.587  49.655  51.698  0.00  0.00     0.083 C 
ATOM     19  C   UNL d   1      59.226  49.664  52.441  0.00  0.00     0.021 C 
ATOM     20  C   UNL d   1      59.118  49.708  51.017  0.00  0.00     0.021 C 
ENDBRANCH  17  18
ENDBRANCH   5  17
TORSDOF 3
ENDMDL
MODEL 2
REMARK VINA RESULT:      66.0      0.924      4.126
REMARK  3 active torsions:
REMARK  status: ('A' for Active; 'I' for Inactive)
REMARK    1  A    between atoms: C_8  and  N_1 
REMARK    2  A    between atoms: N_10  and  C_5 
REMARK    3  A    between atoms: C_15  and  N_10 
ROOT
ATOM      1  N   UNL d   1      61.177  48.156  50.544  0.00  0.00    -0.212 N 
ATOM      2  C   UNL d   1      61.115  47.333  50.544  0.00  0.00     0.170 A 
ATOM      3  C   UNL d   1      61.591  47.043  49.936  0.00  0.00     0.093 A 
ATOM      4  N   UNL d   1      61.693  48.374  49.932  0.00  0.00    -0.162 NA
ATOM      5  C   UNL d   1      61.641  46.225  49.801  0.00  0.00     0.169 A 
ATOM      6  C   UNL d   1      61.946  47.681  49.560  0.00  0.00     0.127 A 
ATOM      7  N   UNL d   1      60.684  46.814  51.026  0.00  0.00    -0.205 NA
ATOM      8  N   UNL d   1      61.209  45.706  50.282  0.00  0.00    -0.205 NA
ATOM      9  C   UNL d   1      60.735  46.003  50.889  0.00  0.00     0.202 A 
ENDROOT
BRANCH   1  10
ATOM     10  C   UNL d   1      60.792  48.673  51.061  0.00  0.00     0.085 A 
ATOM     11  C   UNL d   1      60.031  48.929  50.898  0.00  0.00     0.019 A 
ATOM     12  C   UNL d   1      59.646  49.449  51.420  0.00  0.00     0.002 A 
ATOM     13  C   UNL d   1      58.883  49.708  51.262  0.00  0.00     0.000 C 
ATOM     14  C   UNL d   1      60.025  49.707  52.096  0.00  0.00     0.000 A 
ATOM     15  C   UNL d   1      60.798  49.448  52.261  0.00  0.00     0.002 A 
ATOM     16  C   UNL d   1      61.181  48.938  51.754  0.00  0.00     0.019 A 
ENDBRANCH   1  10
BRANCH   5  17
ATOM     17  N   UNL d   1      62.109  45.931  49.201  0.00  0.00    -0.227 NA
BRANCH  17  18
ATOM     18  C   UNL d   1      62.192  45.124  49.102  0.00  0.00     0.083 C 
ATOM     19  C   UNL d   1      62.910  44.754  49.274  0.00  0.00     0.021 C 
ATOM     20  C   UNL d   1      61.554  44.670  48.829  0.00  0.00     0.021 C 
ENDBRANCH  17  18
ENDBRANCH   5  17
TORSDOF 3
ENDMDL
