MODEL 1
REMARK VINA RESULT:      -5.3      0.000      0.000
REMARK  7 active torsions:
REMARK  status: ('A' for Active; 'I' for Inactive)
REMARK    1  A    between atoms: C_5  and  N_1 
REMARK    2  A    between atoms: C_2  and  N_6 
REMARK    3  A    between atoms: N_16  and  C_2 
REMARK    4  A    between atoms: C_3  and  C_9 
REMARK       I    between atoms: N_4  and  C_3 
REMARK    5  A    between atoms: N_6  and  N_4 
REMARK    6  A    between atoms: C_19  and  N_16 
REMARK    7  A    between atoms: C_17  and  C_19 
ROOT
ATOM      1  C   UNL d   1      56.982  -0.643  31.444  0.00  0.00     0.297 C 
ATOM      2  N   UNL d   1      57.418  -0.092  31.010  0.00  0.00    -0.103 NA
ATOM      3  O   UNL d   1      57.015  -1.446  31.246  0.00  0.00    -0.264 OA
ENDROOT
BRANCH   1   4
ATOM      4  C   UNL d   1      56.506  -0.375  32.087  0.00  0.00     0.059 A 
ATOM      5  C   UNL d   1      56.368   0.429  32.204  0.00  0.00     0.006 A 
ATOM      6  C   UNL d   1      55.901   0.677  32.835  0.00  0.00     0.024 A 
ATOM      7  C   UNL d   1      55.572   0.126  33.350  0.00  0.00     0.127 A 
ATOM      8  C   UNL d   1      55.711  -0.678  33.234  0.00  0.00     0.024 A 
ATOM      9  C   UNL d   1      56.178  -0.933  32.601  0.00  0.00     0.006 A 
BRANCH   7  10
ATOM     10  N   UNL d   1      55.107   0.395  33.978  0.00  0.00    -0.114 N 
ATOM     11  O   UNL d   1      54.319   0.613  33.833  0.00  0.00    -0.532 OA
ATOM     12  O   UNL d   1      55.410   0.450  34.741  0.00  0.00    -0.532 OA
ENDBRANCH   7  10
ENDBRANCH   1   4
BRANCH   2  13
ATOM     13  N   UNL d   1      57.887  -0.345  30.380  0.00  0.00    -0.114 NA
BRANCH  13  14
ATOM     14  C   UNL d   1      58.381   0.192  30.000  0.00  0.00     0.241 C 
ATOM     15  S   UNL d   1      58.081   0.682  29.383  0.00  0.00    -0.035 SA
BRANCH  14  16
ATOM     16  N   UNL d   1      59.172   0.248  30.226  0.00  0.00    -0.215 NA
BRANCH  16  17
ATOM     17  C   UNL d   1      59.753   0.292  29.651  0.00  0.00     0.102 C 
BRANCH  17  18
ATOM     18  C   UNL d   1      60.547   0.304  29.876  0.00  0.00     0.021 C 
ATOM     19  C   UNL d   1      61.132   0.105  29.327  0.00  0.00     0.002 C 
ENDBRANCH  17  18
ENDBRANCH  16  17
ENDBRANCH  14  16
ENDBRANCH  13  14
ENDBRANCH   2  13
TORSDOF 7
ENDMDL
MODEL 2
REMARK VINA RESULT:      -3.9      2.072      5.139
REMARK  7 active torsions:
REMARK  status: ('A' for Active; 'I' for Inactive)
REMARK    1  A    between atoms: C_5  and  N_1 
REMARK    2  A    between atoms: C_2  and  N_6 
REMARK    3  A    between atoms: N_16  and  C_2 
REMARK    4  A    between atoms: C_3  and  C_9 
REMARK       I    between atoms: N_4  and  C_3 
REMARK    5  A    between atoms: N_6  and  N_4 
REMARK    6  A    between atoms: C_19  and  N_16 
REMARK    7  A    between atoms: C_17  and  C_19 
ROOT
ATOM      1  C   UNL d   1      57.552   0.122  30.465  0.00  0.00     0.297 C 
ATOM      2  N   UNL d   1      57.325  -0.201  31.190  0.00  0.00    -0.103 NA
ATOM      3  O   UNL d   1      57.072   0.682  30.092  0.00  0.00    -0.264 OA
ENDROOT
BRANCH   1   4
ATOM      4  C   UNL d   1      58.279  -0.129  30.115  0.00  0.00     0.059 A 
ATOM      5  C   UNL d   1      58.331  -0.850  29.720  0.00  0.00     0.006 A 
ATOM      6  C   UNL d   1      59.045  -1.081  29.383  0.00  0.00     0.024 A 
ATOM      7  C   UNL d   1      59.707  -0.596  29.438  0.00  0.00     0.127 A 
ATOM      8  C   UNL d   1      59.655   0.125  29.833  0.00  0.00     0.024 A 
ATOM      9  C   UNL d   1      58.941   0.363  30.173  0.00  0.00     0.006 A 
BRANCH   7  10
ATOM     10  N   UNL d   1      60.415  -0.847  29.093  0.00  0.00    -0.114 N 
ATOM     11  O   UNL d   1      61.133  -0.536  29.372  0.00  0.00    -0.532 OA
ATOM     12  O   UNL d   1      60.421  -1.396  28.480  0.00  0.00    -0.532 OA
ENDBRANCH   7  10
ENDBRANCH   1   4
BRANCH   2  13
ATOM     13  N   UNL d   1      56.617   0.037  31.541  0.00  0.00    -0.114 NA
BRANCH  13  14
ATOM     14  C   UNL d   1      56.401  -0.273  32.271  0.00  0.00     0.241 C 
ATOM     15  S   UNL d   1      56.406  -1.106  32.397  0.00  0.00    -0.035 SA
BRANCH  14  16
ATOM     16  N   UNL d   1      56.178   0.237  32.881  0.00  0.00    -0.215 NA
BRANCH  16  17
ATOM     17  C   UNL d   1      55.506   0.073  33.318  0.00  0.00     0.102 C 
BRANCH  17  18
ATOM     18  C   UNL d   1      55.156   0.672  33.765  0.00  0.00     0.021 C 
ATOM     19  C   UNL d   1      54.907   0.515  34.536  0.00  0.00     0.002 C 
ENDBRANCH  17  18
ENDBRANCH  16  17
ENDBRANCH  14  16
ENDBRANCH  13  14
ENDBRANCH   2  13
TORSDOF 7
ENDMDL
MODEL 3
REMARK VINA RESULT:      -2.5      2.062      2.432
REMARK  7 active torsions:
REMARK  status: ('A' for Active; 'I' for Inactive)
REMARK    1  A    between atoms: C_5  and  N_1 
REMARK    2  A    between atoms: C_2  and  N_6 
REMARK    3  A    between atoms: N_16  and  C_2 
REMARK    4  A    between atoms: C_3  and  C_9 
REMARK       I    between atoms: N_4  and  C_3 
REMARK    5  A    between atoms: N_6  and  N_4 
REMARK    6  A    between atoms: C_19  and  N_16 
REMARK    7  A    between atoms: C_17  and  C_19 
ROOT
ATOM      1  C   UNL d   1      57.947  -0.305  30.137  0.00  0.00     0.297 C 
ATOM      2  N   UNL d   1      58.371  -1.001  30.012  0.00  0.00    -0.103 NA
ATOM      3  O   UNL d   1      57.782   0.200  29.503  0.00  0.00    -0.264 OA
ENDROOT
BRANCH   1   4
ATOM      4  C   UNL d   1      57.687  -0.118  30.918  0.00  0.00     0.059 A 
ATOM      5  C   UNL d   1      57.047  -0.513  31.256  0.00  0.00     0.006 A 
ATOM      6  C   UNL d   1      56.804  -0.320  32.018  0.00  0.00     0.024 A 
ATOM      7  C   UNL d   1      57.196   0.265  32.445  0.00  0.00     0.127 A 
ATOM      8  C   UNL d   1      57.835   0.660  32.107  0.00  0.00     0.024 A 
ATOM      9  C   UNL d   1      58.084   0.471  31.341  0.00  0.00     0.006 A 
BRANCH   7  10
ATOM     10  N   UNL d   1      56.936   0.443  33.209  0.00  0.00    -0.114 N 
ATOM     11  O   UNL d   1      57.479   0.416  33.836  0.00  0.00    -0.532 OA
ATOM     12  O   UNL d   1      56.153   0.646  33.357  0.00  0.00    -0.532 OA
ENDBRANCH   7  10
ENDBRANCH   1   4
BRANCH   2  13
ATOM     13  N   UNL d   1      58.630  -1.193  29.252  0.00  0.00    -0.114 NA
BRANCH  13  14
ATOM     14  C   UNL d   1      58.860  -1.964  29.083  0.00  0.00     0.241 C 
ATOM     15  S   UNL d   1      58.297  -2.521  28.793  0.00  0.00    -0.035 SA
BRANCH  14  16
ATOM     16  N   UNL d   1      59.645  -2.191  29.199  0.00  0.00    -0.215 NA
BRANCH  16  17
ATOM     17  C   UNL d   1      60.100  -2.414  28.556  0.00  0.00     0.102 C 
BRANCH  17  18
ATOM     18  C   UNL d   1      60.879  -2.658  28.675  0.00  0.00     0.021 C 
ATOM     19  C   UNL d   1      61.091  -3.441  28.523  0.00  0.00     0.002 C 
ENDBRANCH  17  18
ENDBRANCH  16  17
ENDBRANCH  14  16
ENDBRANCH  13  14
ENDBRANCH   2  13
TORSDOF 7
ENDMDL
