MODEL 1
REMARK VINA RESULT:      34.7      0.000      0.000
REMARK  4 active torsions:
REMARK  status: ('A' for Active; 'I' for Inactive)
REMARK    1  A    between atoms: S_2  and  N_1 
REMARK    2  A    between atoms: N_6  and  S_2 
REMARK    3  A    between atoms: C_10  and  C_3 
REMARK    4  A    between atoms: C_14  and  C_10 
ROOT
ATOM      1  N   UNL d   1      46.127 -18.378  43.059  0.00  0.00    -0.201 N 
ATOM      2  C   UNL d   1      46.022 -17.697  43.537  0.00  0.00     0.158 A 
ATOM      3  N   UNL d   1      46.126 -17.927  44.327  0.00  0.00    -0.226 NA
ATOM      4  C   UNL d   1      46.292 -19.009  43.559  0.00  0.00     0.095 A 
ATOM      5  C   UNL d   1      46.292 -18.734  44.338  0.00  0.00     0.100 A 
ATOM      6  C   UNL d   1      46.442 -19.803  43.397  0.00  0.00     0.020 A 
ATOM      7  C   UNL d   1      46.444 -19.261  44.955  0.00  0.00     0.021 A 
ATOM      8  C   UNL d   1      46.594 -20.329  44.013  0.00  0.00     0.002 A 
ATOM      9  C   UNL d   1      46.595 -20.059  44.797  0.00  0.00     0.002 A 
ENDROOT
BRANCH   1  10
ATOM     10  S   UNL d   1      46.074 -18.406  42.245  0.00  0.00     0.338 S 
ATOM     11  O   UNL d   1      46.647 -17.819  42.180  0.00  0.00    -0.181 OA
ATOM     12  O   UNL d   1      45.500 -18.994  42.307  0.00  0.00    -0.181 OA
BRANCH  10  13
ATOM     13  N   UNL d   1      46.011 -18.443  41.425  0.00  0.00    -0.212 N 
ATOM     14  C   UNL d   1      46.610 -18.791  40.982  0.00  0.00     0.120 A 
ATOM     15  C   UNL d   1      46.543 -18.827  40.153  0.00  0.00     0.142 A 
ATOM     16  O   UNL d   1      45.875 -18.511  39.784  0.00  0.00    -0.300 OA
ATOM     17  C   UNL d   1      45.285 -18.167  40.232  0.00  0.00     0.142 A 
ATOM     18  C   UNL d   1      45.347 -18.130  41.048  0.00  0.00     0.120 A 
ENDBRANCH  10  13
ENDBRANCH   1  10
BRANCH   2  19
ATOM     19  C   UNL d   1      45.848 -16.936  43.265  0.00  0.00     0.038 C 
BRANCH  19  20
ATOM     20  C   UNL d   1      45.703 -16.336  43.808  0.00  0.00     0.003 A 
ATOM     21  C   UNL d   1      46.117 -15.622  43.746  0.00  0.00     0.000 A 
ATOM     22  C   UNL d   1      45.973 -15.022  44.288  0.00  0.00     0.000 A 
ATOM     23  C   UNL d   1      45.425 -15.124  44.886  0.00  0.00     0.000 A 
ATOM     24  C   UNL d   1      45.008 -15.841  44.948  0.00  0.00     0.000 A 
ATOM     25  C   UNL d   1      45.152 -16.445  44.404  0.00  0.00     0.000 A 
ENDBRANCH  19  20
ENDBRANCH   2  19
TORSDOF 4
ENDMDL
