MODEL 1
REMARK VINA RESULT:      -6.3      0.000      0.000
REMARK  6 active torsions:
REMARK  status: ('A' for Active; 'I' for Inactive)
REMARK    1  A    between atoms: S_3  and  C_1 
REMARK    2  A    between atoms: C_11  and  S_3 
REMARK    3  A    between atoms: S_8  and  C_4 
REMARK    4  A    between atoms: C_7  and  C_5 
REMARK    5  A    between atoms: C_16  and  S_8 
REMARK    6  A    between atoms: C_19  and  C_16 
ROOT
ATOM      1  C   UNL d   1     -47.506  12.127  22.983  0.00  0.00     0.200 A 
ATOM      2  N   UNL d   1     -47.051  11.457  23.153  0.00  0.00    -0.206 NA
ATOM      3  C   UNL d   1     -46.992  12.775  22.919  0.00  0.00     0.160 A 
ATOM      4  C   UNL d   1     -46.254  11.689  23.194  0.00  0.00     0.207 A 
ATOM      5  O   UNL d   1     -46.226  12.502  23.049  0.00  0.00    -0.279 OA
ENDROOT
BRANCH   1   6
ATOM      6  S   UNL d   1     -48.327  12.140  22.895  0.00  0.00     0.229 S 
ATOM      7  O   UNL d   1     -48.197  12.271  22.094  0.00  0.00    -0.215 OA
ATOM      8  O   UNL d   1     -48.464  12.009  23.698  0.00  0.00    -0.215 OA
BRANCH   6   9
ATOM      9  C   UNL d   1     -49.151  12.151  22.817  0.00  0.00     0.089 A 
ATOM     10  C   UNL d   1     -49.642  12.152  23.488  0.00  0.00     0.011 A 
ATOM     11  C   UNL d   1     -50.451  12.163  23.405  0.00  0.00     0.001 A 
ATOM     12  C   UNL d   1     -50.788  12.173  22.653  0.00  0.00     0.000 A 
ATOM     13  C   UNL d   1     -50.312  12.172  21.986  0.00  0.00     0.001 A 
ATOM     14  C   UNL d   1     -49.492  12.161  22.062  0.00  0.00     0.011 A 
ENDBRANCH   6   9
ENDBRANCH   1   6
BRANCH   3  15
ATOM     15  S   UNL d   1     -47.212  13.553  22.755  0.00  0.00    -0.060 SA
BRANCH  15  16
ATOM     16  C   UNL d   1     -46.695  14.172  22.940  0.00  0.00     0.037 C 
BRANCH  16  17
ATOM     17  C   UNL d   1     -46.813  14.922  22.618  0.00  0.00     0.006 C 
ATOM     18  C   UNL d   1     -47.561  15.270  22.657  0.00  0.00     0.001 C 
ATOM     19  C   UNL d   1     -46.185  15.317  22.261  0.00  0.00     0.001 C 
ENDBRANCH  16  17
ENDBRANCH  15  16
ENDBRANCH   3  15
BRANCH   4  20
ATOM     20  C   UNL d   1     -45.609  11.192  23.352  0.00  0.00     0.141 A 
ATOM     21  O   UNL d   1     -44.805  11.390  23.276  0.00  0.00    -0.302 OA
ATOM     22  C   UNL d   1     -44.359  10.741  23.487  0.00  0.00     0.123 A 
ATOM     23  C   UNL d   1     -44.869  10.129  23.698  0.00  0.00     0.029 A 
ATOM     24  C   UNL d   1     -45.641  10.406  23.615  0.00  0.00     0.030 A 
ENDBRANCH   4  20
TORSDOF 6
ENDMDL
MODEL 2
REMARK VINA RESULT:      -5.6      0.846      2.810
REMARK  6 active torsions:
REMARK  status: ('A' for Active; 'I' for Inactive)
REMARK    1  A    between atoms: S_3  and  C_1 
REMARK    2  A    between atoms: C_11  and  S_3 
REMARK    3  A    between atoms: S_8  and  C_4 
REMARK    4  A    between atoms: C_7  and  C_5 
REMARK    5  A    between atoms: C_16  and  S_8 
REMARK    6  A    between atoms: C_19  and  C_16 
ROOT
ATOM      1  C   UNL d   1     -46.898  12.713  23.037  0.00  0.00     0.200 A 
ATOM      2  N   UNL d   1     -46.114  12.453  23.079  0.00  0.00    -0.206 NA
ATOM      3  C   UNL d   1     -47.391  12.067  23.199  0.00  0.00     0.160 A 
ATOM      4  C   UNL d   1     -46.120  11.644  23.268  0.00  0.00     0.207 A 
ATOM      5  O   UNL d   1     -46.911  11.414  23.340  0.00  0.00    -0.279 OA
ENDROOT
BRANCH   1   6
ATOM      6  S   UNL d   1     -47.139  13.485  22.863  0.00  0.00     0.229 S 
ATOM      7  O   UNL d   1     -47.111  13.270  22.069  0.00  0.00    -0.215 OA
ATOM      8  O   UNL d   1     -47.168  13.706  23.657  0.00  0.00    -0.215 OA
BRANCH   6   9
ATOM      9  C   UNL d   1     -47.379  14.260  22.698  0.00  0.00     0.089 A 
ATOM     10  C   UNL d   1     -48.186  14.460  22.686  0.00  0.00     0.011 A 
ATOM     11  C   UNL d   1     -48.417  15.223  22.524  0.00  0.00     0.001 A 
ATOM     12  C   UNL d   1     -47.850  15.801  22.371  0.00  0.00     0.000 A 
ATOM     13  C   UNL d   1     -47.053  15.613  22.381  0.00  0.00     0.001 A 
ATOM     14  C   UNL d   1     -46.811  14.842  22.544  0.00  0.00     0.011 A 
ENDBRANCH   6   9
ENDBRANCH   1   6
BRANCH   3  15
ATOM     15  S   UNL d   1     -48.216  12.079  23.215  0.00  0.00    -0.060 SA
BRANCH  15  16
ATOM     16  C   UNL d   1     -48.637  11.368  23.185  0.00  0.00     0.037 C 
BRANCH  16  17
ATOM     17  C   UNL d   1     -49.452  11.372  23.059  0.00  0.00     0.006 C 
ATOM     18  C   UNL d   1     -49.963  11.488  23.697  0.00  0.00     0.001 C 
ATOM     19  C   UNL d   1     -49.748  11.260  22.299  0.00  0.00     0.001 C 
ENDBRANCH  16  17
ENDBRANCH  15  16
ENDBRANCH   3  15
BRANCH   4  20
ATOM     20  C   UNL d   1     -45.454  11.160  23.365  0.00  0.00     0.141 A 
ATOM     21  O   UNL d   1     -44.673  11.349  23.152  0.00  0.00    -0.302 OA
ATOM     22  C   UNL d   1     -44.194  10.718  23.344  0.00  0.00     0.123 A 
ATOM     23  C   UNL d   1     -44.659  10.127  23.679  0.00  0.00     0.029 A 
ATOM     24  C   UNL d   1     -45.437  10.398  23.693  0.00  0.00     0.030 A 
ENDBRANCH   4  20
TORSDOF 6
ENDMDL
MODEL 3
REMARK VINA RESULT:      -5.3      1.272      1.743
REMARK  6 active torsions:
REMARK  status: ('A' for Active; 'I' for Inactive)
REMARK    1  A    between atoms: S_3  and  C_1 
REMARK    2  A    between atoms: C_11  and  S_3 
REMARK    3  A    between atoms: S_8  and  C_4 
REMARK    4  A    between atoms: C_7  and  C_5 
REMARK    5  A    between atoms: C_16  and  S_8 
REMARK    6  A    between atoms: C_19  and  C_16 
ROOT
ATOM      1  C   UNL d   1     -47.519  12.877  22.677  0.00  0.00     0.200 A 
ATOM      2  N   UNL d   1     -46.806  12.481  22.541  0.00  0.00    -0.206 NA
ATOM      3  C   UNL d   1     -47.366  13.691  22.661  0.00  0.00     0.160 A 
ATOM      4  C   UNL d   1     -46.209  13.050  22.441  0.00  0.00     0.207 A 
ATOM      5  O   UNL d   1     -46.563  13.793  22.516  0.00  0.00    -0.279 OA
ENDROOT
BRANCH   1   6
ATOM      6  S   UNL d   1     -48.252  12.515  22.805  0.00  0.00     0.229 S 
ATOM      7  O   UNL d   1     -48.145  12.678  23.604  0.00  0.00    -0.215 OA
ATOM      8  O   UNL d   1     -48.364  12.349  22.005  0.00  0.00    -0.215 OA
BRANCH   6   9
ATOM      9  C   UNL d   1     -48.986  12.151  22.924  0.00  0.00     0.089 A 
ATOM     10  C   UNL d   1     -49.612  12.276  22.393  0.00  0.00     0.011 A 
ATOM     11  C   UNL d   1     -50.332  11.916  22.514  0.00  0.00     0.001 A 
ATOM     12  C   UNL d   1     -50.442  11.425  23.166  0.00  0.00     0.000 A 
ATOM     13  C   UNL d   1     -49.829  11.296  23.695  0.00  0.00     0.001 A 
ATOM     14  C   UNL d   1     -49.098  11.657  23.579  0.00  0.00     0.011 A 
ENDBRANCH   6   9
ENDBRANCH   1   6
BRANCH   3  15
ATOM     15  S   UNL d   1     -47.923  14.291  22.771  0.00  0.00    -0.060 SA
BRANCH  15  16
ATOM     16  C   UNL d   1     -47.752  15.059  22.519  0.00  0.00     0.037 C 
BRANCH  16  17
ATOM     17  C   UNL d   1     -48.361  15.600  22.389  0.00  0.00     0.006 C 
ATOM     18  C   UNL d   1     -48.491  15.893  21.628  0.00  0.00     0.001 C 
ATOM     19  C   UNL d   1     -48.833  15.841  23.018  0.00  0.00     0.001 C 
ENDBRANCH  16  17
ENDBRANCH  15  16
ENDBRANCH   3  15
BRANCH   4  20
ATOM     20  C   UNL d   1     -45.408  12.896  22.292  0.00  0.00     0.141 A 
ATOM     21  O   UNL d   1     -44.948  12.297  22.640  0.00  0.00    -0.302 OA
ATOM     22  C   UNL d   1     -44.193  12.344  22.338  0.00  0.00     0.123 A 
ATOM     23  C   UNL d   1     -44.163  12.967  21.800  0.00  0.00     0.029 A 
ATOM     24  C   UNL d   1     -44.912  13.309  21.770  0.00  0.00     0.030 A 
ENDBRANCH   4  20
TORSDOF 6
ENDMDL
MODEL 4
REMARK VINA RESULT:      -4.8      1.653      2.968
REMARK  6 active torsions:
REMARK  status: ('A' for Active; 'I' for Inactive)
REMARK    1  A    between atoms: S_3  and  C_1 
REMARK    2  A    between atoms: C_11  and  S_3 
REMARK    3  A    between atoms: S_8  and  C_4 
REMARK    4  A    between atoms: C_7  and  C_5 
REMARK    5  A    between atoms: C_16  and  S_8 
REMARK    6  A    between atoms: C_19  and  C_16 
ROOT
ATOM      1  C   UNL d   1     -47.225  13.603  22.629  0.00  0.00     0.200 A 
ATOM      2  N   UNL d   1     -46.445  13.758  22.400  0.00  0.00    -0.206 NA
ATOM      3  C   UNL d   1     -47.294  12.787  22.762  0.00  0.00     0.160 A 
ATOM      4  C   UNL d   1     -46.031  13.038  22.389  0.00  0.00     0.207 A 
ATOM      5  O   UNL d   1     -46.561  12.445  22.614  0.00  0.00    -0.279 OA
ENDROOT
BRANCH   1   6
ATOM      6  S   UNL d   1     -47.823  14.168  22.710  0.00  0.00     0.229 S 
ATOM      7  O   UNL d   1     -47.970  14.065  21.907  0.00  0.00    -0.215 OA
ATOM      8  O   UNL d   1     -47.679  14.275  23.515  0.00  0.00    -0.215 OA
BRANCH   6   9
ATOM      9  C   UNL d   1     -48.419  14.735  22.800  0.00  0.00     0.089 A 
ATOM     10  C   UNL d   1     -48.516  15.342  22.242  0.00  0.00     0.011 A 
ATOM     11  C   UNL d   1     -49.104  15.897  22.336  0.00  0.00     0.001 A 
ATOM     12  C   UNL d   1     -49.607  15.857  22.987  0.00  0.00     0.000 A 
ATOM     13  C   UNL d   1     -49.519  15.261  23.543  0.00  0.00     0.001 A 
ATOM     14  C   UNL d   1     -48.926  14.696  23.454  0.00  0.00     0.011 A 
ENDBRANCH   6   9
ENDBRANCH   1   6
BRANCH   3  15
ATOM     15  S   UNL d   1     -47.979  12.392  23.000  0.00  0.00    -0.060 SA
BRANCH  15  16
ATOM     16  C   UNL d   1     -48.048  11.578  22.869  0.00  0.00     0.037 C 
BRANCH  16  17
ATOM     17  C   UNL d   1     -48.779  11.205  22.948  0.00  0.00     0.006 C 
ATOM     18  C   UNL d   1     -49.229  11.042  22.275  0.00  0.00     0.001 C 
ATOM     19  C   UNL d   1     -49.054  10.999  23.696  0.00  0.00     0.001 C 
ENDBRANCH  16  17
ENDBRANCH  15  16
ENDBRANCH   3  15
BRANCH   4  20
ATOM     20  C   UNL d   1     -45.232  12.938  22.190  0.00  0.00     0.141 A 
ATOM     21  O   UNL d   1     -44.762  13.468  21.755  0.00  0.00    -0.302 OA
ATOM     22  C   UNL d   1     -44.013  13.154  21.688  0.00  0.00     0.123 A 
ATOM     23  C   UNL d   1     -43.998  12.426  22.075  0.00  0.00     0.029 A 
ATOM     24  C   UNL d   1     -44.749  12.292  22.385  0.00  0.00     0.030 A 
ENDBRANCH   4  20
TORSDOF 6
ENDMDL
MODEL 5
REMARK VINA RESULT:      -4.3      1.901      3.046
REMARK  6 active torsions:
REMARK  status: ('A' for Active; 'I' for Inactive)
REMARK    1  A    between atoms: S_3  and  C_1 
REMARK    2  A    between atoms: C_11  and  S_3 
REMARK    3  A    between atoms: S_8  and  C_4 
REMARK    4  A    between atoms: C_7  and  C_5 
REMARK    5  A    between atoms: C_16  and  S_8 
REMARK    6  A    between atoms: C_19  and  C_16 
ROOT
ATOM      1  C   UNL d   1     -46.469  13.467  22.290  0.00  0.00     0.200 A 
ATOM      2  N   UNL d   1     -45.774  13.701  21.907  0.00  0.00    -0.206 NA
ATOM      3  C   UNL d   1     -46.312  12.761  22.695  0.00  0.00     0.160 A 
ATOM      4  C   UNL d   1     -45.185  13.140  22.075  0.00  0.00     0.207 A 
ATOM      5  O   UNL d   1     -45.524  12.564  22.561  0.00  0.00    -0.279 OA
ENDROOT
BRANCH   1   6
ATOM      6  S   UNL d   1     -47.189  13.872  22.266  0.00  0.00     0.229 S 
ATOM      7  O   UNL d   1     -47.376  13.417  21.607  0.00  0.00    -0.215 OA
ATOM      8  O   UNL d   1     -47.008  14.330  22.927  0.00  0.00    -0.215 OA
BRANCH   6   9
ATOM      9  C   UNL d   1     -47.908  14.282  22.251  0.00  0.00     0.089 A 
ATOM     10  C   UNL d   1     -48.564  13.975  21.844  0.00  0.00     0.011 A 
ATOM     11  C   UNL d   1     -49.268  14.383  21.833  0.00  0.00     0.001 A 
ATOM     12  C   UNL d   1     -49.332  15.104  22.225  0.00  0.00     0.000 A 
ATOM     13  C   UNL d   1     -48.690  15.416  22.628  0.00  0.00     0.001 A 
ATOM     14  C   UNL d   1     -47.974  15.008  22.645  0.00  0.00     0.011 A 
ENDBRANCH   6   9
ENDBRANCH   1   6
BRANCH   3  15
ATOM     15  S   UNL d   1     -46.851  12.334  23.151  0.00  0.00    -0.060 SA
BRANCH  15  16
ATOM     16  C   UNL d   1     -46.575  11.778  23.697  0.00  0.00     0.037 C 
BRANCH  16  17
ATOM     17  C   UNL d   1     -46.861  11.004  23.683  0.00  0.00     0.006 C 
ATOM     18  C   UNL d   1     -46.329  10.372  23.684  0.00  0.00     0.001 C 
ATOM     19  C   UNL d   1     -47.673  10.868  23.666  0.00  0.00     0.001 C 
ENDBRANCH  16  17
ENDBRANCH  15  16
ENDBRANCH   3  15
BRANCH   4  20
ATOM     20  C   UNL d   1     -44.402  13.158  21.803  0.00  0.00     0.141 A 
ATOM     21  O   UNL d   1     -43.924  13.834  21.722  0.00  0.00    -0.302 OA
ATOM     22  C   UNL d   1     -43.196  13.602  21.437  0.00  0.00     0.123 A 
ATOM     23  C   UNL d   1     -43.202  12.785  21.336  0.00  0.00     0.029 A 
ATOM     24  C   UNL d   1     -43.945  12.509  21.561  0.00  0.00     0.030 A 
ENDBRANCH   4  20
TORSDOF 6
ENDMDL
MODEL 6
REMARK VINA RESULT:      -3.8      1.848      4.669
REMARK  6 active torsions:
REMARK  status: ('A' for Active; 'I' for Inactive)
REMARK    1  A    between atoms: S_3  and  C_1 
REMARK    2  A    between atoms: C_11  and  S_3 
REMARK    3  A    between atoms: S_8  and  C_4 
REMARK    4  A    between atoms: C_7  and  C_5 
REMARK    5  A    between atoms: C_16  and  S_8 
REMARK    6  A    between atoms: C_19  and  C_16 
ROOT
ATOM      1  C   UNL d   1     -46.660  13.488  22.527  0.00  0.00     0.200 A 
ATOM      2  N   UNL d   1     -47.019  14.218  22.377  0.00  0.00    -0.206 NA
ATOM      3  C   UNL d   1     -47.213  13.008  22.916  0.00  0.00     0.160 A 
ATOM      4  C   UNL d   1     -47.795  14.191  22.672  0.00  0.00     0.207 A 
ATOM      5  O   UNL d   1     -47.906  13.442  23.003  0.00  0.00    -0.279 OA
ENDROOT
BRANCH   1   6
ATOM      6  S   UNL d   1     -45.886  13.283  22.323  0.00  0.00     0.229 S 
ATOM      7  O   UNL d   1     -45.646  13.678  23.003  0.00  0.00    -0.215 OA
ATOM      8  O   UNL d   1     -46.121  12.885  21.640  0.00  0.00    -0.215 OA
BRANCH   6   9
ATOM      9  C   UNL d   1     -45.114  13.072  22.110  0.00  0.00     0.089 A 
ATOM     10  C   UNL d   1     -44.789  12.348  22.355  0.00  0.00     0.011 A 
ATOM     11  C   UNL d   1     -44.030  12.145  22.143  0.00  0.00     0.001 A 
ATOM     12  C   UNL d   1     -43.580  12.660  21.683  0.00  0.00     0.000 A 
ATOM     13  C   UNL d   1     -43.893  13.376  21.436  0.00  0.00     0.001 A 
ATOM     14  C   UNL d   1     -44.661  13.588  21.647  0.00  0.00     0.011 A 
ENDBRANCH   6   9
ENDBRANCH   1   6
BRANCH   3  15
ATOM     15  S   UNL d   1     -47.087  12.233  23.170  0.00  0.00    -0.060 SA
BRANCH  15  16
ATOM     16  C   UNL d   1     -47.620  11.883  23.697  0.00  0.00     0.037 C 
BRANCH  16  17
ATOM     17  C   UNL d   1     -47.737  11.066  23.689  0.00  0.00     0.006 C 
ATOM     18  C   UNL d   1     -47.085  10.560  23.691  0.00  0.00     0.001 C 
ATOM     19  C   UNL d   1     -48.503  10.764  23.678  0.00  0.00     0.001 C 
ENDBRANCH  16  17
ENDBRANCH  15  16
ENDBRANCH   3  15
BRANCH   4  20
ATOM     20  C   UNL d   1     -48.351  14.805  22.639  0.00  0.00     0.141 A 
ATOM     21  O   UNL d   1     -49.020  14.890  23.125  0.00  0.00    -0.302 OA
ATOM     22  C   UNL d   1     -49.414  15.569  22.905  0.00  0.00     0.123 A 
ATOM     23  C   UNL d   1     -49.005  15.920  22.282  0.00  0.00     0.029 A 
ATOM     24  C   UNL d   1     -48.349  15.450  22.116  0.00  0.00     0.030 A 
ENDBRANCH   4  20
TORSDOF 6
ENDMDL
MODEL 7
REMARK VINA RESULT:      -3.7      6.205      8.298
REMARK  6 active torsions:
REMARK  status: ('A' for Active; 'I' for Inactive)
REMARK    1  A    between atoms: S_3  and  C_1 
REMARK    2  A    between atoms: C_11  and  S_3 
REMARK    3  A    between atoms: S_8  and  C_4 
REMARK    4  A    between atoms: C_7  and  C_5 
REMARK    5  A    between atoms: C_16  and  S_8 
REMARK    6  A    between atoms: C_19  and  C_16 
ROOT
ATOM      1  C   UNL d   1     -40.742  14.164  20.964  0.00  0.00     0.200 A 
ATOM      2  N   UNL d   1     -41.368  13.864  21.414  0.00  0.00    -0.206 NA
ATOM      3  C   UNL d   1     -40.943  14.082  20.163  0.00  0.00     0.160 A 
ATOM      4  C   UNL d   1     -41.957  13.596  20.894  0.00  0.00     0.207 A 
ATOM      5  O   UNL d   1     -41.687  13.734  20.125  0.00  0.00    -0.279 OA
ENDROOT
BRANCH   1   6
ATOM      6  S   UNL d   1     -40.044  14.486  21.267  0.00  0.00     0.229 S 
ATOM      7  O   UNL d   1     -40.436  15.209  21.285  0.00  0.00    -0.215 OA
ATOM      8  O   UNL d   1     -39.647  13.764  21.251  0.00  0.00    -0.215 OA
BRANCH   6   9
ATOM      9  C   UNL d   1     -39.341  14.800  21.570  0.00  0.00     0.089 A 
ATOM     10  C   UNL d   1     -39.201  15.619  21.557  0.00  0.00     0.011 A 
ATOM     11  C   UNL d   1     -38.507  15.922  21.857  0.00  0.00     0.001 A 
ATOM     12  C   UNL d   1     -37.940  15.416  22.174  0.00  0.00     0.000 A 
ATOM     13  C   UNL d   1     -38.069  14.606  22.190  0.00  0.00     0.001 A 
ATOM     14  C   UNL d   1     -38.769  14.293  21.889  0.00  0.00     0.011 A 
ENDBRANCH   6   9
ENDBRANCH   1   6
BRANCH   3  15
ATOM     15  S   UNL d   1     -40.476  14.310  19.522  0.00  0.00    -0.060 SA
BRANCH  15  16
ATOM     16  C   UNL d   1     -40.773  14.238  18.753  0.00  0.00     0.037 C 
BRANCH  16  17
ATOM     17  C   UNL d   1     -40.308  14.452  18.106  0.00  0.00     0.006 C 
ATOM     18  C   UNL d   1     -40.443  15.175  17.729  0.00  0.00     0.001 C 
ATOM     19  C   UNL d   1     -39.716  13.945  17.843  0.00  0.00     0.001 C 
ENDBRANCH  16  17
ENDBRANCH  15  16
ENDBRANCH   3  15
BRANCH   4  20
ATOM     20  C   UNL d   1     -42.681  13.254  21.109  0.00  0.00     0.141 A 
ATOM     21  O   UNL d   1     -42.937  12.485  20.923  0.00  0.00    -0.302 OA
ATOM     22  C   UNL d   1     -43.679  12.376  21.242  0.00  0.00     0.123 A 
ATOM     23  C   UNL d   1     -43.901  13.067  21.633  0.00  0.00     0.029 A 
ATOM     24  C   UNL d   1     -43.286  13.610  21.551  0.00  0.00     0.030 A 
ENDBRANCH   4  20
TORSDOF 6
ENDMDL
MODEL 8
REMARK VINA RESULT:      -3.4      1.287      3.729
REMARK  6 active torsions:
REMARK  status: ('A' for Active; 'I' for Inactive)
REMARK    1  A    between atoms: S_3  and  C_1 
REMARK    2  A    between atoms: C_11  and  S_3 
REMARK    3  A    between atoms: S_8  and  C_4 
REMARK    4  A    between atoms: C_7  and  C_5 
REMARK    5  A    between atoms: C_16  and  S_8 
REMARK    6  A    between atoms: C_19  and  C_16 
ROOT
ATOM      1  C   UNL d   1     -47.808  12.724  22.858  0.00  0.00     0.200 A 
ATOM      2  N   UNL d   1     -48.311  12.097  23.052  0.00  0.00    -0.206 NA
ATOM      3  C   UNL d   1     -48.268  13.412  22.803  0.00  0.00     0.160 A 
ATOM      4  C   UNL d   1     -49.084  12.395  23.117  0.00  0.00     0.207 A 
ATOM      5  O   UNL d   1     -49.048  13.206  22.962  0.00  0.00    -0.279 OA
ENDROOT
BRANCH   1   6
ATOM      6  S   UNL d   1     -46.992  12.666  22.741  0.00  0.00     0.229 S 
ATOM      7  O   UNL d   1     -46.904  12.942  23.510  0.00  0.00    -0.215 OA
ATOM      8  O   UNL d   1     -47.074  12.388  21.969  0.00  0.00    -0.215 OA
BRANCH   6   9
ATOM      9  C   UNL d   1     -46.176  12.604  22.614  0.00  0.00     0.089 A 
ATOM     10  C   UNL d   1     -45.721  12.051  23.036  0.00  0.00     0.011 A 
ATOM     11  C   UNL d   1     -44.920  11.995  22.908  0.00  0.00     0.001 A 
ATOM     12  C   UNL d   1     -44.556  12.488  22.357  0.00  0.00     0.000 A 
ATOM     13  C   UNL d   1     -44.996  13.036  21.936  0.00  0.00     0.001 A 
ATOM     14  C   UNL d   1     -45.808  13.099  22.061  0.00  0.00     0.011 A 
ENDBRANCH   6   9
ENDBRANCH   1   6
BRANCH   3  15
ATOM     15  S   UNL d   1     -47.989  14.167  22.620  0.00  0.00    -0.060 SA
BRANCH  15  16
ATOM     16  C   UNL d   1     -48.487  14.706  22.240  0.00  0.00     0.037 C 
BRANCH  16  17
ATOM     17  C   UNL d   1     -48.467  15.505  22.443  0.00  0.00     0.006 C 
ATOM     18  C   UNL d   1     -49.164  15.885  22.674  0.00  0.00     0.001 C 
ATOM     19  C   UNL d   1     -47.755  15.917  22.413  0.00  0.00     0.001 C 
ENDBRANCH  16  17
ENDBRANCH  15  16
ENDBRANCH   3  15
BRANCH   4  20
ATOM     20  C   UNL d   1     -49.762  11.957  23.304  0.00  0.00     0.141 A 
ATOM     21  O   UNL d   1     -49.782  11.174  23.586  0.00  0.00    -0.302 OA
ATOM     22  C   UNL d   1     -50.560  10.960  23.697  0.00  0.00     0.123 A 
ATOM     23  C   UNL d   1     -51.041  11.596  23.488  0.00  0.00     0.029 A 
ATOM     24  C   UNL d   1     -50.550  12.212  23.246  0.00  0.00     0.030 A 
ENDBRANCH   4  20
TORSDOF 6
ENDMDL
