MODEL 1
REMARK VINA RESULT:      -8.9      0.000      0.000
REMARK  3 active torsions:
REMARK  status: ('A' for Active; 'I' for Inactive)
REMARK    1  A    between atoms: S_7  and  C_1 
REMARK    2  A    between atoms: C_16  and  N_2 
REMARK    3  A    between atoms: C_4  and  S_7 
ROOT
ATOM      1  S   UNL d   1     -48.722  13.109  22.859  0.00  0.00    -0.028 SA
ENDROOT
BRANCH   1   2
ATOM      2  C   UNL d   1     -49.450  13.173  22.401  0.00  0.00     0.117 A 
ATOM      3  C   UNL d   1     -49.952  13.808  22.528  0.00  0.00     0.048 A 
ATOM      4  C   UNL d   1     -50.656  13.869  22.086  0.00  0.00     0.114 A 
ATOM      5  C   UNL d   1     -49.930  14.460  23.032  0.00  0.00     0.010 A 
ATOM      6  S   UNL d   1     -51.036  14.556  22.336  0.00  0.00    -0.068 SA
ATOM      7  N   UNL d   1     -50.833  13.292  21.531  0.00  0.00    -0.217 NA
ATOM      8  C   UNL d   1     -50.561  14.911  22.930  0.00  0.00     0.031 A 
ATOM      9  C   UNL d   1     -50.735  15.637  23.353  0.00  0.00     0.007 C 
ATOM     10  C   UNL d   1     -50.327  12.640  21.394  0.00  0.00     0.200 A 
ATOM     11  N   UNL d   1     -49.623  12.579  21.837  0.00  0.00    -0.217 NA
ATOM     12  C   UNL d   1     -49.311  14.641  23.596  0.00  0.00     0.001 C 
ENDBRANCH   1   2
BRANCH   1  13
ATOM     13  C   UNL d   1     -48.478  12.354  23.125  0.00  0.00     0.220 A 
ATOM     14  N   UNL d   1     -47.659  12.133  23.220  0.00  0.00    -0.186 N 
ATOM     15  N   UNL d   1     -47.625  11.354  23.490  0.00  0.00    -0.038 NA
ATOM     16  N   UNL d   1     -48.404  11.085  23.565  0.00  0.00    -0.022 NA
ATOM     17  N   UNL d   1     -48.927  11.696  23.342  0.00  0.00    -0.101 NA
BRANCH  14  18
ATOM     18  C   UNL d   1     -47.075  12.701  23.038  0.00  0.00     0.087 A 
ATOM     19  C   UNL d   1     -46.849  13.119  23.523  0.00  0.00     0.019 A 
ATOM     20  C   UNL d   1     -46.283  13.671  23.351  0.00  0.00     0.002 A 
ATOM     21  C   UNL d   1     -45.953  13.753  22.574  0.00  0.00     0.000 A 
ATOM     22  C   UNL d   1     -46.181  13.346  22.122  0.00  0.00     0.002 A 
ATOM     23  C   UNL d   1     -46.746  12.783  22.261  0.00  0.00     0.019 A 
ENDBRANCH  14  18
ENDBRANCH   1  13
TORSDOF 3
ENDMDL
MODEL 2
REMARK VINA RESULT:      -8.8      0.923      3.659
REMARK  3 active torsions:
REMARK  status: ('A' for Active; 'I' for Inactive)
REMARK    1  A    between atoms: S_7  and  C_1 
REMARK    2  A    between atoms: C_16  and  N_2 
REMARK    3  A    between atoms: C_4  and  S_7 
ROOT
ATOM      1  S   UNL d   1     -49.006  13.349  22.688  0.00  0.00    -0.028 SA
ENDROOT
BRANCH   1   2
ATOM      2  C   UNL d   1     -48.749  12.603  23.036  0.00  0.00     0.117 A 
ATOM      3  C   UNL d   1     -47.948  12.447  23.107  0.00  0.00     0.048 A 
ATOM      4  C   UNL d   1     -47.700  11.726  23.444  0.00  0.00     0.114 A 
ATOM      5  C   UNL d   1     -47.265  12.865  22.910  0.00  0.00     0.010 A 
ATOM      6  S   UNL d   1     -46.876  11.732  23.439  0.00  0.00    -0.068 SA
ATOM      7  N   UNL d   1     -48.262  11.186  23.698  0.00  0.00    -0.217 NA
ATOM      8  C   UNL d   1     -46.626  12.457  23.100  0.00  0.00     0.031 A 
ATOM      9  C   UNL d   1     -45.814  12.709  22.980  0.00  0.00     0.007 C 
ATOM     10  C   UNL d   1     -49.082  11.337  23.629  0.00  0.00     0.200 A 
ATOM     11  N   UNL d   1     -49.330  12.058  23.293  0.00  0.00    -0.217 NA
ATOM     12  C   UNL d   1     -47.236  13.641  22.547  0.00  0.00     0.001 C 
ENDBRANCH   1   2
BRANCH   1  13
ATOM     13  C   UNL d   1     -49.632  13.340  22.132  0.00  0.00     0.220 A 
ATOM     14  N   UNL d   1     -50.190  13.980  22.044  0.00  0.00    -0.186 N 
ATOM     15  N   UNL d   1     -50.727  13.783  21.449  0.00  0.00    -0.038 NA
ATOM     16  N   UNL d   1     -50.516  13.035  21.165  0.00  0.00    -0.022 NA
ATOM     17  N   UNL d   1     -49.846  12.763  21.582  0.00  0.00    -0.101 NA
BRANCH  14  18
ATOM     18  C   UNL d   1     -50.103  14.647  22.538  0.00  0.00     0.087 A 
ATOM     19  C   UNL d   1     -49.650  15.128  22.379  0.00  0.00     0.019 A 
ATOM     20  C   UNL d   1     -49.563  15.776  22.855  0.00  0.00     0.002 A 
ATOM     21  C   UNL d   1     -50.022  15.884  23.560  0.00  0.00     0.000 A 
ATOM     22  C   UNL d   1     -50.450  15.416  23.698  0.00  0.00     0.002 A 
ATOM     23  C   UNL d   1     -50.563  14.755  23.243  0.00  0.00     0.019 A 
ENDBRANCH  14  18
ENDBRANCH   1  13
TORSDOF 3
ENDMDL
MODEL 3
REMARK VINA RESULT:      -7.4      1.217      3.466
REMARK  3 active torsions:
REMARK  status: ('A' for Active; 'I' for Inactive)
REMARK    1  A    between atoms: S_7  and  C_1 
REMARK    2  A    between atoms: C_16  and  N_2 
REMARK    3  A    between atoms: C_4  and  S_7 
ROOT
ATOM      1  S   UNL d   1     -48.749  12.654  22.843  0.00  0.00    -0.028 SA
ENDROOT
BRANCH   1   2
ATOM      2  C   UNL d   1     -47.909  12.465  22.903  0.00  0.00     0.117 A 
ATOM      3  C   UNL d   1     -47.359  13.072  22.901  0.00  0.00     0.048 A 
ATOM      4  C   UNL d   1     -46.548  12.889  22.958  0.00  0.00     0.114 A 
ATOM      5  C   UNL d   1     -47.415  13.893  22.851  0.00  0.00     0.010 A 
ATOM      6  S   UNL d   1     -46.140  13.605  22.942  0.00  0.00    -0.068 SA
ATOM      7  N   UNL d   1     -46.315  12.105  23.016  0.00  0.00    -0.217 NA
ATOM      8  C   UNL d   1     -46.706  14.221  22.874  0.00  0.00     0.031 A 
ATOM      9  C   UNL d   1     -46.539  15.062  22.836  0.00  0.00     0.007 C 
ATOM     10  C   UNL d   1     -46.870  11.479  23.020  0.00  0.00     0.200 A 
ATOM     11  N   UNL d   1     -47.681  11.661  22.962  0.00  0.00    -0.217 NA
ATOM     12  C   UNL d   1     -48.140  14.346  22.783  0.00  0.00     0.001 C 
ENDBRANCH   1   2
BRANCH   1  13
ATOM     13  C   UNL d   1     -49.308  12.089  23.105  0.00  0.00     0.220 A 
ATOM     14  N   UNL d   1     -50.120  12.076  22.840  0.00  0.00    -0.186 N 
ATOM     15  N   UNL d   1     -50.509  11.448  23.209  0.00  0.00    -0.038 NA
ATOM     16  N   UNL d   1     -49.958  11.070  23.698  0.00  0.00    -0.022 NA
ATOM     17  N   UNL d   1     -49.223  11.461  23.635  0.00  0.00    -0.101 NA
BRANCH  14  18
ATOM     18  C   UNL d   1     -50.364  12.657  22.293  0.00  0.00     0.087 A 
ATOM     19  C   UNL d   1     -50.237  12.570  21.631  0.00  0.00     0.019 A 
ATOM     20  C   UNL d   1     -50.471  13.131  21.097  0.00  0.00     0.002 A 
ATOM     21  C   UNL d   1     -50.877  13.837  21.332  0.00  0.00     0.000 A 
ATOM     22  C   UNL d   1     -50.990  13.905  21.968  0.00  0.00     0.002 A 
ATOM     23  C   UNL d   1     -50.769  13.363  22.529  0.00  0.00     0.019 A 
ENDBRANCH  14  18
ENDBRANCH   1  13
TORSDOF 3
ENDMDL
MODEL 4
REMARK VINA RESULT:      -7.4      1.664      2.420
REMARK  3 active torsions:
REMARK  status: ('A' for Active; 'I' for Inactive)
REMARK    1  A    between atoms: S_7  and  C_1 
REMARK    2  A    between atoms: C_16  and  N_2 
REMARK    3  A    between atoms: C_4  and  S_7 
ROOT
ATOM      1  S   UNL d   1     -48.324  13.984  22.592  0.00  0.00    -0.028 SA
ENDROOT
BRANCH   1   2
ATOM      2  C   UNL d   1     -49.098  14.300  22.806  0.00  0.00     0.117 A 
ATOM      3  C   UNL d   1     -49.765  14.030  22.413  0.00  0.00     0.048 A 
ATOM      4  C   UNL d   1     -50.513  14.336  22.620  0.00  0.00     0.114 A 
ATOM      5  C   UNL d   1     -49.890  13.483  21.810  0.00  0.00     0.010 A 
ATOM      6  S   UNL d   1     -51.064  13.962  22.135  0.00  0.00    -0.068 SA
ATOM      7  N   UNL d   1     -50.567  14.899  23.212  0.00  0.00    -0.217 NA
ATOM      8  C   UNL d   1     -50.650  13.431  21.635  0.00  0.00     0.031 A 
ATOM      9  C   UNL d   1     -50.996  12.922  21.037  0.00  0.00     0.007 C 
ATOM     10  C   UNL d   1     -49.891  15.181  23.619  0.00  0.00     0.200 A 
ATOM     11  N   UNL d   1     -49.143  14.875  23.412  0.00  0.00    -0.217 NA
ATOM     12  C   UNL d   1     -49.285  13.021  21.415  0.00  0.00     0.001 C 
ENDBRANCH   1   2
BRANCH   1  13
ATOM     13  C   UNL d   1     -47.662  14.496  22.606  0.00  0.00     0.220 A 
ATOM     14  N   UNL d   1     -46.864  14.226  22.747  0.00  0.00    -0.186 N 
ATOM     15  N   UNL d   1     -46.357  14.877  22.722  0.00  0.00    -0.038 NA
ATOM     16  N   UNL d   1     -46.821  15.545  22.569  0.00  0.00    -0.022 NA
ATOM     17  N   UNL d   1     -47.620  15.313  22.498  0.00  0.00    -0.101 NA
BRANCH  14  18
ATOM     18  C   UNL d   1     -46.742  13.411  22.875  0.00  0.00     0.087 A 
ATOM     19  C   UNL d   1     -46.482  13.027  22.379  0.00  0.00     0.019 A 
ATOM     20  C   UNL d   1     -46.362  12.236  22.500  0.00  0.00     0.002 A 
ATOM     21  C   UNL d   1     -46.551  11.857  23.234  0.00  0.00     0.000 A 
ATOM     22  C   UNL d   1     -46.799  12.238  23.698  0.00  0.00     0.002 A 
ATOM     23  C   UNL d   1     -46.931  13.033  23.610  0.00  0.00     0.019 A 
ENDBRANCH  14  18
ENDBRANCH   1  13
TORSDOF 3
ENDMDL
MODEL 5
REMARK VINA RESULT:      -6.3      9.096     10.442
REMARK  3 active torsions:
REMARK  status: ('A' for Active; 'I' for Inactive)
REMARK    1  A    between atoms: S_7  and  C_1 
REMARK    2  A    between atoms: C_16  and  N_2 
REMARK    3  A    between atoms: C_4  and  S_7 
ROOT
ATOM      1  S   UNL d   1     -39.490  14.463  19.416  0.00  0.00    -0.028 SA
ENDROOT
BRANCH   1   2
ATOM      2  C   UNL d   1     -39.684  14.812  20.182  0.00  0.00     0.117 A 
ATOM      3  C   UNL d   1     -39.293  14.551  20.853  0.00  0.00     0.048 A 
ATOM      4  C   UNL d   1     -39.480  14.888  21.592  0.00  0.00     0.114 A 
ATOM      5  C   UNL d   1     -38.707  13.988  20.990  0.00  0.00     0.010 A 
ATOM      6  S   UNL d   1     -39.001  14.517  22.151  0.00  0.00    -0.068 SA
ATOM      7  N   UNL d   1     -40.052  15.473  21.634  0.00  0.00    -0.217 NA
ATOM      8  C   UNL d   1     -38.524  13.956  21.750  0.00  0.00     0.031 A 
ATOM      9  C   UNL d   1     -37.940  13.438  22.106  0.00  0.00     0.007 C 
ATOM     10  C   UNL d   1     -40.457  15.745  20.954  0.00  0.00     0.200 A 
ATOM     11  N   UNL d   1     -40.269  15.409  20.215  0.00  0.00    -0.217 NA
ATOM     12  C   UNL d   1     -38.334  13.494  20.397  0.00  0.00     0.001 C 
ENDBRANCH   1   2
BRANCH   1  13
ATOM     13  C   UNL d   1     -40.114  14.266  18.895  0.00  0.00     0.220 A 
ATOM     14  N   UNL d   1     -40.040  14.297  18.044  0.00  0.00    -0.186 N 
ATOM     15  N   UNL d   1     -40.759  14.068  17.708  0.00  0.00    -0.038 NA
ATOM     16  N   UNL d   1     -41.277  13.895  18.329  0.00  0.00    -0.022 NA
ATOM     17  N   UNL d   1     -40.883  14.015  19.056  0.00  0.00    -0.101 NA
BRANCH  14  18
ATOM     18  C   UNL d   1     -39.309  14.537  17.722  0.00  0.00     0.087 A 
ATOM     19  C   UNL d   1     -38.833  14.072  17.583  0.00  0.00     0.019 A 
ATOM     20  C   UNL d   1     -38.123  14.300  17.271  0.00  0.00     0.002 A 
ATOM     21  C   UNL d   1     -37.942  15.111  17.105  0.00  0.00     0.000 A 
ATOM     22  C   UNL d   1     -38.407  15.543  17.243  0.00  0.00     0.002 A 
ATOM     23  C   UNL d   1     -39.128  15.349  17.556  0.00  0.00     0.019 A 
ENDBRANCH  14  18
ENDBRANCH   1  13
TORSDOF 3
ENDMDL
MODEL 6
REMARK VINA RESULT:      -6.0      2.024      4.346
REMARK  3 active torsions:
REMARK  status: ('A' for Active; 'I' for Inactive)
REMARK    1  A    between atoms: S_7  and  C_1 
REMARK    2  A    between atoms: C_16  and  N_2 
REMARK    3  A    between atoms: C_4  and  S_7 
ROOT
ATOM      1  S   UNL d   1     -47.128  13.050  22.805  0.00  0.00    -0.028 SA
ENDROOT
BRANCH   1   2
ATOM      2  C   UNL d   1     -46.294  12.972  22.600  0.00  0.00     0.117 A 
ATOM      3  C   UNL d   1     -45.886  12.298  22.826  0.00  0.00     0.048 A 
ATOM      4  C   UNL d   1     -45.079  12.222  22.628  0.00  0.00     0.114 A 
ATOM      5  C   UNL d   1     -46.095  11.615  23.238  0.00  0.00     0.010 A 
ATOM      6  S   UNL d   1     -44.828  11.496  22.927  0.00  0.00    -0.068 SA
ATOM      7  N   UNL d   1     -44.710  12.823  22.211  0.00  0.00    -0.217 NA
ATOM      8  C   UNL d   1     -45.483  11.133  23.306  0.00  0.00     0.031 A 
ATOM      9  C   UNL d   1     -45.484  10.370  23.698  0.00  0.00     0.007 C 
ATOM     10  C   UNL d   1     -45.118  13.514  21.976  0.00  0.00     0.200 A 
ATOM     11  N   UNL d   1     -45.925  13.590  22.174  0.00  0.00    -0.217 NA
ATOM     12  C   UNL d   1     -46.870  11.436  23.557  0.00  0.00     0.001 C 
ENDBRANCH   1   2
BRANCH   1  13
ATOM     13  C   UNL d   1     -47.467  13.815  22.827  0.00  0.00     0.220 A 
ATOM     14  N   UNL d   1     -48.293  13.966  22.667  0.00  0.00    -0.186 N 
ATOM     15  N   UNL d   1     -48.431  14.777  22.738  0.00  0.00    -0.038 NA
ATOM     16  N   UNL d   1     -47.711  15.134  22.937  0.00  0.00    -0.022 NA
ATOM     17  N   UNL d   1     -47.121  14.546  22.991  0.00  0.00    -0.101 NA
BRANCH  14  18
ATOM     18  C   UNL d   1     -48.782  13.317  22.482  0.00  0.00     0.087 A 
ATOM     19  C   UNL d   1     -49.084  12.969  22.981  0.00  0.00     0.019 A 
ATOM     20  C   UNL d   1     -49.559  12.338  22.806  0.00  0.00     0.002 A 
ATOM     21  C   UNL d   1     -49.701  12.087  22.009  0.00  0.00     0.000 A 
ATOM     22  C   UNL d   1     -49.405  12.430  21.543  0.00  0.00     0.002 A 
ATOM     23  C   UNL d   1     -48.924  13.066  21.684  0.00  0.00     0.019 A 
ENDBRANCH  14  18
ENDBRANCH   1  13
TORSDOF 3
ENDMDL
