MODEL 1
REMARK VINA RESULT:      80.7      0.000      0.000
REMARK  6 active torsions:
REMARK  status: ('A' for Active; 'I' for Inactive)
REMARK    1  A    between atoms: S_5  and  C_3 
REMARK    2  A    between atoms: C_16  and  S_5 
REMARK    3  A    between atoms: C_20  and  N_6 
REMARK    4  A    between atoms: N_19  and  C_25 
REMARK    5  A    between atoms: C_24  and  C_20 
REMARK    6  A    between atoms: C_25  and  C_24 
ROOT
ATOM      1  C   UNL d   1      14.659  16.052  -3.292  0.00  0.00     0.155 A 
ATOM      2  C   UNL d   1      14.491  15.447  -2.758  0.00  0.00     0.092 A 
ATOM      3  C   UNL d   1      14.039  14.625  -3.837  0.00  0.00     0.124 A 
ATOM      4  N   UNL d   1      14.970  16.770  -3.017  0.00  0.00    -0.210 NA
ATOM      5  N   UNL d   1      14.520  15.948  -4.090  0.00  0.00    -0.273 N 
ATOM      6  C   UNL d   1      14.207  15.230  -4.372  0.00  0.00     0.181 A 
ATOM      7  C   UNL d   1      14.633  15.553  -1.943  0.00  0.00     0.269 A 
ATOM      8  N   UNL d   1      14.942  16.267  -1.673  0.00  0.00    -0.258 N 
ATOM      9  C   UNL d   1      14.178  14.724  -3.025  0.00  0.00     0.022 A 
ATOM     10  C   UNL d   1      15.113  16.882  -2.211  0.00  0.00     0.152 A 
ATOM     11  N   UNL d   1      14.067  15.127  -5.180  0.00  0.00    -0.128 N 
ATOM     12  C   UNL d   1      15.084  16.375  -0.864  0.00  0.00     0.084 A 
ATOM     13  O   UNL d   1      14.461  14.941  -1.412  0.00  0.00    -0.266 OA
ATOM     14  C   UNL d   1      15.421  17.589  -1.936  0.00  0.00     0.038 A 
ATOM     15  C   UNL d   1      15.393  17.090  -0.600  0.00  0.00     0.019 A 
ATOM     16  C   UNL d   1      15.563  17.702  -1.141  0.00  0.00     0.005 A 
ENDROOT
BRANCH   3  17
ATOM     17  S   UNL d   1      13.729  13.912  -4.116  0.00  0.00     0.213 S 
ATOM     18  O   UNL d   1      12.977  14.225  -4.205  0.00  0.00    -0.217 OA
ATOM     19  O   UNL d   1      14.474  13.560  -4.040  0.00  0.00    -0.217 OA
BRANCH  17  20
ATOM     20  C   UNL d   1      13.423  13.198  -4.395  0.00  0.00     0.088 A 
ATOM     21  C   UNL d   1      13.469  13.025  -5.201  0.00  0.00     0.011 A 
ATOM     22  C   UNL d   1      13.167  12.316  -5.485  0.00  0.00     0.001 A 
ATOM     23  C   UNL d   1      12.816  11.779  -4.966  0.00  0.00     0.000 A 
ATOM     24  C   UNL d   1      12.770  11.956  -4.156  0.00  0.00     0.001 A 
ATOM     25  C   UNL d   1      13.077  12.669  -3.879  0.00  0.00     0.011 A 
ENDBRANCH  17  20
ENDBRANCH   3  17
BRANCH   5  26
ATOM     26  C   UNL d   1      14.688  16.556  -4.627  0.00  0.00     0.085 C 
BRANCH  26  27
ATOM     27  C   UNL d   1      14.109  17.116  -4.807  0.00  0.00     0.038 C 
BRANCH  27  28
ATOM     28  C   UNL d   1      14.038  17.405  -5.566  0.00  0.00     0.082 C 
BRANCH  28  29
ATOM     29  N   UNL d   1      14.088  18.215  -5.714  0.00  0.00    -0.299 N 
ATOM     30  C   UNL d   1      13.546  18.572  -6.220  0.00  0.00     0.107 A 
ATOM     31  C   UNL d   1      13.587  19.374  -6.373  0.00  0.00     0.142 A 
ATOM     32  O   UNL d   1      14.174  19.834  -6.020  0.00  0.00    -0.300 OA
ATOM     33  C   UNL d   1      14.724  19.483  -5.508  0.00  0.00     0.142 A 
ATOM     34  C   UNL d   1      14.679  18.665  -5.355  0.00  0.00     0.107 A 
ENDBRANCH  28  29
ENDBRANCH  27  28
ENDBRANCH  26  27
ENDBRANCH   5  26
TORSDOF 6
ENDMDL
MODEL 2
REMARK VINA RESULT:      83.0      1.384      4.428
REMARK  6 active torsions:
REMARK  status: ('A' for Active; 'I' for Inactive)
REMARK    1  A    between atoms: S_5  and  C_3 
REMARK    2  A    between atoms: C_16  and  S_5 
REMARK    3  A    between atoms: C_20  and  N_6 
REMARK    4  A    between atoms: N_19  and  C_25 
REMARK    5  A    between atoms: C_24  and  C_20 
REMARK    6  A    between atoms: C_25  and  C_24 
ROOT
ATOM      1  C   UNL d   1      14.628  15.696  -2.882  0.00  0.00     0.155 A 
ATOM      2  C   UNL d   1      14.852  16.462  -2.673  0.00  0.00     0.092 A 
ATOM      3  C   UNL d   1      14.566  16.903  -4.004  0.00  0.00     0.124 A 
ATOM      4  N   UNL d   1      14.659  15.090  -2.316  0.00  0.00    -0.210 NA
ATOM      5  N   UNL d   1      14.376  15.532  -3.641  0.00  0.00    -0.273 N 
ATOM      6  C   UNL d   1      14.343  16.136  -4.212  0.00  0.00     0.181 A 
ATOM      7  C   UNL d   1      15.109  16.630  -1.898  0.00  0.00     0.269 A 
ATOM      8  N   UNL d   1      15.139  16.025  -1.339  0.00  0.00    -0.258 N 
ATOM      9  C   UNL d   1      14.823  17.076  -3.234  0.00  0.00     0.022 A 
ATOM     10  C   UNL d   1      14.914  15.250  -1.546  0.00  0.00     0.152 A 
ATOM     11  N   UNL d   1      14.087  15.967  -4.980  0.00  0.00    -0.128 N 
ATOM     12  C   UNL d   1      15.394  16.190  -0.568  0.00  0.00     0.084 A 
ATOM     13  O   UNL d   1      15.332  17.402  -1.696  0.00  0.00    -0.266 OA
ATOM     14  C   UNL d   1      14.946  14.653  -0.986  0.00  0.00     0.038 A 
ATOM     15  C   UNL d   1      15.422  15.583  -0.015  0.00  0.00     0.019 A 
ATOM     16  C   UNL d   1      15.196  14.808  -0.225  0.00  0.00     0.005 A 
ENDROOT
BRANCH   3  17
ATOM     17  S   UNL d   1      14.533  17.502  -4.571  0.00  0.00     0.213 S 
ATOM     18  O   UNL d   1      14.876  18.053  -4.071  0.00  0.00    -0.217 OA
ATOM     19  O   UNL d   1      14.184  16.975  -5.104  0.00  0.00    -0.217 OA
BRANCH  17  20
ATOM     20  C   UNL d   1      14.498  18.099  -5.140  0.00  0.00     0.088 A 
ATOM     21  C   UNL d   1      14.976  18.767  -5.056  0.00  0.00     0.011 A 
ATOM     22  C   UNL d   1      14.946  19.364  -5.619  0.00  0.00     0.001 A 
ATOM     23  C   UNL d   1      14.439  19.297  -6.266  0.00  0.00     0.000 A 
ATOM     24  C   UNL d   1      13.959  18.624  -6.348  0.00  0.00     0.001 A 
ATOM     25  C   UNL d   1      13.995  18.029  -5.779  0.00  0.00     0.011 A 
ENDBRANCH  17  20
ENDBRANCH   3  17
BRANCH   5  26
ATOM     26  C   UNL d   1      14.151  14.762  -3.850  0.00  0.00     0.085 C 
BRANCH  26  27
ATOM     27  C   UNL d   1      13.376  14.613  -4.089  0.00  0.00     0.038 C 
BRANCH  27  28
ATOM     28  C   UNL d   1      12.982  13.951  -3.820  0.00  0.00     0.082 C 
BRANCH  28  29
ATOM     29  N   UNL d   1      13.055  13.230  -4.214  0.00  0.00    -0.299 N 
ATOM     30  C   UNL d   1      13.055  12.528  -3.785  0.00  0.00     0.107 A 
ATOM     31  C   UNL d   1      13.126  11.808  -4.166  0.00  0.00     0.142 A 
ATOM     32  O   UNL d   1      13.200  11.779  -4.987  0.00  0.00    -0.300 OA
ATOM     33  C   UNL d   1      13.201  12.481  -5.428  0.00  0.00     0.142 A 
ATOM     34  C   UNL d   1      13.128  13.214  -5.035  0.00  0.00     0.107 A 
ENDBRANCH  28  29
ENDBRANCH  27  28
ENDBRANCH  26  27
ENDBRANCH   5  26
TORSDOF 6
ENDMDL
