MODEL 1
REMARK VINA RESULT:      89.0      0.000      0.000
REMARK  5 active torsions:
REMARK  status: ('A' for Active; 'I' for Inactive)
REMARK    1  A    between atoms: N_7  and  C_1 
REMARK    2  A    between atoms: C_12  and  C_2 
REMARK       I    between atoms: C_8  and  N_7 
REMARK    3  A    between atoms: C_10  and  C_8 
REMARK    4  A    between atoms: N_9  and  C_16 
REMARK    5  A    between atoms: C_16  and  C_10 
ROOT
ATOM      1  C   UNL d   1     -54.744-101.649 -40.669  0.00  0.00     0.142 A 
ATOM      2  C   UNL d   1     -54.755-101.215 -39.965  0.00  0.00     0.024 A 
ATOM      3  C   UNL d   1     -54.735-102.455 -40.657  0.00  0.00     0.297 A 
ATOM      4  C   UNL d   1     -54.756-101.623 -39.249  0.00  0.00     0.020 A 
ATOM      5  N   UNL d   1     -54.735-102.868 -39.940  0.00  0.00    -0.207 NA
ATOM      6  C   UNL d   1     -54.746-102.446 -39.236  0.00  0.00     0.085 A 
ATOM      7  C   UNL d   1     -54.766-101.194 -38.544  0.00  0.00     0.008 A 
ATOM      8  O   UNL d   1     -54.724-102.877 -41.373  0.00  0.00    -0.264 OA
ATOM      9  C   UNL d   1     -54.746-102.847 -38.519  0.00  0.00     0.020 A 
ATOM     10  C   UNL d   1     -54.767-101.606 -37.820  0.00  0.00     0.035 A 
ATOM     11  C   UNL d   1     -54.757-102.412 -37.808  0.00  0.00     0.008 A 
ATOM     12 BR   UNL d   1     -54.777-101.193 -37.103  0.00  0.00    -0.049 Br
ENDROOT
BRANCH   1  13
ATOM     13  N   UNL d   1     -54.744-101.258 -41.397  0.00  0.00    -0.203 NA
ATOM     14  C   UNL d   1     -55.442-100.975 -41.731  0.00  0.00     0.281 C 
ATOM     15  O   UNL d   1     -56.322-100.805 -41.806  0.00  0.00    -0.265 OA
BRANCH  14  16
ATOM     16  C   UNL d   1     -55.440-100.587 -42.454  0.00  0.00     0.082 C 
BRANCH  16  17
ATOM     17  C   UNL d   1     -55.398-100.995 -43.163  0.00  0.00     0.085 C 
BRANCH  17  18
ATOM     18  N   UNL d   1     -55.181-100.631 -43.864  0.00  0.00    -0.299 N 
ATOM     19  C   UNL d   1     -55.199 -99.812 -43.955  0.00  0.00     0.107 A 
ATOM     20  C   UNL d   1     -54.980 -99.464 -44.659  0.00  0.00     0.142 A 
ATOM     21  O   UNL d   1     -54.733 -99.940 -45.301  0.00  0.00    -0.300 OA
ATOM     22  C   UNL d   1     -54.715-100.734 -45.215  0.00  0.00     0.142 A 
ATOM     23  C   UNL d   1     -54.934-101.106 -44.506  0.00  0.00     0.107 A 
ENDBRANCH  17  18
ENDBRANCH  16  17
ENDBRANCH  14  16
ENDBRANCH   1  13
BRANCH   2  24
ATOM     24  C   UNL d   1     -54.765-100.401 -39.977  0.00  0.00     0.002 A 
ATOM     25  C   UNL d   1     -54.711 -99.970 -39.276  0.00  0.00     0.000 A 
ATOM     26  C   UNL d   1     -54.721 -99.143 -39.288  0.00  0.00     0.000 A 
ATOM     27  C   UNL d   1     -54.785 -98.756 -40.002  0.00  0.00     0.000 A 
ATOM     28  C   UNL d   1     -54.839 -99.158 -40.704  0.00  0.00     0.000 A 
ATOM     29  C   UNL d   1     -54.829 -99.993 -40.692  0.00  0.00     0.000 A 
ENDBRANCH   2  24
TORSDOF 5
ENDMDL
