MODEL 1
REMARK VINA RESULT:       9.3      0.000      0.000
REMARK  4 active torsions:
REMARK  status: ('A' for Active; 'I' for Inactive)
REMARK    1  A    between atoms: C_3  and  C_1 
REMARK    2  A    between atoms: C_2  and  C_3 
REMARK    3  A    between atoms: C_6  and  C_2 
REMARK    4  A    between atoms: C_16  and  C_6 
ROOT
ATOM      1  C   UNL d   1      45.990 -14.560  44.550  0.00  0.00     0.119 A 
ATOM      2  C   UNL d   1      45.197 -14.373  44.657  0.00  0.00     0.119 A 
ATOM      3  O   UNL d   1      46.391 -13.858  44.391  0.00  0.00    -0.300 OA
ATOM      4  O   UNL d   1      45.105 -13.560  44.566  0.00  0.00    -0.300 OA
ATOM      5  C   UNL d   1      45.853 -13.243  44.400  0.00  0.00     0.304 A 
ATOM      6  C   UNL d   1      46.243 -15.343  44.611  0.00  0.00     0.026 A 
ATOM      7  C   UNL d   1      45.690 -15.948  44.782  0.00  0.00     0.002 A 
ATOM      8  C   UNL d   1      44.644 -14.979  44.829  0.00  0.00     0.026 A 
ATOM      9  C   UNL d   1      44.887 -15.765  44.892  0.00  0.00     0.002 A 
ENDROOT
BRANCH   7  10
ATOM     10  C   UNL d   1      45.934 -16.754  44.848  0.00  0.00     0.003 C 
BRANCH  10  11
ATOM     11  C   UNL d   1      46.045 -17.194  44.154  0.00  0.00     0.043 C 
BRANCH  11  12
ATOM     12  C   UNL d   1      46.290 -17.978  44.213  0.00  0.00     0.202 C 
ATOM     13  O   UNL d   1      46.455 -18.303  44.952  0.00  0.00    -0.286 OA
BRANCH  12  14
ATOM     14  C   UNL d   1      46.373 -18.443  43.537  0.00  0.00     0.068 A 
ATOM     15  S   UNL d   1      46.560 -18.253  42.748  0.00  0.00    -0.083 SA
ATOM     16  C   UNL d   1      46.563 -18.947  42.319  0.00  0.00     0.035 A 
ATOM     17  C   UNL d   1      46.383 -19.557  42.823  0.00  0.00     0.008 A 
ATOM     18  C   UNL d   1      46.265 -19.259  43.574  0.00  0.00     0.010 A 
ENDBRANCH  12  14
ENDBRANCH  11  12
ENDBRANCH  10  11
ENDBRANCH   7  10
TORSDOF 4
ENDMDL
MODEL 2
REMARK VINA RESULT:      10.9      1.537      4.337
REMARK  4 active torsions:
REMARK  status: ('A' for Active; 'I' for Inactive)
REMARK    1  A    between atoms: C_3  and  C_1 
REMARK    2  A    between atoms: C_2  and  C_3 
REMARK    3  A    between atoms: C_6  and  C_2 
REMARK    4  A    between atoms: C_16  and  C_6 
ROOT
ATOM      1  C   UNL d   1      46.255 -18.317  42.974  0.00  0.00     0.119 A 
ATOM      2  C   UNL d   1      46.463 -19.010  43.363  0.00  0.00     0.119 A 
ATOM      3  O   UNL d   1      46.309 -18.460  42.165  0.00  0.00    -0.300 OA
ATOM      4  O   UNL d   1      46.647 -19.580  42.798  0.00  0.00    -0.300 OA
ATOM      5  C   UNL d   1      46.549 -19.232  42.052  0.00  0.00     0.304 A 
ATOM      6  C   UNL d   1      46.042 -17.647  43.408  0.00  0.00     0.026 A 
ATOM      7  C   UNL d   1      46.040 -17.676  44.245  0.00  0.00     0.002 A 
ATOM      8  C   UNL d   1      46.461 -19.038  44.200  0.00  0.00     0.026 A 
ATOM      9  C   UNL d   1      46.250 -18.374  44.642  0.00  0.00     0.002 A 
ENDROOT
BRANCH   7  10
ATOM     10  C   UNL d   1      45.824 -16.998  44.702  0.00  0.00     0.003 C 
BRANCH  10  11
ATOM     11  C   UNL d   1      45.856 -16.252  44.345  0.00  0.00     0.043 C 
BRANCH  11  12
ATOM     12  C   UNL d   1      45.366 -15.652  44.627  0.00  0.00     0.202 C 
ATOM     13  O   UNL d   1      44.635 -15.841  44.955  0.00  0.00    -0.286 OA
BRANCH  12  14
ATOM     14  C   UNL d   1      45.602 -14.863  44.584  0.00  0.00     0.068 A 
ATOM     15  S   UNL d   1      46.293 -14.472  44.832  0.00  0.00    -0.083 SA
ATOM     16  C   UNL d   1      46.215 -13.683  44.641  0.00  0.00     0.035 A 
ATOM     17  C   UNL d   1      45.495 -13.579  44.282  0.00  0.00     0.008 A 
ATOM     18  C   UNL d   1      45.110 -14.297  44.242  0.00  0.00     0.010 A 
ENDBRANCH  12  14
ENDBRANCH  11  12
ENDBRANCH  10  11
ENDBRANCH   7  10
TORSDOF 4
ENDMDL
