MODEL 1
REMARK VINA RESULT:      30.5      0.000      0.000
REMARK  8 active torsions:
REMARK  status: ('A' for Active; 'I' for Inactive)
REMARK    1  A    between atoms: C_9  and  N_1 
REMARK    2  A    between atoms: S_10  and  C_6 
REMARK    3  A    between atoms: C_19  and  S_10 
REMARK    4  A    between atoms: C_12  and  C_19 
REMARK       I    between atoms: N_14  and  C_12 
REMARK    5  A    between atoms: C_13  and  C_20 
REMARK    6  A    between atoms: O_24  and  C_13 
REMARK    7  A    between atoms: C_20  and  N_14 
REMARK    8  A    between atoms: C_26  and  O_24 
ROOT
ATOM      1  N   UNL d   1      45.618 -14.906  44.204  0.00  0.00    -0.212 N 
ATOM      2  C   UNL d   1      45.386 -15.623  43.876  0.00  0.00     0.169 A 
ATOM      3  N   UNL d   1      46.178 -15.046  44.772  0.00  0.00    -0.162 NA
ATOM      4  C   UNL d   1      45.814 -16.219  44.253  0.00  0.00     0.081 A 
ATOM      5  C   UNL d   1      46.305 -15.864  44.809  0.00  0.00     0.126 A 
ATOM      6  C   UNL d   1      45.700 -17.005  44.041  0.00  0.00     0.117 A 
ATOM      7  N   UNL d   1      44.844 -15.812  43.288  0.00  0.00    -0.205 NA
ATOM      8  N   UNL d   1      45.157 -17.197  43.451  0.00  0.00    -0.217 NA
ATOM      9  C   UNL d   1      44.729 -16.601  43.074  0.00  0.00     0.201 A 
ENDROOT
BRANCH   6  10
ATOM     10  S   UNL d   1      46.128 -17.601  44.418  0.00  0.00    -0.062 SA
BRANCH  10  11
ATOM     11  C   UNL d   1      46.427 -18.224  43.986  0.00  0.00     0.099 C 
BRANCH  11  12
ATOM     12  C   UNL d   1      46.218 -18.998  44.179  0.00  0.00     0.286 C 
ATOM     13  N   UNL d   1      46.328 -19.605  43.629  0.00  0.00    -0.200 NA
ATOM     14  O   UNL d   1      45.899 -19.167  44.921  0.00  0.00    -0.265 OA
BRANCH  13  15
ATOM     15  C   UNL d   1      46.647 -19.436  42.887  0.00  0.00     0.171 C 
BRANCH  15  16
ATOM     16  C   UNL d   1      46.212 -19.600  42.204  0.00  0.00     0.320 C 
ATOM     17  O   UNL d   1      45.429 -19.854  42.265  0.00  0.00    -0.257 OA
BRANCH  16  18
ATOM     18  O   UNL d   1      46.561 -19.510  41.461  0.00  0.00    -0.270 OA
BRANCH  18  19
ATOM     19  C   UNL d   1      46.156 -19.113  40.862  0.00  0.00     0.126 C 
ATOM     20  C   UNL d   1      46.576 -18.744  40.256  0.00  0.00     0.029 C 
ENDBRANCH  18  19
ENDBRANCH  16  18
ENDBRANCH  15  16
ENDBRANCH  13  15
ENDBRANCH  11  12
ENDBRANCH  10  11
ENDBRANCH   6  10
BRANCH   1  21
ATOM     21  C   UNL d   1      45.280 -14.197  43.934  0.00  0.00     0.085 A 
ATOM     22  C   UNL d   1      44.663 -13.852  44.352  0.00  0.00     0.020 A 
ATOM     23  C   UNL d   1      44.328 -13.154  44.089  0.00  0.00     0.013 A 
ATOM     24  C   UNL d   1      44.607 -12.790  43.401  0.00  0.00     0.058 A 
ATOM     25  C   UNL d   1      45.235 -13.149  42.983  0.00  0.00     0.013 A 
ATOM     26 CL   UNL d   1      44.270 -12.081  43.130  0.00  0.00    -0.082 Cl
ATOM     27  C   UNL d   1      45.563 -13.845  43.252  0.00  0.00     0.020 A 
ENDBRANCH   1  21
TORSDOF 8
ENDMDL
