MODEL 1
REMARK VINA RESULT:      59.1      0.000      0.000
REMARK  7 active torsions:
REMARK  status: ('A' for Active; 'I' for Inactive)
REMARK    1  A    between atoms: C_4  and  C_1 
REMARK    2  A    between atoms: N_5  and  C_3 
REMARK    3  A    between atoms: C_9  and  C_4 
REMARK       I    between atoms: C_7  and  N_5 
REMARK    4  A    between atoms: C_10  and  C_7 
REMARK       I    between atoms: N_14  and  C_9 
REMARK    5  A    between atoms: C_20  and  N_14 
REMARK    6  A    between atoms: C_21  and  C_20 
REMARK    7  A    between atoms: O_29  and  C_22 
ROOT
ATOM      1  C   UNL d   1      13.996  14.601  -4.800  0.00  0.00     0.144 C 
ATOM      2  C   UNL d   1      14.619  14.632  -5.339  0.00  0.00     0.107 C 
ATOM      3  N   UNL d   1      15.240  14.656  -5.871  0.00  0.00    -0.191 NA
ENDROOT
BRANCH   1   4
ATOM      4  C   UNL d   1      13.894  13.935  -4.307  0.00  0.00     0.097 A 
ATOM      5  N   UNL d   1      14.139  13.809  -3.529  0.00  0.00    -0.226 NA
ATOM      6  C   UNL d   1      13.894  13.053  -3.303  0.00  0.00     0.166 A 
ATOM      7  C   UNL d   1      13.498  12.710  -3.940  0.00  0.00     0.037 A 
ATOM      8  C   UNL d   1      13.494  13.251  -4.567  0.00  0.00     0.021 A 
ATOM      9  C   UNL d   1      13.139  11.974  -4.036  0.00  0.00     0.003 A 
ATOM     10  C   UNL d   1      13.134  13.058  -5.279  0.00  0.00     0.002 A 
ATOM     11  C   UNL d   1      12.774  12.322  -5.376  0.00  0.00     0.000 A 
ATOM     12  C   UNL d   1      12.779  11.780  -4.749  0.00  0.00     0.000 A 
BRANCH   6  13
ATOM     13  N   UNL d   1      14.003  12.672  -2.589  0.00  0.00    -0.189 NA
ATOM     14  C   UNL d   1      14.294  12.982  -1.870  0.00  0.00     0.286 C 
ATOM     15  O   UNL d   1      14.510  13.777  -1.845  0.00  0.00    -0.265 OA
BRANCH  14  16
ATOM     16  C   UNL d   1      14.368  12.516  -1.195  0.00  0.00     0.087 A 
ATOM     17  S   UNL d   1      15.109  12.228  -0.970  0.00  0.00    -0.082 SA
ATOM     18  C   UNL d   1      15.006  11.784  -0.279  0.00  0.00     0.036 A 
ATOM     19  C   UNL d   1      14.202  11.799  -0.080  0.00  0.00     0.008 A 
ATOM     20  C   UNL d   1      13.810  12.251  -0.645  0.00  0.00     0.012 A 
ENDBRANCH  14  16
ENDBRANCH   6  13
ENDBRANCH   1   4
BRANCH   1  21
ATOM     21  C   UNL d   1      13.466  15.234  -4.746  0.00  0.00     0.290 C 
ATOM     22  N   UNL d   1      13.609  15.847  -4.219  0.00  0.00    -0.206 NA
ATOM     23  O   UNL d   1      12.794  15.252  -5.221  0.00  0.00    -0.264 OA
BRANCH  22  24
ATOM     24  C   UNL d   1      14.288  15.828  -3.740  0.00  0.00     0.102 C 
BRANCH  24  25
ATOM     25  C   UNL d   1      14.589  16.306  -3.133  0.00  0.00     0.019 A 
ATOM     26  C   UNL d   1      15.050  16.959  -3.324  0.00  0.00     0.004 A 
ATOM     27  C   UNL d   1      15.350  17.436  -2.728  0.00  0.00     0.024 A 
ATOM     28  C   UNL d   1      15.190  17.259  -1.931  0.00  0.00     0.094 A 
ATOM     29  C   UNL d   1      14.728  16.606  -1.741  0.00  0.00     0.024 A 
ATOM     30  C   UNL d   1      14.428  16.128  -2.348  0.00  0.00     0.004 A 
BRANCH  28  31
ATOM     31  O   UNL d   1      15.490  17.736  -1.333  0.00  0.00    -0.328 OA
ATOM     32  C   UNL d   1      15.525  17.460  -0.555  0.00  0.00     0.181 C 
ENDBRANCH  28  31
ENDBRANCH  24  25
ENDBRANCH  22  24
ENDBRANCH   1  21
TORSDOF 7
ENDMDL
