MODEL 1
REMARK VINA RESULT:       0.2      0.000      0.000
REMARK  8 active torsions:
REMARK  status: ('A' for Active; 'I' for Inactive)
REMARK    1  A    between atoms: N_3  and  S_1 
REMARK    2  A    between atoms: C_5  and  S_1 
REMARK    3  A    between atoms: N_2  and  C_7 
REMARK    4  A    between atoms: C_6  and  N_3 
REMARK    5  A    between atoms: C_18  and  N_4 
REMARK    6  A    between atoms: C_7  and  C_6 
REMARK    7  A    between atoms: C_12  and  C_7 
REMARK    8  A    between atoms: O_23  and  C_17 
ROOT
ATOM      1  C   UNL d   1      58.937  -0.403  29.697  0.00  0.00     0.086 C 
ENDROOT
BRANCH   1   2
ATOM      2  N   UNL d   1      58.888  -1.207  29.486  0.00  0.00    -0.300 N 
ATOM      3  C   UNL d   1      58.975  -1.785  30.064  0.00  0.00     0.100 A 
ATOM      4  C   UNL d   1      58.928  -2.583  29.859  0.00  0.00     0.100 A 
ATOM      5  N   UNL d   1      58.795  -2.799  29.076  0.00  0.00    -0.301 N 
ATOM      6  C   UNL d   1      58.708  -2.217  28.497  0.00  0.00     0.100 A 
ATOM      7  C   UNL d   1      58.755  -1.423  28.703  0.00  0.00     0.100 A 
BRANCH   5   8
ATOM      8  C   UNL d   1      58.747  -3.592  28.870  0.00  0.00     0.064 A 
ATOM      9  C   UNL d   1      59.437  -4.024  28.721  0.00  0.00     0.018 A 
ATOM     10  C   UNL d   1      59.389  -4.818  28.515  0.00  0.00     0.002 A 
ATOM     11  C   UNL d   1      58.650  -5.188  28.455  0.00  0.00     0.000 A 
ATOM     12  C   UNL d   1      57.961  -4.756  28.604  0.00  0.00     0.002 A 
ATOM     13  C   UNL d   1      58.008  -3.962  28.811  0.00  0.00     0.018 A 
ENDBRANCH   5   8
ENDBRANCH   1   2
BRANCH   1  14
ATOM     14  C   UNL d   1      58.248   0.050  29.744  0.00  0.00     0.130 C 
BRANCH  14  15
ATOM     15  N   UNL d   1      57.799   0.051  30.443  0.00  0.00    -0.155 NA
BRANCH  15  16
ATOM     16  S   UNL d   1      57.039   0.363  30.445  0.00  0.00     0.285 S 
ATOM     17  O   UNL d   1      57.134   0.611  29.572  0.00  0.00    -0.198 OA
ATOM     18  O   UNL d   1      56.333   0.647  30.465  0.00  0.00    -0.198 OA
BRANCH  16  19
ATOM     19  C   UNL d   1      56.949   0.140  31.235  0.00  0.00     0.105 A 
ATOM     20  C   UNL d   1      56.688  -0.617  31.419  0.00  0.00     0.015 A 
ATOM     21  C   UNL d   1      56.596  -0.846  32.210  0.00  0.00     0.023 A 
ATOM     22  C   UNL d   1      56.333  -1.608  32.393  0.00  0.00     0.002 C 
ATOM     23  C   UNL d   1      56.769  -0.306  32.819  0.00  0.00     0.094 A 
ATOM     24  C   UNL d   1      57.032   0.456  32.629  0.00  0.00     0.025 A 
ATOM     25  C   UNL d   1      57.122   0.680  31.844  0.00  0.00     0.015 A 
BRANCH  23  26
ATOM     26  O   UNL d   1      56.679  -0.529  33.609  0.00  0.00    -0.328 OA
ATOM     27  C   UNL d   1      55.992  -0.320  34.028  0.00  0.00     0.181 C 
ENDBRANCH  23  26
ENDBRANCH  16  19
ENDBRANCH  15  16
ENDBRANCH  14  15
ENDBRANCH   1  14
BRANCH   1  28
ATOM     28  C   UNL d   1      59.667  -0.059  29.859  0.00  0.00     0.037 A 
ATOM     29  C   UNL d   1      60.118   0.256  29.244  0.00  0.00     0.100 A 
ATOM     30  N   UNL d   1      60.852   0.602  29.407  0.00  0.00    -0.242 NA
ATOM     31  C   UNL d   1      61.130   0.630  30.183  0.00  0.00     0.099 A 
ATOM     32  C   UNL d   1      60.680   0.316  30.792  0.00  0.00     0.021 A 
ATOM     33  C   UNL d   1      59.945  -0.030  30.630  0.00  0.00     0.005 A 
ENDBRANCH   1  28
TORSDOF 8
ENDMDL
MODEL 2
REMARK VINA RESULT:       2.9      1.517      4.769
REMARK  8 active torsions:
REMARK  status: ('A' for Active; 'I' for Inactive)
REMARK    1  A    between atoms: N_3  and  S_1 
REMARK    2  A    between atoms: C_5  and  S_1 
REMARK    3  A    between atoms: N_2  and  C_7 
REMARK    4  A    between atoms: C_6  and  N_3 
REMARK    5  A    between atoms: C_18  and  N_4 
REMARK    6  A    between atoms: C_7  and  C_6 
REMARK    7  A    between atoms: C_12  and  C_7 
REMARK    8  A    between atoms: O_23  and  C_17 
ROOT
ATOM      1  C   UNL d   1      58.530   0.520  31.214  0.00  0.00     0.086 C 
ENDROOT
BRANCH   1   2
ATOM      2  N   UNL d   1      57.894   0.506  31.751  0.00  0.00    -0.300 N 
ATOM      3  C   UNL d   1      57.135   0.676  31.486  0.00  0.00     0.100 A 
ATOM      4  C   UNL d   1      56.501   0.662  32.015  0.00  0.00     0.100 A 
ATOM      5  N   UNL d   1      56.631   0.479  32.807  0.00  0.00    -0.301 N 
ATOM      6  C   UNL d   1      57.393   0.308  33.071  0.00  0.00     0.100 A 
ATOM      7  C   UNL d   1      58.023   0.322  32.543  0.00  0.00     0.100 A 
BRANCH   5   8
ATOM      8  C   UNL d   1      56.002   0.465  33.335  0.00  0.00     0.064 A 
ATOM      9  C   UNL d   1      56.137   0.319  34.137  0.00  0.00     0.018 A 
ATOM     10  C   UNL d   1      55.507   0.305  34.665  0.00  0.00     0.002 A 
ATOM     11  C   UNL d   1      54.735   0.438  34.395  0.00  0.00     0.000 A 
ATOM     12  C   UNL d   1      54.600   0.584  33.592  0.00  0.00     0.002 A 
ATOM     13  C   UNL d   1      55.230   0.598  33.064  0.00  0.00     0.018 A 
ENDBRANCH   5   8
ENDBRANCH   1   2
BRANCH   1  14
ATOM     14  C   UNL d   1      58.382   0.481  30.403  0.00  0.00     0.130 C 
BRANCH  14  15
ATOM     15  N   UNL d   1      58.483  -0.237  29.998  0.00  0.00    -0.155 NA
BRANCH  15  16
ATOM     16  S   UNL d   1      58.302  -0.288  29.198  0.00  0.00     0.285 S 
ATOM     17  O   UNL d   1      57.975   0.563  29.213  0.00  0.00    -0.198 OA
ATOM     18  O   UNL d   1      58.141  -0.353  28.456  0.00  0.00    -0.198 OA
BRANCH  16  19
ATOM     19  C   UNL d   1      58.598  -1.059  29.180  0.00  0.00     0.105 A 
ATOM     20  C   UNL d   1      59.398  -1.187  29.043  0.00  0.00     0.015 A 
ATOM     21  C   UNL d   1      59.700  -1.958  29.024  0.00  0.00     0.023 A 
ATOM     22  C   UNL d   1      60.505  -2.085  28.886  0.00  0.00     0.002 C 
ATOM     23  C   UNL d   1      59.189  -2.604  29.144  0.00  0.00     0.094 A 
ATOM     24  C   UNL d   1      58.383  -2.471  29.282  0.00  0.00     0.025 A 
ATOM     25  C   UNL d   1      58.088  -1.705  29.300  0.00  0.00     0.015 A 
BRANCH  23  26
ATOM     26  O   UNL d   1      59.485  -3.376  29.126  0.00  0.00    -0.328 OA
ATOM     27  C   UNL d   1      59.081  -3.970  28.708  0.00  0.00     0.181 C 
ENDBRANCH  23  26
ENDBRANCH  16  19
ENDBRANCH  15  16
ENDBRANCH  14  15
ENDBRANCH   1  14
BRANCH   1  28
ATOM     28  C   UNL d   1      59.304   0.574  31.489  0.00  0.00     0.037 A 
ATOM     29  C   UNL d   1      59.929   0.612  30.952  0.00  0.00     0.100 A 
ATOM     30  N   UNL d   1      60.707   0.666  31.228  0.00  0.00    -0.242 NA
ATOM     31  C   UNL d   1      60.856   0.681  32.040  0.00  0.00     0.099 A 
ATOM     32  C   UNL d   1      60.233   0.642  32.572  0.00  0.00     0.021 A 
ATOM     33  C   UNL d   1      59.454   0.588  32.295  0.00  0.00     0.005 A 
ENDBRANCH   1  28
TORSDOF 8
ENDMDL
