MODEL 1
REMARK VINA RESULT:      60.5      0.000      0.000
REMARK  2 active torsions:
REMARK  status: ('A' for Active; 'I' for Inactive)
REMARK    1  A    between atoms: C_6  and  C_2 
REMARK    2  A    between atoms: C_7  and  C_3 
ROOT
ATOM      1  N   UNL d   1     -50.130  25.648  33.507  0.00  0.00    -0.243 NA
ATOM      2  C   UNL d   1     -50.636  26.297  33.527  0.00  0.00     0.104 A 
ATOM      3  C   UNL d   1     -51.977  25.673  33.437  0.00  0.00     0.033 A 
ATOM      4  S   UNL d   1     -51.799  24.872  33.394  0.00  0.00    -0.085 SA
ATOM      5  C   UNL d   1     -51.471  26.292  33.495  0.00  0.00     0.028 A 
ATOM      6  C   UNL d   1     -50.327  24.847  33.449  0.00  0.00     0.087 A 
ATOM      7  C   UNL d   1     -51.076  24.499  33.398  0.00  0.00     0.047 A 
ATOM      8  C   UNL d   1     -49.650  24.388  33.447  0.00  0.00     0.020 A 
ATOM      9  C   UNL d   1     -51.138  23.696  33.346  0.00  0.00     0.008 A 
ATOM     10  C   UNL d   1     -50.465  23.205  33.342  0.00  0.00     0.001 A 
ATOM     11  C   UNL d   1     -49.720  23.551  33.392  0.00  0.00     0.002 A 
ENDROOT
BRANCH   3  12
ATOM     12  C   UNL d   1     -52.779  25.862  33.417  0.00  0.00     0.034 A 
ATOM     13  C   UNL d   1     -53.021  26.665  33.381  0.00  0.00     0.141 A 
ATOM     14  F   UNL d   1     -52.454  27.258  33.365  0.00  0.00    -0.204 F 
ATOM     15  C   UNL d   1     -53.816  26.848  33.362  0.00  0.00     0.030 A 
ATOM     16  C   UNL d   1     -54.371  26.261  33.378  0.00  0.00     0.002 A 
ATOM     17  C   UNL d   1     -54.157  25.455  33.414  0.00  0.00     0.000 A 
ATOM     18  C   UNL d   1     -53.354  25.265  33.434  0.00  0.00     0.003 A 
ENDBRANCH   3  12
BRANCH   2  19
ATOM     19  C   UNL d   1     -50.265  27.031  33.587  0.00  0.00     0.118 A 
ATOM     20  O   UNL d   1     -50.556  27.754  33.313  0.00  0.00    -0.304 OA
ATOM     21  C   UNL d   1     -49.994  28.336  33.497  0.00  0.00     0.123 A 
ATOM     22  C   UNL d   1     -49.356  27.978  33.884  0.00  0.00     0.029 A 
ATOM     23  C   UNL d   1     -49.525  27.174  33.939  0.00  0.00     0.028 A 
ENDBRANCH   2  19
TORSDOF 2
ENDMDL
