MODEL 1
REMARK VINA RESULT:      -5.2      0.000      0.000
REMARK  2 active torsions:
REMARK  status: ('A' for Active; 'I' for Inactive)
REMARK    1  A    between atoms: C_9  and  N_1 
REMARK    2  A    between atoms: C_11  and  C_9 
ROOT
ATOM      1  N   UNL d   1      57.318   0.047  31.095  0.00  0.00    -0.287 N 
ATOM      2  N   UNL d   1      57.146  -1.287  31.249  0.00  0.00    -0.224 NA
ATOM      3  C   UNL d   1      56.822  -0.077  31.764  0.00  0.00     0.083 A 
ATOM      4  C   UNL d   1      57.516  -0.701  30.780  0.00  0.00     0.183 A 
ATOM      5  C   UNL d   1      56.718  -0.897  31.856  0.00  0.00     0.099 A 
ATOM      6  C   UNL d   1      56.459   0.447  32.289  0.00  0.00     0.019 A 
ATOM      7  C   UNL d   1      56.252  -1.185  32.473  0.00  0.00     0.021 A 
ATOM      8  C   UNL d   1      55.995   0.157  32.904  0.00  0.00     0.002 A 
ATOM      9  C   UNL d   1      55.890  -0.663  32.997  0.00  0.00     0.002 A 
ATOM     10  C   UNL d   1      55.630   0.681  33.432  0.00  0.00     0.000 C 
ATOM     11  C   UNL d   1      55.425  -0.949  33.613  0.00  0.00     0.000 C 
ENDROOT
BRANCH   1  12
ATOM     12  C   UNL d   1      57.646   0.682  30.687  0.00  0.00     0.082 C 
BRANCH  12  13
ATOM     13  C   UNL d   1      58.298   0.564  30.197  0.00  0.00     0.018 C 
ATOM     14  C   UNL d   1      59.062   0.642  30.501  0.00  0.00     0.002 C 
ATOM     15  C   UNL d   1      58.189   0.367  29.403  0.00  0.00     0.002 C 
ENDBRANCH  12  13
ENDBRANCH   1  12
TORSDOF 2
ENDMDL
MODEL 2
REMARK VINA RESULT:      -4.9      0.989      3.256
REMARK  2 active torsions:
REMARK  status: ('A' for Active; 'I' for Inactive)
REMARK    1  A    between atoms: C_9  and  N_1 
REMARK    2  A    between atoms: C_11  and  C_9 
ROOT
ATOM      1  N   UNL d   1      56.152   0.051  33.038  0.00  0.00    -0.287 N 
ATOM      2  N   UNL d   1      56.148  -1.275  32.764  0.00  0.00    -0.224 NA
ATOM      3  C   UNL d   1      56.606  -0.073  32.340  0.00  0.00     0.083 A 
ATOM      4  C   UNL d   1      55.870  -0.692  33.297  0.00  0.00     0.183 A 
ATOM      5  C   UNL d   1      56.602  -0.888  32.174  0.00  0.00     0.099 A 
ATOM      6  C   UNL d   1      57.015   0.447  31.846  0.00  0.00     0.019 A 
ATOM      7  C   UNL d   1      57.007  -1.176  31.515  0.00  0.00     0.021 A 
ATOM      8  C   UNL d   1      57.419   0.158  31.189  0.00  0.00     0.002 A 
ATOM      9  C   UNL d   1      57.415  -0.658  31.023  0.00  0.00     0.002 A 
ATOM     10  C   UNL d   1      57.829   0.678  30.693  0.00  0.00     0.000 C 
ATOM     11  C   UNL d   1      57.820  -0.942  30.365  0.00  0.00     0.000 C 
ENDROOT
BRANCH   1  12
ATOM     12  C   UNL d   1      55.921   0.682  33.512  0.00  0.00     0.082 C 
BRANCH  12  13
ATOM     13  C   UNL d   1      55.287   0.596  34.032  0.00  0.00     0.018 C 
ATOM     14  C   UNL d   1      55.426   0.434  34.830  0.00  0.00     0.002 C 
ATOM     15  C   UNL d   1      54.513   0.671  33.756  0.00  0.00     0.002 C 
ENDBRANCH  12  13
ENDBRANCH   1  12
TORSDOF 2
ENDMDL
MODEL 3
REMARK VINA RESULT:      -4.3      0.828      1.465
REMARK  2 active torsions:
REMARK  status: ('A' for Active; 'I' for Inactive)
REMARK    1  A    between atoms: C_9  and  N_1 
REMARK    2  A    between atoms: C_11  and  C_9 
ROOT
ATOM      1  N   UNL d   1      57.651  -0.621  30.782  0.00  0.00    -0.287 N 
ATOM      2  N   UNL d   1      57.445   0.682  31.086  0.00  0.00    -0.224 NA
ATOM      3  C   UNL d   1      57.123  -0.586  31.437  0.00  0.00     0.083 A 
ATOM      4  C   UNL d   1      57.847   0.162  30.568  0.00  0.00     0.183 A 
ATOM      5  C   UNL d   1      56.998   0.216  31.622  0.00  0.00     0.099 A 
ATOM      6  C   UNL d   1      56.749  -1.175  31.879  0.00  0.00     0.019 A 
ATOM      7  C   UNL d   1      56.500   0.421  32.247  0.00  0.00     0.021 A 
ATOM      8  C   UNL d   1      56.252  -0.967  32.502  0.00  0.00     0.002 A 
ATOM      9  C   UNL d   1      56.127  -0.166  32.687  0.00  0.00     0.002 A 
ATOM     10  C   UNL d   1      55.875  -1.557  32.946  0.00  0.00     0.000 C 
ATOM     11  C   UNL d   1      55.629   0.037  33.311  0.00  0.00     0.000 C 
ENDROOT
BRANCH   1  12
ATOM     12  C   UNL d   1      58.009  -1.197  30.317  0.00  0.00     0.082 C 
BRANCH  12  13
ATOM     13  C   UNL d   1      58.533  -0.977  29.720  0.00  0.00     0.018 C 
ATOM     14  C   UNL d   1      59.339  -0.902  29.885  0.00  0.00     0.002 C 
ATOM     15  C   UNL d   1      58.254  -0.831  28.958  0.00  0.00     0.002 C 
ENDBRANCH  12  13
ENDBRANCH   1  12
TORSDOF 2
ENDMDL
MODEL 4
REMARK VINA RESULT:      -4.2      1.163      1.883
REMARK  2 active torsions:
REMARK  status: ('A' for Active; 'I' for Inactive)
REMARK    1  A    between atoms: C_9  and  N_1 
REMARK    2  A    between atoms: C_11  and  C_9 
ROOT
ATOM      1  N   UNL d   1      56.853   0.526  32.293  0.00  0.00    -0.287 N 
ATOM      2  N   UNL d   1      57.617   0.663  33.403  0.00  0.00    -0.224 NA
ATOM      3  C   UNL d   1      56.341   0.554  32.961  0.00  0.00     0.083 A 
ATOM      4  C   UNL d   1      57.639   0.594  32.569  0.00  0.00     0.183 A 
ATOM      5  C   UNL d   1      56.812   0.638  33.641  0.00  0.00     0.099 A 
ATOM      6  C   UNL d   1      55.519   0.513  33.030  0.00  0.00     0.019 A 
ATOM      7  C   UNL d   1      56.457   0.680  34.384  0.00  0.00     0.021 A 
ATOM      8  C   UNL d   1      55.167   0.555  33.773  0.00  0.00     0.002 A 
ATOM      9  C   UNL d   1      55.638   0.640  34.454  0.00  0.00     0.002 A 
ATOM     10  C   UNL d   1      54.343   0.515  33.844  0.00  0.00     0.000 C 
ATOM     11  C   UNL d   1      55.281   0.682  35.194  0.00  0.00     0.000 C 
ENDROOT
BRANCH   1  12
ATOM     12  C   UNL d   1      56.789   0.454  31.476  0.00  0.00     0.082 C 
BRANCH  12  13
ATOM     13  C   UNL d   1      57.385   0.078  31.048  0.00  0.00     0.018 C 
ATOM     14  C   UNL d   1      57.939   0.526  30.631  0.00  0.00     0.002 C 
ATOM     15  C   UNL d   1      57.428  -0.746  31.036  0.00  0.00     0.002 C 
ENDBRANCH  12  13
ENDBRANCH   1  12
TORSDOF 2
ENDMDL
MODEL 5
REMARK VINA RESULT:      -4.1      0.969      3.394
REMARK  2 active torsions:
REMARK  status: ('A' for Active; 'I' for Inactive)
REMARK    1  A    between atoms: C_9  and  N_1 
REMARK    2  A    between atoms: C_11  and  C_9 
ROOT
ATOM      1  N   UNL d   1      56.729   0.407  32.404  0.00  0.00    -0.287 N 
ATOM      2  N   UNL d   1      57.928   0.663  32.977  0.00  0.00    -0.224 NA
ATOM      3  C   UNL d   1      57.306   0.451  31.793  0.00  0.00     0.083 A 
ATOM      4  C   UNL d   1      57.116   0.538  33.133  0.00  0.00     0.183 A 
ATOM      5  C   UNL d   1      58.042   0.608  32.148  0.00  0.00     0.099 A 
ATOM      6  C   UNL d   1      57.252   0.368  30.974  0.00  0.00     0.019 A 
ATOM      7  C   UNL d   1      58.717   0.681  31.679  0.00  0.00     0.021 A 
ATOM      8  C   UNL d   1      57.927   0.441  30.507  0.00  0.00     0.002 A 
ATOM      9  C   UNL d   1      58.663   0.599  30.862  0.00  0.00     0.002 A 
ATOM     10  C   UNL d   1      57.874   0.358  29.685  0.00  0.00     0.000 C 
ATOM     11  C   UNL d   1      59.335   0.671  30.392  0.00  0.00     0.000 C 
ENDROOT
BRANCH   1  12
ATOM     12  C   UNL d   1      55.920   0.275  32.472  0.00  0.00     0.082 C 
BRANCH  12  13
ATOM     13  C   UNL d   1      55.634  -0.248  33.043  0.00  0.00     0.018 C 
ATOM     14  C   UNL d   1      55.262   0.044  33.720  0.00  0.00     0.002 C 
ATOM     15  C   UNL d   1      55.720  -1.062  32.938  0.00  0.00     0.002 C 
ENDBRANCH  12  13
ENDBRANCH   1  12
TORSDOF 2
ENDMDL
MODEL 6
REMARK VINA RESULT:      -2.7      3.129      4.761
REMARK  2 active torsions:
REMARK  status: ('A' for Active; 'I' for Inactive)
REMARK    1  A    between atoms: C_9  and  N_1 
REMARK    2  A    between atoms: C_11  and  C_9 
ROOT
ATOM      1  N   UNL d   1      59.195  -1.097  29.098  0.00  0.00    -0.287 N 
ATOM      2  N   UNL d   1      60.533  -1.258  29.223  0.00  0.00    -0.224 NA
ATOM      3  C   UNL d   1      59.376  -1.906  28.952  0.00  0.00     0.083 A 
ATOM      4  C   UNL d   1      59.911  -0.700  29.265  0.00  0.00     0.183 A 
ATOM      5  C   UNL d   1      60.199  -2.002  29.029  0.00  0.00     0.099 A 
ATOM      6  C   UNL d   1      58.900  -2.554  28.761  0.00  0.00     0.019 A 
ATOM      7  C   UNL d   1      60.538  -2.745  28.915  0.00  0.00     0.021 A 
ATOM      8  C   UNL d   1      59.242  -3.295  28.648  0.00  0.00     0.002 A 
ATOM      9  C   UNL d   1      60.065  -3.391  28.725  0.00  0.00     0.002 A 
ATOM     10  C   UNL d   1      58.766  -3.945  28.457  0.00  0.00     0.000 C 
ATOM     11  C   UNL d   1      60.401  -4.134  28.611  0.00  0.00     0.000 C 
ENDROOT
BRANCH   1  12
ATOM     12  C   UNL d   1      58.529  -0.614  29.120  0.00  0.00     0.082 C 
BRANCH  12  13
ATOM     13  C   UNL d   1      58.423  -0.087  29.745  0.00  0.00     0.018 C 
ATOM     14  C   UNL d   1      58.021  -0.328  30.425  0.00  0.00     0.002 C 
ATOM     15  C   UNL d   1      58.718   0.682  29.692  0.00  0.00     0.002 C 
ENDBRANCH  12  13
ENDBRANCH   1  12
TORSDOF 2
ENDMDL
