MODEL 1
REMARK VINA RESULT:      15.2      0.000      0.000
REMARK  2 active torsions:
REMARK  status: ('A' for Active; 'I' for Inactive)
REMARK    1  A    between atoms: S_2  and  C_1 
REMARK    2  A    between atoms: N_3  and  S_2 
ROOT
ATOM      1  C   UNL d   1      45.747 -15.333  44.666  0.00  0.00     0.125 A 
ATOM      2  C   UNL d   1      46.025 -14.634  44.685  0.00  0.00    -0.009 A 
ATOM      3  C   UNL d   1      46.404 -14.746  44.631  0.00  0.00    -0.009 A 
ATOM      4  C   UNL d   1      44.991 -15.377  44.754  0.00  0.00     0.031 A 
ATOM      5  C   UNL d   1      46.137 -14.073  44.713  0.00  0.00    -0.007 A 
ATOM      6  C   UNL d   1      45.671 -13.781  44.791  0.00  0.00    -0.007 A 
ATOM      7  C   UNL d   1      44.657 -14.590  44.853  0.00  0.00     0.045 A 
ATOM      8  C   UNL d   1      46.328 -13.172  44.758  0.00  0.00    -0.001 A 
ATOM      9  C   UNL d   1      44.937 -13.823  44.877  0.00  0.00    -0.022 A 
ATOM     10  C   UNL d   1      45.152 -14.108  44.829  0.00  0.00    -0.022 A 
ENDROOT
BRANCH   1  11
ATOM     11  S   UNL d   1      45.463 -16.373  44.622  0.00  0.00     0.141 S 
ATOM     12  O   UNL d   1      44.670 -16.388  44.955  0.00  0.00    -0.233 OA
BRANCH  11  13
ATOM     13  N   UNL d   1      45.835 -17.108  44.350  0.00  0.00    -0.254 N 
ATOM     14  C   UNL d   1      45.910 -17.179  43.535  0.00  0.00     0.089 A 
ATOM     15  C   UNL d   1      46.236 -17.806  43.103  0.00  0.00     0.020 A 
ATOM     16  C   UNL d   1      46.560 -18.500  43.382  0.00  0.00     0.002 A 
ATOM     17  C   UNL d   1      46.647 -18.756  44.160  0.00  0.00     0.002 A 
ATOM     18  C   UNL d   1      46.426 -18.375  44.865  0.00  0.00     0.020 A 
ATOM     19  C   UNL d   1      46.065 -17.642  44.942  0.00  0.00     0.089 A 
ENDBRANCH  11  13
ENDBRANCH   1  11
TORSDOF 2
ENDMDL
MODEL 2
REMARK VINA RESULT:      16.4      7.634      8.362
REMARK  2 active torsions:
REMARK  status: ('A' for Active; 'I' for Inactive)
REMARK    1  A    between atoms: S_2  and  C_1 
REMARK    2  A    between atoms: N_3  and  S_2 
ROOT
ATOM      1  C   UNL d   1      44.952 -15.152  36.889  0.00  0.00     0.125 A 
ATOM      2  C   UNL d   1      45.440 -14.640  37.145  0.00  0.00    -0.009 A 
ATOM      3  C   UNL d   1      45.170 -14.436  37.357  0.00  0.00    -0.009 A 
ATOM      4  C   UNL d   1      45.257 -15.682  36.433  0.00  0.00     0.031 A 
ATOM      5  C   UNL d   1      45.882 -14.303  37.284  0.00  0.00    -0.007 A 
ATOM      6  C   UNL d   1      46.351 -14.481  37.044  0.00  0.00    -0.007 A 
ATOM      7  C   UNL d   1      46.101 -15.540  36.336  0.00  0.00     0.045 A 
ATOM      8  C   UNL d   1      46.588 -13.755  37.514  0.00  0.00    -0.001 A 
ATOM      9  C   UNL d   1      46.647 -14.995  36.602  0.00  0.00    -0.022 A 
ATOM     10  C   UNL d   1      46.300 -14.982  36.693  0.00  0.00    -0.022 A 
ENDROOT
BRANCH   1  11
ATOM     11  S   UNL d   1      44.168 -15.827  36.586  0.00  0.00     0.141 S 
ATOM     12  O   UNL d   1      44.582 -16.554  36.385  0.00  0.00    -0.233 OA
BRANCH  11  13
ATOM     13  N   UNL d   1      43.303 -15.785  36.514  0.00  0.00    -0.254 N 
ATOM     14  C   UNL d   1      42.926 -16.509  36.423  0.00  0.00     0.089 A 
ATOM     15  C   UNL d   1      42.116 -16.657  36.341  0.00  0.00     0.020 A 
ATOM     16  C   UNL d   1      41.500 -16.123  36.330  0.00  0.00     0.002 A 
ATOM     17  C   UNL d   1      41.525 -15.301  36.398  0.00  0.00     0.002 A 
ATOM     18  C   UNL d   1      42.183 -14.804  36.495  0.00  0.00     0.020 A 
ATOM     19  C   UNL d   1      42.972 -15.025  36.546  0.00  0.00     0.089 A 
ENDBRANCH  11  13
ENDBRANCH   1  11
TORSDOF 2
ENDMDL
