MODEL 1
REMARK VINA RESULT:      -4.1      0.000      0.000
REMARK  6 active torsions:
REMARK  status: ('A' for Active; 'I' for Inactive)
REMARK    1  A    between atoms: C_10  and  C_1 
REMARK    2  A    between atoms: C_4  and  O_8 
REMARK       I    between atoms: N_12  and  C_4 
REMARK    3  A    between atoms: O_8  and  C_13 
REMARK    4  A    between atoms: C_23  and  N_12 
REMARK    5  A    between atoms: C_24  and  N_12 
REMARK    6  A    between atoms: O_22  and  C_19 
ROOT
ATOM      1  C   UNL d   1     -41.662-122.223 -52.786  0.00  0.00     0.064 A 
ATOM      2  C   UNL d   1     -41.513-122.965 -52.425  0.00  0.00     0.199 A 
ATOM      3  C   UNL d   1     -41.456-123.021 -51.608  0.00  0.00     0.062 A 
ATOM      4  C   UNL d   1     -41.752-121.546 -52.317  0.00  0.00     0.126 A 
ATOM      5  C   UNL d   1     -41.548-122.337 -51.133  0.00  0.00     0.105 A 
ATOM      6  O   UNL d   1     -41.695-121.599 -51.481  0.00  0.00    -0.305 OA
ATOM      7  C   UNL d   1     -41.491-122.394 -50.306  0.00  0.00     0.050 A 
ATOM      8  C   UNL d   1     -41.309-123.752 -51.239  0.00  0.00     0.007 A 
ATOM      9  C   UNL d   1     -41.343-123.128 -49.956  0.00  0.00     0.107 A 
ATOM     10  O   UNL d   1     -41.424-123.637 -52.896  0.00  0.00    -0.286 OA
ATOM     11  C   UNL d   1     -41.253-123.804 -50.420  0.00  0.00     0.025 A 
ENDROOT
BRANCH   1  12
ATOM     12  C   UNL d   1     -41.718-122.172 -53.606  0.00  0.00     0.005 A 
ATOM     13  C   UNL d   1     -42.305-121.707 -53.953  0.00  0.00     0.002 A 
ATOM     14  C   UNL d   1     -42.359-121.657 -54.773  0.00  0.00     0.024 A 
ATOM     15  C   UNL d   1     -41.828-122.070 -55.246  0.00  0.00     0.094 A 
ATOM     16  C   UNL d   1     -41.238-122.537 -54.897  0.00  0.00     0.024 A 
ATOM     17  C   UNL d   1     -41.185-122.586 -54.079  0.00  0.00     0.002 A 
BRANCH  15  18
ATOM     18  O   UNL d   1     -41.880-122.022 -56.064  0.00  0.00    -0.328 OA
ATOM     19  C   UNL d   1     -41.964-121.282 -56.426  0.00  0.00     0.181 C 
ENDBRANCH  15  18
ENDBRANCH   1  12
BRANCH   9  20
ATOM     20  O   UNL d   1     -41.288-123.180 -49.136  0.00  0.00    -0.259 OA
BRANCH  20  21
ATOM     21  C   UNL d   1     -41.972-123.181 -48.678  0.00  0.00     0.377 C 
ATOM     22  N   UNL d   1     -41.924-123.032 -47.869  0.00  0.00    -0.252 N 
ATOM     23  O   UNL d   1     -42.703-123.331 -49.028  0.00  0.00    -0.237 OA
BRANCH  22  24
ATOM     24  C   UNL d   1     -42.610-123.032 -47.408  0.00  0.00     0.085 C 
ATOM     25  C   UNL d   1     -42.713-123.604 -46.824  0.00  0.00     0.021 C 
ENDBRANCH  22  24
BRANCH  22  26
ATOM     26  C   UNL d   1     -41.192-122.882 -47.519  0.00  0.00     0.085 C 
ATOM     27  C   UNL d   1     -41.151-122.461 -46.812  0.00  0.00     0.021 C 
ENDBRANCH  22  26
ENDBRANCH  20  21
ENDBRANCH   9  20
TORSDOF 6
ENDMDL
MODEL 2
REMARK VINA RESULT:      -4.1      1.754      5.838
REMARK  6 active torsions:
REMARK  status: ('A' for Active; 'I' for Inactive)
REMARK    1  A    between atoms: C_10  and  C_1 
REMARK    2  A    between atoms: C_4  and  O_8 
REMARK       I    between atoms: N_12  and  C_4 
REMARK    3  A    between atoms: O_8  and  C_13 
REMARK    4  A    between atoms: C_23  and  N_12 
REMARK    5  A    between atoms: C_24  and  N_12 
REMARK    6  A    between atoms: O_22  and  C_19 
ROOT
ATOM      1  C   UNL d   1     -41.725-123.156 -50.319  0.00  0.00     0.064 A 
ATOM      2  C   UNL d   1     -41.509-122.428 -50.675  0.00  0.00     0.199 A 
ATOM      3  C   UNL d   1     -41.471-122.365 -51.493  0.00  0.00     0.062 A 
ATOM      4  C   UNL d   1     -41.899-123.813 -50.795  0.00  0.00     0.126 A 
ATOM      5  C   UNL d   1     -41.648-123.029 -51.974  0.00  0.00     0.105 A 
ATOM      6  O   UNL d   1     -41.862-123.753 -51.631  0.00  0.00    -0.305 OA
ATOM      7  C   UNL d   1     -41.609-122.965 -52.801  0.00  0.00     0.050 A 
ATOM      8  C   UNL d   1     -41.259-121.648 -51.856  0.00  0.00     0.007 A 
ATOM      9  C   UNL d   1     -41.396-122.244 -53.146  0.00  0.00     0.107 A 
ATOM     10  O   UNL d   1     -41.336-121.777 -50.198  0.00  0.00    -0.286 OA
ATOM     11  C   UNL d   1     -41.222-121.589 -52.677  0.00  0.00     0.025 A 
ENDROOT
BRANCH   1  12
ATOM     12  C   UNL d   1     -41.761-123.215 -49.499  0.00  0.00     0.005 A 
ATOM     13  C   UNL d   1     -42.428-122.946 -49.094  0.00  0.00     0.002 A 
ATOM     14  C   UNL d   1     -42.463-123.005 -48.273  0.00  0.00     0.024 A 
ATOM     15  C   UNL d   1     -41.833-123.332 -47.858  0.00  0.00     0.094 A 
ATOM     16  C   UNL d   1     -41.164-123.603 -48.265  0.00  0.00     0.024 A 
ATOM     17  C   UNL d   1     -41.130-123.543 -49.083  0.00  0.00     0.002 A 
BRANCH  15  18
ATOM     18  O   UNL d   1     -41.866-123.393 -47.039  0.00  0.00    -0.328 OA
ATOM     19  C   UNL d   1     -42.562-123.651 -46.676  0.00  0.00     0.181 C 
ENDBRANCH  15  18
ENDBRANCH   1  12
BRANCH   9  20
ATOM     20  O   UNL d   1     -41.360-122.185 -53.967  0.00  0.00    -0.259 OA
BRANCH  20  21
ATOM     21  C   UNL d   1     -42.041-122.011 -54.396  0.00  0.00     0.377 C 
ATOM     22  N   UNL d   1     -41.995-121.907 -55.212  0.00  0.00    -0.252 N 
ATOM     23  O   UNL d   1     -42.765-121.942 -54.010  0.00  0.00    -0.237 OA
BRANCH  22  24
ATOM     24  C   UNL d   1     -42.678-121.732 -55.644  0.00  0.00     0.085 C 
ATOM     25  C   UNL d   1     -43.112-122.340 -55.992  0.00  0.00     0.021 C 
ENDBRANCH  22  24
BRANCH  22  26
ATOM     26  C   UNL d   1     -41.269-121.976 -55.598  0.00  0.00     0.085 C 
ATOM     27  C   UNL d   1     -41.225-121.876 -56.414  0.00  0.00     0.021 C 
ENDBRANCH  22  26
ENDBRANCH  20  21
ENDBRANCH   9  20
TORSDOF 6
ENDMDL
