MODEL 1
REMARK VINA RESULT:      49.9      0.000      0.000
REMARK  4 active torsions:
REMARK  status: ('A' for Active; 'I' for Inactive)
REMARK    1  A    between atoms: C_8  and  C_2 
REMARK    2  A    between atoms: C_9  and  N_3 
REMARK    3  A    between atoms: C_12  and  C_9 
REMARK    4  A    between atoms: C_14  and  C_12 
ROOT
ATOM      1  N   UNL d   1      59.162  49.515  50.259  0.00  0.00    -0.217 NA
ATOM      2  C   UNL d   1      59.073  49.547  51.075  0.00  0.00     0.149 A 
ATOM      3  N   UNL d   1      58.320  49.583  51.404  0.00  0.00    -0.290 N 
ATOM      4  C   UNL d   1      57.755  49.555  50.091  0.00  0.00     0.044 A 
ATOM      5  C   UNL d   1      58.512  49.519  49.762  0.00  0.00     0.139 A 
ATOM      6  C   UNL d   1      57.652  49.588  50.913  0.00  0.00     0.068 A 
ATOM      7  S   UNL d   1      58.601  49.487  48.955  0.00  0.00    -0.057 SA
ATOM      8  C   UNL d   1      57.096  49.560  49.602  0.00  0.00     0.004 A 
ATOM      9  C   UNL d   1      56.904  49.624  51.234  0.00  0.00     0.018 A 
ATOM     10  C   UNL d   1      56.344  49.596  49.923  0.00  0.00     0.000 A 
ATOM     11  C   UNL d   1      56.253  49.629  50.758  0.00  0.00     0.002 A 
ENDROOT
BRANCH   2  12
ATOM     12  C   UNL d   1      59.731  49.543  51.572  0.00  0.00     0.035 A 
ATOM     13  C   UNL d   1      59.633  49.621  52.383  0.00  0.00     0.003 A 
ATOM     14  C   UNL d   1      60.303  49.616  52.883  0.00  0.00     0.000 A 
ATOM     15  C   UNL d   1      61.057  49.533  52.557  0.00  0.00     0.000 A 
ATOM     16  C   UNL d   1      61.144  49.454  51.740  0.00  0.00     0.000 A 
ATOM     17  C   UNL d   1      60.487  49.459  51.246  0.00  0.00     0.003 A 
ENDBRANCH   2  12
BRANCH   3  18
ATOM     18  C   UNL d   1      58.230  49.616  52.227  0.00  0.00     0.085 C 
BRANCH  18  19
ATOM     19  C   UNL d   1      57.498  49.444  52.555  0.00  0.00     0.064 C 
BRANCH  19  20
ATOM     20  C   UNL d   1      57.323  49.690  53.322  0.00  0.00     0.236 C 
ATOM     21  O   UNL d   1      56.862  49.236  53.810  0.00  0.00    -0.283 OA
ENDBRANCH  19  20
ENDBRANCH  18  19
ENDBRANCH   3  18
TORSDOF 4
ENDMDL
