MODEL 1
REMARK VINA RESULT:      41.3      0.000      0.000
REMARK  2 active torsions:
REMARK  status: ('A' for Active; 'I' for Inactive)
REMARK    1  A    between atoms: C_13  and  C_6 
REMARK    2  A    between atoms: N_7  and  C_12 
ROOT
ATOM      1  C   UNL d   1      14.052  13.009  -2.381  0.00  0.00     0.095 A 
ATOM      2  C   UNL d   1      14.787  13.009  -1.174  0.00  0.00     0.095 A 
ATOM      3  C   UNL d   1      13.922  12.191  -2.302  0.00  0.00     0.143 A 
ATOM      4  C   UNL d   1      14.657  12.191  -1.095  0.00  0.00     0.143 A 
ATOM      5  S   UNL d   1      14.228  11.794  -1.657  0.00  0.00    -0.044 SA
ATOM      6  C   UNL d   1      14.483  13.400  -1.812  0.00  0.00     0.023 A 
ATOM      7  C   UNL d   1      15.229  13.418  -0.594  0.00  0.00     0.103 C 
ATOM      8  C   UNL d   1      13.732  13.419  -3.053  0.00  0.00     0.103 C 
ATOM      9  N   UNL d   1      13.423  13.845  -3.715  0.00  0.00    -0.191 NA
ATOM     10  N   UNL d   1      15.674  13.844  -0.015  0.00  0.00    -0.191 NA
ATOM     11  N   UNL d   1      14.968  11.779  -0.436  0.00  0.00    -0.140 N 
ATOM     12  N   UNL d   1      13.472  11.780  -2.895  0.00  0.00    -0.140 N 
ENDROOT
BRANCH   6  13
ATOM     13  C   UNL d   1      14.614  14.220  -1.891  0.00  0.00     0.002 A 
ATOM     14  C   UNL d   1      14.796  14.681  -1.239  0.00  0.00     0.002 A 
ATOM     15  C   UNL d   1      14.924  15.484  -1.317  0.00  0.00     0.024 A 
ATOM     16  C   UNL d   1      14.873  15.848  -2.048  0.00  0.00     0.127 A 
ATOM     17  C   UNL d   1      14.689  15.387  -2.707  0.00  0.00     0.024 A 
ATOM     18  C   UNL d   1      14.562  14.584  -2.629  0.00  0.00     0.002 A 
BRANCH  16  19
ATOM     19  N   UNL d   1      15.000  16.650  -2.125  0.00  0.00    -0.114 N 
ATOM     20  O   UNL d   1      14.959  16.997  -2.864  0.00  0.00    -0.532 OA
ATOM     21  O   UNL d   1      15.167  17.098  -1.470  0.00  0.00    -0.532 OA
ENDBRANCH  16  19
ENDBRANCH   6  13
TORSDOF 2
ENDMDL
MODEL 2
REMARK VINA RESULT:      42.1      2.171      3.684
REMARK  2 active torsions:
REMARK  status: ('A' for Active; 'I' for Inactive)
REMARK    1  A    between atoms: C_13  and  C_6 
REMARK    2  A    between atoms: N_7  and  C_12 
ROOT
ATOM      1  C   UNL d   1      14.068  14.468  -3.342  0.00  0.00     0.095 A 
ATOM      2  C   UNL d   1      13.365  13.354  -3.852  0.00  0.00     0.095 A 
ATOM      3  C   UNL d   1      13.911  14.888  -4.044  0.00  0.00     0.143 A 
ATOM      4  C   UNL d   1      13.208  13.773  -4.554  0.00  0.00     0.143 A 
ATOM      5  S   UNL d   1      13.482  14.531  -4.640  0.00  0.00    -0.044 SA
ATOM      6  C   UNL d   1      13.789  13.708  -3.264  0.00  0.00     0.023 A 
ATOM      7  C   UNL d   1      13.082  12.572  -3.764  0.00  0.00     0.103 C 
ATOM      8  C   UNL d   1      14.514  14.843  -2.724  0.00  0.00     0.103 C 
ATOM      9  N   UNL d   1      14.957  15.197  -2.097  0.00  0.00    -0.191 NA
ATOM     10  N   UNL d   1      12.803  11.780  -3.660  0.00  0.00    -0.191 NA
ATOM     11  N   UNL d   1      12.769  13.412  -5.168  0.00  0.00    -0.140 N 
ATOM     12  N   UNL d   1      14.201  15.684  -4.129  0.00  0.00    -0.140 N 
ENDROOT
BRANCH   6  13
ATOM     13  C   UNL d   1      13.946  13.287  -2.560  0.00  0.00     0.002 A 
ATOM     14  C   UNL d   1      14.138  13.682  -1.870  0.00  0.00     0.002 A 
ATOM     15  C   UNL d   1      14.291  13.270  -1.181  0.00  0.00     0.024 A 
ATOM     16  C   UNL d   1      14.258  12.452  -1.166  0.00  0.00     0.127 A 
ATOM     17  C   UNL d   1      14.065  12.051  -1.860  0.00  0.00     0.024 A 
ATOM     18  C   UNL d   1      13.912  12.463  -2.548  0.00  0.00     0.002 A 
BRANCH  16  19
ATOM     19  N   UNL d   1      14.412  12.041  -0.478  0.00  0.00    -0.114 N 
ATOM     20  O   UNL d   1      15.185  11.894  -0.258  0.00  0.00    -0.532 OA
ATOM     21  O   UNL d   1      13.797  11.779  -0.017  0.00  0.00    -0.532 OA
ENDBRANCH  16  19
ENDBRANCH   6  13
TORSDOF 2
ENDMDL
MODEL 3
REMARK VINA RESULT:      42.4      2.177      3.393
REMARK  2 active torsions:
REMARK  status: ('A' for Active; 'I' for Inactive)
REMARK    1  A    between atoms: C_13  and  C_6 
REMARK    2  A    between atoms: N_7  and  C_12 
ROOT
ATOM      1  C   UNL d   1      13.476  13.452  -3.905  0.00  0.00     0.095 A 
ATOM      2  C   UNL d   1      13.941  14.619  -3.256  0.00  0.00     0.095 A 
ATOM      3  C   UNL d   1      13.271  13.905  -4.572  0.00  0.00     0.143 A 
ATOM      4  C   UNL d   1      13.736  15.071  -3.923  0.00  0.00     0.143 A 
ATOM      5  S   UNL d   1      13.405  14.711  -4.570  0.00  0.00    -0.044 SA
ATOM      6  C   UNL d   1      13.807  13.822  -3.260  0.00  0.00     0.023 A 
ATOM      7  C   UNL d   1      14.281  14.991  -2.589  0.00  0.00     0.103 C 
ATOM      8  C   UNL d   1      13.335  12.615  -3.911  0.00  0.00     0.103 C 
ATOM      9  N   UNL d   1      13.203  11.779  -3.896  0.00  0.00    -0.191 NA
ATOM     10  N   UNL d   1      14.627  15.353  -1.908  0.00  0.00    -0.191 NA
ATOM     11  N   UNL d   1      13.871  15.898  -3.926  0.00  0.00    -0.140 N 
ATOM     12  N   UNL d   1      12.925  13.522  -5.248  0.00  0.00    -0.140 N 
ENDROOT
BRANCH   6  13
ATOM     13  C   UNL d   1      14.013  13.368  -2.590  0.00  0.00     0.002 A 
ATOM     14  C   UNL d   1      14.704  13.518  -2.178  0.00  0.00     0.002 A 
ATOM     15  C   UNL d   1      14.905  13.073  -1.523  0.00  0.00     0.024 A 
ATOM     16  C   UNL d   1      14.420  12.467  -1.263  0.00  0.00     0.127 A 
ATOM     17  C   UNL d   1      13.724  12.313  -1.676  0.00  0.00     0.024 A 
ATOM     18  C   UNL d   1      13.522  12.758  -2.332  0.00  0.00     0.002 A 
BRANCH  16  19
ATOM     19  N   UNL d   1      14.621  12.023  -0.609  0.00  0.00    -0.114 N 
ATOM     20  O   UNL d   1      15.400  11.807  -0.489  0.00  0.00    -0.532 OA
ATOM     21  O   UNL d   1      14.048  11.798  -0.081  0.00  0.00    -0.532 OA
ENDBRANCH  16  19
ENDBRANCH   6  13
TORSDOF 2
ENDMDL
MODEL 4
REMARK VINA RESULT:      43.5      1.582      2.802
REMARK  2 active torsions:
REMARK  status: ('A' for Active; 'I' for Inactive)
REMARK    1  A    between atoms: C_13  and  C_6 
REMARK    2  A    between atoms: N_7  and  C_12 
ROOT
ATOM      1  C   UNL d   1      14.827  14.611  -1.154  0.00  0.00     0.095 A 
ATOM      2  C   UNL d   1      14.718  13.202  -1.146  0.00  0.00     0.095 A 
ATOM      3  C   UNL d   1      15.192  14.587  -0.407  0.00  0.00     0.143 A 
ATOM      4  C   UNL d   1      15.083  13.178  -0.398  0.00  0.00     0.143 A 
ATOM      5  S   UNL d   1      15.314  13.867  -0.040  0.00  0.00    -0.044 SA
ATOM      6  C   UNL d   1      14.598  13.914  -1.506  0.00  0.00     0.023 A 
ATOM      7  C   UNL d   1      14.479  12.491  -1.515  0.00  0.00     0.103 C 
ATOM      8  C   UNL d   1      14.702  15.361  -1.532  0.00  0.00     0.103 C 
ATOM      9  N   UNL d   1      14.568  16.097  -1.927  0.00  0.00    -0.191 NA
ATOM     10  N   UNL d   1      14.233  11.780  -1.900  0.00  0.00    -0.191 NA
ATOM     11  N   UNL d   1      15.210  12.443  -0.018  0.00  0.00    -0.140 N 
ATOM     12  N   UNL d   1      15.433  15.314  -0.035  0.00  0.00    -0.140 N 
ENDROOT
BRANCH   6  13
ATOM     13  C   UNL d   1      14.232  13.938  -2.257  0.00  0.00     0.002 A 
ATOM     14  C   UNL d   1      14.216  14.630  -2.693  0.00  0.00     0.002 A 
ATOM     15  C   UNL d   1      13.857  14.653  -3.427  0.00  0.00     0.024 A 
ATOM     16  C   UNL d   1      13.506  13.985  -3.743  0.00  0.00     0.127 A 
ATOM     17  C   UNL d   1      13.521  13.286  -3.306  0.00  0.00     0.024 A 
ATOM     18  C   UNL d   1      13.879  13.263  -2.572  0.00  0.00     0.002 A 
BRANCH  16  19
ATOM     19  N   UNL d   1      13.148  14.009  -4.476  0.00  0.00    -0.114 N 
ATOM     20  O   UNL d   1      12.886  14.722  -4.776  0.00  0.00    -0.532 OA
ATOM     21  O   UNL d   1      13.054  13.325  -4.903  0.00  0.00    -0.532 OA
ENDBRANCH  16  19
ENDBRANCH   6  13
TORSDOF 2
ENDMDL
