MODEL 1
REMARK VINA RESULT:      -7.7      0.000      0.000
REMARK  3 active torsions:
REMARK  status: ('A' for Active; 'I' for Inactive)
REMARK    1  A    between atoms: C_2  and  C_1 
REMARK       I    between atoms: N_5  and  C_2 
REMARK    2  A    between atoms: C_10  and  N_5 
REMARK    3  A    between atoms: O_16  and  C_11 
ROOT
ATOM      1  C   UNL d   1     -47.957  13.399  22.697  0.00  0.00     0.281 C 
ATOM      2  N   UNL d   1     -47.303  13.452  23.193  0.00  0.00    -0.208 NA
ATOM      3  O   UNL d   1     -47.884  13.055  21.951  0.00  0.00    -0.265 OA
ENDROOT
BRANCH   1   4
ATOM      4  C   UNL d   1     -48.692  13.688  22.939  0.00  0.00     0.083 A 
ATOM      5  C   UNL d   1     -48.834  14.504  22.967  0.00  0.00     0.009 A 
ATOM      6  C   UNL d   1     -49.579  14.786  23.212  0.00  0.00     0.023 A 
ATOM      7  C   UNL d   1     -49.721  15.596  23.241  0.00  0.00     0.002 A 
ATOM      8  C   UNL d   1     -50.181  14.246  23.428  0.00  0.00     0.100 A 
ATOM      9  C   UNL d   1     -50.463  15.868  23.485  0.00  0.00     0.000 A 
ATOM     10  C   UNL d   1     -51.056  15.336  23.698  0.00  0.00     0.002 A 
ATOM     11  C   UNL d   1     -50.913  14.526  23.668  0.00  0.00     0.025 A 
ATOM     12  O   UNL d   1     -50.038  13.436  23.398  0.00  0.00    -0.305 OA
ATOM     13  C   UNL d   1     -49.294  13.148  23.154  0.00  0.00     0.127 A 
ENDBRANCH   1   4
BRANCH   2  14
ATOM     14  C   UNL d   1     -46.570  13.160  22.944  0.00  0.00     0.085 A 
ATOM     15  C   UNL d   1     -46.096  13.613  22.445  0.00  0.00     0.021 A 
ATOM     16  C   UNL d   1     -45.368  13.321  22.198  0.00  0.00     0.026 A 
ATOM     17  C   UNL d   1     -45.117  12.585  22.448  0.00  0.00     0.094 A 
ATOM     18  C   UNL d   1     -45.590  12.127  22.949  0.00  0.00     0.026 A 
ATOM     19  C   UNL d   1     -46.321  12.428  23.192  0.00  0.00     0.021 A 
BRANCH  17  20
ATOM     20  O   UNL d   1     -44.386  12.285  22.204  0.00  0.00    -0.328 OA
ATOM     21  C   UNL d   1     -43.897  12.723  21.720  0.00  0.00     0.181 C 
ENDBRANCH  17  20
ENDBRANCH   2  14
TORSDOF 3
ENDMDL
MODEL 2
REMARK VINA RESULT:      -7.5      0.930      1.195
REMARK  3 active torsions:
REMARK  status: ('A' for Active; 'I' for Inactive)
REMARK    1  A    between atoms: C_2  and  C_1 
REMARK       I    between atoms: N_5  and  C_2 
REMARK    2  A    between atoms: C_10  and  N_5 
REMARK    3  A    between atoms: O_16  and  C_11 
ROOT
ATOM      1  C   UNL d   1     -48.131  12.706  22.794  0.00  0.00     0.281 C 
ATOM      2  N   UNL d   1     -47.646  12.664  23.457  0.00  0.00    -0.208 NA
ATOM      3  O   UNL d   1     -47.904  12.337  22.092  0.00  0.00    -0.265 OA
ENDROOT
BRANCH   1   4
ATOM      4  C   UNL d   1     -48.847  13.117  22.821  0.00  0.00     0.083 A 
ATOM      5  C   UNL d   1     -48.856  13.943  22.885  0.00  0.00     0.009 A 
ATOM      6  C   UNL d   1     -49.583  14.347  22.912  0.00  0.00     0.023 A 
ATOM      7  C   UNL d   1     -49.593  15.168  22.975  0.00  0.00     0.002 A 
ATOM      8  C   UNL d   1     -50.302  13.920  22.874  0.00  0.00     0.100 A 
ATOM      9  C   UNL d   1     -50.320  15.563  23.001  0.00  0.00     0.000 A 
ATOM     10  C   UNL d   1     -51.028  15.142  22.964  0.00  0.00     0.002 A 
ATOM     11  C   UNL d   1     -51.017  14.321  22.901  0.00  0.00     0.025 A 
ATOM     12  O   UNL d   1     -50.291  13.100  22.811  0.00  0.00    -0.305 OA
ATOM     13  C   UNL d   1     -49.565  12.689  22.784  0.00  0.00     0.127 A 
ENDBRANCH   1   4
BRANCH   2  14
ATOM     14  C   UNL d   1     -46.931  12.251  23.421  0.00  0.00     0.085 A 
ATOM     15  C   UNL d   1     -46.261  12.617  23.109  0.00  0.00     0.021 A 
ATOM     16  C   UNL d   1     -45.550  12.204  23.075  0.00  0.00     0.026 A 
ATOM     17  C   UNL d   1     -45.510  11.436  23.349  0.00  0.00     0.094 A 
ATOM     18  C   UNL d   1     -46.179  11.066  23.663  0.00  0.00     0.026 A 
ATOM     19  C   UNL d   1     -46.891  11.487  23.694  0.00  0.00     0.021 A 
BRANCH  17  20
ATOM     20  O   UNL d   1     -44.799  11.015  23.317  0.00  0.00    -0.328 OA
ATOM     21  C   UNL d   1     -44.729  10.290  23.685  0.00  0.00     0.181 C 
ENDBRANCH  17  20
ENDBRANCH   2  14
TORSDOF 3
ENDMDL
MODEL 3
REMARK VINA RESULT:      -7.1      1.082      4.898
REMARK  3 active torsions:
REMARK  status: ('A' for Active; 'I' for Inactive)
REMARK    1  A    between atoms: C_2  and  C_1 
REMARK       I    between atoms: N_5  and  C_2 
REMARK    2  A    between atoms: C_10  and  N_5 
REMARK    3  A    between atoms: O_16  and  C_11 
ROOT
ATOM      1  C   UNL d   1     -47.388  13.768  22.994  0.00  0.00     0.281 C 
ATOM      2  N   UNL d   1     -48.156  13.536  22.813  0.00  0.00    -0.208 NA
ATOM      3  O   UNL d   1     -47.228  14.554  23.186  0.00  0.00    -0.265 OA
ENDROOT
BRANCH   1   4
ATOM      4  C   UNL d   1     -46.770  13.220  22.987  0.00  0.00     0.083 A 
ATOM      5  C   UNL d   1     -46.860  12.481  23.350  0.00  0.00     0.009 A 
ATOM      6  C   UNL d   1     -46.230  11.936  23.337  0.00  0.00     0.023 A 
ATOM      7  C   UNL d   1     -46.317  11.201  23.698  0.00  0.00     0.002 A 
ATOM      8  C   UNL d   1     -45.511  12.135  22.958  0.00  0.00     0.100 A 
ATOM      9  C   UNL d   1     -45.688  10.665  23.681  0.00  0.00     0.000 A 
ATOM     10  C   UNL d   1     -44.979  10.861  23.307  0.00  0.00     0.002 A 
ATOM     11  C   UNL d   1     -44.893  11.595  22.947  0.00  0.00     0.025 A 
ATOM     12  O   UNL d   1     -45.425  12.869  22.598  0.00  0.00    -0.305 OA
ATOM     13  C   UNL d   1     -46.051  13.419  22.608  0.00  0.00     0.127 A 
ENDBRANCH   1   4
BRANCH   2  14
ATOM     14  C   UNL d   1     -48.770  14.091  22.823  0.00  0.00     0.085 A 
ATOM     15  C   UNL d   1     -49.277  14.130  23.472  0.00  0.00     0.021 A 
ATOM     16  C   UNL d   1     -49.886  14.682  23.480  0.00  0.00     0.026 A 
ATOM     17  C   UNL d   1     -49.987  15.188  22.847  0.00  0.00     0.094 A 
ATOM     18  C   UNL d   1     -49.481  15.152  22.194  0.00  0.00     0.026 A 
ATOM     19  C   UNL d   1     -48.870  14.594  22.194  0.00  0.00     0.021 A 
BRANCH  17  20
ATOM     20  O   UNL d   1     -50.598  15.746  22.848  0.00  0.00    -0.328 OA
ATOM     21  C   UNL d   1     -50.999  15.922  23.536  0.00  0.00     0.181 C 
ENDBRANCH  17  20
ENDBRANCH   2  14
TORSDOF 3
ENDMDL
MODEL 4
REMARK VINA RESULT:      -6.6      1.645      2.064
REMARK  3 active torsions:
REMARK  status: ('A' for Active; 'I' for Inactive)
REMARK    1  A    between atoms: C_2  and  C_1 
REMARK       I    between atoms: N_5  and  C_2 
REMARK    2  A    between atoms: C_10  and  N_5 
REMARK    3  A    between atoms: O_16  and  C_11 
ROOT
ATOM      1  C   UNL d   1     -47.798  11.848  22.876  0.00  0.00     0.281 C 
ATOM      2  N   UNL d   1     -47.190  12.167  23.330  0.00  0.00    -0.208 NA
ATOM      3  O   UNL d   1     -47.672  11.157  22.443  0.00  0.00    -0.265 OA
ENDROOT
BRANCH   1   4
ATOM      4  C   UNL d   1     -48.539  12.212  22.850  0.00  0.00     0.083 A 
ATOM      5  C   UNL d   1     -48.832  12.516  22.137  0.00  0.00     0.009 A 
ATOM      6  C   UNL d   1     -49.581  12.881  22.121  0.00  0.00     0.023 A 
ATOM      7  C   UNL d   1     -49.873  13.184  21.414  0.00  0.00     0.002 A 
ATOM      8  C   UNL d   1     -50.034  12.940  22.822  0.00  0.00     0.100 A 
ATOM      9  C   UNL d   1     -50.617  13.545  21.405  0.00  0.00     0.000 A 
ATOM     10  C   UNL d   1     -51.064  13.603  22.097  0.00  0.00     0.002 A 
ATOM     11  C   UNL d   1     -50.770  13.301  22.803  0.00  0.00     0.025 A 
ATOM     12  O   UNL d   1     -49.740  12.637  23.529  0.00  0.00    -0.305 OA
ATOM     13  C   UNL d   1     -48.992  12.271  23.551  0.00  0.00     0.127 A 
ENDBRANCH   1   4
BRANCH   2  14
ATOM     14  C   UNL d   1     -46.451  11.796  23.351  0.00  0.00     0.085 A 
ATOM     15  C   UNL d   1     -46.380  11.042  23.677  0.00  0.00     0.021 A 
ATOM     16  C   UNL d   1     -45.644  10.676  23.698  0.00  0.00     0.026 A 
ATOM     17  C   UNL d   1     -44.989  11.057  23.396  0.00  0.00     0.094 A 
ATOM     18  C   UNL d   1     -45.056  11.814  23.068  0.00  0.00     0.026 A 
ATOM     19  C   UNL d   1     -45.799  12.176  23.051  0.00  0.00     0.021 A 
BRANCH  17  20
ATOM     20  O   UNL d   1     -44.245  10.695  23.413  0.00  0.00    -0.328 OA
ATOM     21  C   UNL d   1     -44.173   9.904  23.601  0.00  0.00     0.181 C 
ENDBRANCH  17  20
ENDBRANCH   2  14
TORSDOF 3
ENDMDL
MODEL 5
REMARK VINA RESULT:      -6.6      8.526      9.365
REMARK  3 active torsions:
REMARK  status: ('A' for Active; 'I' for Inactive)
REMARK    1  A    between atoms: C_2  and  C_1 
REMARK       I    between atoms: N_5  and  C_2 
REMARK    2  A    between atoms: C_10  and  N_5 
REMARK    3  A    between atoms: O_16  and  C_11 
ROOT
ATOM      1  C   UNL d   1     -40.169  14.893  20.300  0.00  0.00     0.281 C 
ATOM      2  N   UNL d   1     -39.747  15.100  19.625  0.00  0.00    -0.208 NA
ATOM      3  O   UNL d   1     -40.974  14.721  20.248  0.00  0.00    -0.265 OA
ENDROOT
BRANCH   1   4
ATOM      4  C   UNL d   1     -39.794  14.855  21.035  0.00  0.00     0.083 A 
ATOM      5  C   UNL d   1     -39.492  14.137  21.316  0.00  0.00     0.009 A 
ATOM      6  C   UNL d   1     -39.116  14.110  22.059  0.00  0.00     0.023 A 
ATOM      7  C   UNL d   1     -38.815  13.397  22.340  0.00  0.00     0.002 A 
ATOM      8  C   UNL d   1     -39.045  14.805  22.519  0.00  0.00     0.100 A 
ATOM      9  C   UNL d   1     -38.443  13.377  23.078  0.00  0.00     0.000 A 
ATOM     10  C   UNL d   1     -38.373  14.063  23.532  0.00  0.00     0.002 A 
ATOM     11  C   UNL d   1     -38.674  14.775  23.251  0.00  0.00     0.025 A 
ATOM     12  O   UNL d   1     -39.346  15.517  22.238  0.00  0.00    -0.305 OA
ATOM     13  C   UNL d   1     -39.724  15.551  21.495  0.00  0.00     0.127 A 
ENDBRANCH   1   4
BRANCH   2  14
ATOM     14  C   UNL d   1     -40.129  15.136  18.893  0.00  0.00     0.085 A 
ATOM     15  C   UNL d   1     -40.186  14.458  18.427  0.00  0.00     0.021 A 
ATOM     16  C   UNL d   1     -40.566  14.496  17.698  0.00  0.00     0.026 A 
ATOM     17  C   UNL d   1     -40.885  15.201  17.440  0.00  0.00     0.094 A 
ATOM     18  C   UNL d   1     -40.830  15.883  17.904  0.00  0.00     0.026 A 
ATOM     19  C   UNL d   1     -40.446  15.838  18.636  0.00  0.00     0.021 A 
BRANCH  17  20
ATOM     20  O   UNL d   1     -41.269  15.247  16.709  0.00  0.00    -0.328 OA
ATOM     21  C   UNL d   1     -41.678  15.920  16.496  0.00  0.00     0.181 C 
ENDBRANCH  17  20
ENDBRANCH   2  14
TORSDOF 3
ENDMDL
MODEL 6
REMARK VINA RESULT:      -5.8      8.366      9.175
REMARK  3 active torsions:
REMARK  status: ('A' for Active; 'I' for Inactive)
REMARK    1  A    between atoms: C_2  and  C_1 
REMARK       I    between atoms: N_5  and  C_2 
REMARK    2  A    between atoms: C_10  and  N_5 
REMARK    3  A    between atoms: O_16  and  C_11 
ROOT
ATOM      1  C   UNL d   1     -40.064  14.659  20.384  0.00  0.00     0.281 C 
ATOM      2  N   UNL d   1     -39.303  14.785  20.671  0.00  0.00    -0.208 NA
ATOM      3  O   UNL d   1     -40.611  14.236  20.834  0.00  0.00    -0.265 OA
ENDROOT
BRANCH   1   4
ATOM      4  C   UNL d   1     -40.288  14.951  19.645  0.00  0.00     0.083 A 
ATOM      5  C   UNL d   1     -40.025  14.584  18.950  0.00  0.00     0.009 A 
ATOM      6  C   UNL d   1     -40.258  14.887  18.210  0.00  0.00     0.023 A 
ATOM      7  C   UNL d   1     -39.998  14.523  17.519  0.00  0.00     0.002 A 
ATOM      8  C   UNL d   1     -40.755  15.559  18.169  0.00  0.00     0.100 A 
ATOM      9  C   UNL d   1     -40.232  14.829  16.787  0.00  0.00     0.000 A 
ATOM     10  C   UNL d   1     -40.722  15.492  16.747  0.00  0.00     0.002 A 
ATOM     11  C   UNL d   1     -40.982  15.855  17.438  0.00  0.00     0.025 A 
ATOM     12  O   UNL d   1     -41.014  15.922  18.860  0.00  0.00    -0.305 OA
ATOM     13  C   UNL d   1     -40.785  15.623  19.604  0.00  0.00     0.127 A 
ENDBRANCH   1   4
BRANCH   2  14
ATOM     14  C   UNL d   1     -39.086  14.489  21.412  0.00  0.00     0.085 A 
ATOM     15  C   UNL d   1     -38.753  13.737  21.472  0.00  0.00     0.021 A 
ATOM     16  C   UNL d   1     -38.538  13.445  22.210  0.00  0.00     0.026 A 
ATOM     17  C   UNL d   1     -38.653  13.898  22.879  0.00  0.00     0.094 A 
ATOM     18  C   UNL d   1     -38.987  14.652  22.823  0.00  0.00     0.026 A 
ATOM     19  C   UNL d   1     -39.201  14.940  22.078  0.00  0.00     0.021 A 
BRANCH  17  20
ATOM     20  O   UNL d   1     -38.439  13.610  23.624  0.00  0.00    -0.328 OA
ATOM     21  C   UNL d   1     -38.015  12.917  23.696  0.00  0.00     0.181 C 
ENDBRANCH  17  20
ENDBRANCH   2  14
TORSDOF 3
ENDMDL
MODEL 7
REMARK VINA RESULT:      -5.5      8.318     10.052
REMARK  3 active torsions:
REMARK  status: ('A' for Active; 'I' for Inactive)
REMARK    1  A    between atoms: C_2  and  C_1 
REMARK       I    between atoms: N_5  and  C_2 
REMARK    2  A    between atoms: C_10  and  N_5 
REMARK    3  A    between atoms: O_16  and  C_11 
ROOT
ATOM      1  C   UNL d   1     -39.623  14.579  18.164  0.00  0.00     0.281 C 
ATOM      2  N   UNL d   1     -38.947  14.864  17.791  0.00  0.00    -0.208 NA
ATOM      3  O   UNL d   1     -40.048  13.957  17.829  0.00  0.00    -0.265 OA
ENDROOT
BRANCH   1   4
ATOM      4  C   UNL d   1     -39.882  14.910  18.875  0.00  0.00     0.083 A 
ATOM      5  C   UNL d   1     -39.488  14.744  19.585  0.00  0.00     0.009 A 
ATOM      6  C   UNL d   1     -39.758  15.083  20.296  0.00  0.00     0.023 A 
ATOM      7  C   UNL d   1     -39.368  14.919  21.002  0.00  0.00     0.002 A 
ATOM      8  C   UNL d   1     -40.425  15.589  20.293  0.00  0.00     0.100 A 
ATOM      9  C   UNL d   1     -39.642  15.259  21.704  0.00  0.00     0.000 A 
ATOM     10  C   UNL d   1     -40.299  15.758  21.701  0.00  0.00     0.002 A 
ATOM     11  C   UNL d   1     -40.688  15.922  20.995  0.00  0.00     0.025 A 
ATOM     12  O   UNL d   1     -40.815  15.753  19.587  0.00  0.00    -0.305 OA
ATOM     13  C   UNL d   1     -40.549  15.416  18.872  0.00  0.00     0.127 A 
ENDBRANCH   1   4
BRANCH   2  14
ATOM     14  C   UNL d   1     -38.693  14.527  17.080  0.00  0.00     0.085 A 
ATOM     15  C   UNL d   1     -38.221  13.852  17.092  0.00  0.00     0.021 A 
ATOM     16  C   UNL d   1     -37.970  13.518  16.383  0.00  0.00     0.026 A 
ATOM     17  C   UNL d   1     -38.188  13.856  15.673  0.00  0.00     0.094 A 
ATOM     18  C   UNL d   1     -38.662  14.534  15.657  0.00  0.00     0.026 A 
ATOM     19  C   UNL d   1     -38.911  14.863  16.373  0.00  0.00     0.021 A 
BRANCH  17  20
ATOM     20  O   UNL d   1     -37.940  13.526  14.956  0.00  0.00    -0.328 OA
ATOM     21  C   UNL d   1     -38.236  13.801  14.247  0.00  0.00     0.181 C 
ENDBRANCH  17  20
ENDBRANCH   2  14
TORSDOF 3
ENDMDL
