MODEL 1
REMARK VINA RESULT:      13.6      0.000      0.000
REMARK  4 active torsions:
REMARK  status: ('A' for Active; 'I' for Inactive)
REMARK    1  A    between atoms: C_2  and  S_1 
REMARK    2  A    between atoms: C_5  and  S_1 
REMARK    3  A    between atoms: C_7  and  C_5 
REMARK       I    between atoms: N_11  and  C_7 
REMARK    4  A    between atoms: C_14  and  N_11 
ROOT
ATOM      1  S   UNL d   1      45.896 -17.089  44.122  0.00  0.00     0.217 S 
ATOM      2  O   UNL d   1      45.171 -16.981  43.732  0.00  0.00    -0.217 OA
ATOM      3  O   UNL d   1      46.624 -17.198  44.513  0.00  0.00    -0.217 OA
ENDROOT
BRANCH   1   4
ATOM      4  C   UNL d   1      46.111 -17.665  43.569  0.00  0.00     0.109 A 
ATOM      5  C   UNL d   1      46.205 -17.549  42.759  0.00  0.00     0.110 A 
ATOM      6  N   UNL d   1      46.420 -18.265  42.420  0.00  0.00    -0.243 NA
ATOM      7  C   UNL d   1      46.459 -18.829  43.024  0.00  0.00     0.082 A 
ATOM      8  C   UNL d   1      46.268 -18.453  43.729  0.00  0.00     0.030 A 
ATOM      9  C   UNL d   1      46.645 -19.633  43.017  0.00  0.00     0.019 A 
ATOM     10  C   UNL d   1      46.260 -18.880  44.436  0.00  0.00     0.002 A 
ATOM     11  C   UNL d   1      46.445 -19.683  44.430  0.00  0.00     0.000 A 
ATOM     12  C   UNL d   1      46.636 -20.055  43.724  0.00  0.00     0.002 A 
ENDBRANCH   1   4
BRANCH   1  13
ATOM     13  C   UNL d   1      45.684 -16.506  44.686  0.00  0.00     0.161 C 
BRANCH  13  14
ATOM     14  C   UNL d   1      45.804 -15.706  44.505  0.00  0.00     0.291 C 
ATOM     15  N   UNL d   1      45.238 -15.154  44.741  0.00  0.00    -0.207 NA
ATOM     16  O   UNL d   1      46.471 -15.463  44.099  0.00  0.00    -0.264 OA
BRANCH  15  17
ATOM     17  C   UNL d   1      45.353 -14.354  44.563  0.00  0.00     0.085 A 
ATOM     18  C   UNL d   1      44.885 -13.977  43.997  0.00  0.00     0.019 A 
ATOM     19  C   UNL d   1      45.003 -13.177  43.823  0.00  0.00     0.002 A 
ATOM     20  C   UNL d   1      45.594 -12.746  44.215  0.00  0.00     0.000 A 
ATOM     21  C   UNL d   1      46.061 -13.128  44.781  0.00  0.00     0.002 A 
ATOM     22  C   UNL d   1      45.939 -13.926  44.952  0.00  0.00     0.019 A 
ENDBRANCH  15  17
ENDBRANCH  13  14
ENDBRANCH   1  13
TORSDOF 4
ENDMDL
MODEL 2
REMARK VINA RESULT:      14.1      1.094      4.826
REMARK  4 active torsions:
REMARK  status: ('A' for Active; 'I' for Inactive)
REMARK    1  A    between atoms: C_2  and  S_1 
REMARK    2  A    between atoms: C_5  and  S_1 
REMARK    3  A    between atoms: C_7  and  C_5 
REMARK       I    between atoms: N_11  and  C_7 
REMARK    4  A    between atoms: C_14  and  N_11 
ROOT
ATOM      1  S   UNL d   1      45.498 -14.885  44.663  0.00  0.00     0.217 S 
ATOM      2  O   UNL d   1      46.256 -15.120  44.417  0.00  0.00    -0.217 OA
ATOM      3  O   UNL d   1      44.737 -14.648  44.909  0.00  0.00    -0.217 OA
ENDROOT
BRANCH   1   4
ATOM      4  C   UNL d   1      45.710 -14.092  44.568  0.00  0.00     0.109 A 
ATOM      5  C   UNL d   1      46.329 -13.706  44.951  0.00  0.00     0.110 A 
ATOM      6  N   UNL d   1      46.342 -12.925  44.695  0.00  0.00    -0.243 NA
ATOM      7  C   UNL d   1      45.728 -12.828  44.150  0.00  0.00     0.082 A 
ATOM      8  C   UNL d   1      45.343 -13.549  44.076  0.00  0.00     0.030 A 
ATOM      9  C   UNL d   1      45.475 -12.173  43.715  0.00  0.00     0.019 A 
ATOM     10  C   UNL d   1      44.698 -13.623  43.564  0.00  0.00     0.002 A 
ATOM     11  C   UNL d   1      44.445 -12.970  43.130  0.00  0.00     0.000 A 
ATOM     12  C   UNL d   1      44.833 -12.251  43.206  0.00  0.00     0.002 A 
ENDBRANCH   1   4
BRANCH   1  13
ATOM     13  C   UNL d   1      45.276 -15.688  44.762  0.00  0.00     0.161 C 
BRANCH  13  14
ATOM     14  C   UNL d   1      45.680 -16.274  44.338  0.00  0.00     0.291 C 
ATOM     15  N   UNL d   1      45.439 -17.060  44.413  0.00  0.00    -0.207 NA
ATOM     16  O   UNL d   1      46.309 -16.082  43.852  0.00  0.00    -0.264 OA
BRANCH  15  17
ATOM     17  C   UNL d   1      45.840 -17.649  43.992  0.00  0.00     0.085 A 
ATOM     18  C   UNL d   1      46.219 -18.266  44.388  0.00  0.00     0.019 A 
ATOM     19  C   UNL d   1      46.618 -18.852  43.963  0.00  0.00     0.002 A 
ATOM     20  C   UNL d   1      46.640 -18.826  43.134  0.00  0.00     0.000 A 
ATOM     21  C   UNL d   1      46.259 -18.207  42.741  0.00  0.00     0.002 A 
ATOM     22  C   UNL d   1      45.862 -17.623  43.169  0.00  0.00     0.019 A 
ENDBRANCH  15  17
ENDBRANCH  13  14
ENDBRANCH   1  13
TORSDOF 4
ENDMDL
MODEL 3
REMARK VINA RESULT:      16.3      0.908      4.666
REMARK  4 active torsions:
REMARK  status: ('A' for Active; 'I' for Inactive)
REMARK    1  A    between atoms: C_2  and  S_1 
REMARK    2  A    between atoms: C_5  and  S_1 
REMARK    3  A    between atoms: C_7  and  C_5 
REMARK       I    between atoms: N_11  and  C_7 
REMARK    4  A    between atoms: C_14  and  N_11 
ROOT
ATOM      1  S   UNL d   1      45.642 -15.838  44.803  0.00  0.00     0.217 S 
ATOM      2  O   UNL d   1      44.992 -16.333  44.657  0.00  0.00    -0.217 OA
ATOM      3  O   UNL d   1      46.294 -15.339  44.950  0.00  0.00    -0.217 OA
ENDROOT
BRANCH   1   4
ATOM      4  C   UNL d   1      45.158 -15.173  44.719  0.00  0.00     0.109 A 
ATOM      5  C   UNL d   1      44.370 -15.114  44.953  0.00  0.00     0.110 A 
ATOM      6  N   UNL d   1      44.103 -14.360  44.766  0.00  0.00    -0.243 NA
ATOM      7  C   UNL d   1      44.729 -13.950  44.415  0.00  0.00     0.082 A 
ATOM      8  C   UNL d   1      45.376 -14.456  44.389  0.00  0.00     0.030 A 
ATOM      9  C   UNL d   1      44.787 -13.182  44.118  0.00  0.00     0.019 A 
ATOM     10  C   UNL d   1      46.090 -14.197  44.065  0.00  0.00     0.002 A 
ATOM     11  C   UNL d   1      46.149 -13.430  43.768  0.00  0.00     0.000 A 
ATOM     12  C   UNL d   1      45.501 -12.928  43.796  0.00  0.00     0.002 A 
ENDBRANCH   1   4
BRANCH   1  13
ATOM     13  C   UNL d   1      46.139 -16.508  44.890  0.00  0.00     0.161 C 
BRANCH  13  14
ATOM     14  C   UNL d   1      46.140 -17.089  44.301  0.00  0.00     0.291 C 
ATOM     15  N   UNL d   1      46.387 -17.854  44.492  0.00  0.00    -0.207 NA
ATOM     16  O   UNL d   1      45.901 -16.915  43.538  0.00  0.00    -0.264 OA
BRANCH  15  17
ATOM     17  C   UNL d   1      46.390 -18.438  43.907  0.00  0.00     0.085 A 
ATOM     18  C   UNL d   1      46.342 -19.237  44.109  0.00  0.00     0.019 A 
ATOM     19  C   UNL d   1      46.345 -19.818  43.520  0.00  0.00     0.002 A 
ATOM     20  C   UNL d   1      46.397 -19.602  42.720  0.00  0.00     0.000 A 
ATOM     21  C   UNL d   1      46.445 -18.801  42.522  0.00  0.00     0.002 A 
ATOM     22  C   UNL d   1      46.441 -18.224  43.113  0.00  0.00     0.019 A 
ENDBRANCH  15  17
ENDBRANCH  13  14
ENDBRANCH   1  13
TORSDOF 4
ENDMDL
