MODEL 1
REMARK VINA RESULT:      40.4      0.000      0.000
REMARK  5 active torsions:
REMARK  status: ('A' for Active; 'I' for Inactive)
REMARK    1  A    between atoms: C_5  and  S_1 
REMARK    2  A    between atoms: C_12  and  S_1 
REMARK    3  A    between atoms: C_2  and  N_6 
REMARK    4  A    between atoms: C_13  and  C_4 
REMARK    5  A    between atoms: C_7  and  C_5 
REMARK       I    between atoms: N_6  and  C_7 
ROOT
ATOM      1  N   UNL d   1      13.324  13.196  -3.284  0.00  0.00    -0.182 NA
ATOM      2  C   UNL d   1      13.291  12.405  -3.514  0.00  0.00     0.293 C 
ATOM      3  O   UNL d   1      13.411  12.183  -4.294  0.00  0.00    -0.264 OA
ENDROOT
BRANCH   1   4
ATOM      4  C   UNL d   1      13.480  13.776  -3.846  0.00  0.00     0.197 A 
ATOM      5  N   UNL d   1      13.914  14.476  -3.713  0.00  0.00    -0.221 NA
ATOM      6  C   UNL d   1      13.938  14.905  -4.429  0.00  0.00     0.090 A 
ATOM      7  C   UNL d   1      13.512  14.459  -5.002  0.00  0.00     0.058 A 
ATOM      8  S   UNL d   1      13.235  13.767  -4.634  0.00  0.00    -0.046 SA
BRANCH   6   9
ATOM      9  C   UNL d   1      14.310  15.632  -4.552  0.00  0.00     0.018 A 
ATOM     10  C   UNL d   1      14.526  16.086  -3.912  0.00  0.00     0.004 A 
ATOM     11  C   UNL d   1      14.895  16.807  -4.023  0.00  0.00     0.030 A 
ATOM     12  C   UNL d   1      15.049  17.076  -4.789  0.00  0.00     0.140 A 
ATOM     13  C   UNL d   1      14.831  16.617  -5.440  0.00  0.00     0.030 A 
ATOM     14  F   UNL d   1      15.422  17.805  -4.908  0.00  0.00    -0.204 F 
ATOM     15  C   UNL d   1      14.458  15.890  -5.318  0.00  0.00     0.004 A 
ENDBRANCH   6   9
ENDBRANCH   1   4
BRANCH   2  16
ATOM     16  C   UNL d   1      13.134  11.820  -2.948  0.00  0.00     0.161 C 
BRANCH  16  17
ATOM     17  S   UNL d   1      13.552  11.813  -2.232  0.00  0.00     0.215 S 
ATOM     18  O   UNL d   1      14.273  11.846  -2.659  0.00  0.00    -0.217 OA
ATOM     19  O   UNL d   1      12.836  11.779  -1.816  0.00  0.00    -0.217 OA
BRANCH  17  20
ATOM     20  C   UNL d   1      13.969  11.806  -1.516  0.00  0.00     0.088 A 
ATOM     21  C   UNL d   1      14.787  11.813  -1.519  0.00  0.00     0.011 A 
ATOM     22  C   UNL d   1      15.204  11.806  -0.803  0.00  0.00     0.001 A 
ATOM     23  C   UNL d   1      14.791  11.791  -0.094  0.00  0.00     0.000 A 
ATOM     24  C   UNL d   1      13.973  11.784  -0.092  0.00  0.00     0.001 A 
ATOM     25  C   UNL d   1      13.556  11.791  -0.798  0.00  0.00     0.011 A 
ENDBRANCH  17  20
ENDBRANCH  16  17
ENDBRANCH   2  16
TORSDOF 5
ENDMDL
