MODEL 1
REMARK VINA RESULT:      11.2      0.000      0.000
REMARK  5 active torsions:
REMARK  status: ('A' for Active; 'I' for Inactive)
REMARK    1  A    between atoms: O_5  and  C_1 
REMARK    2  A    between atoms: C_10  and  C_2 
REMARK    3  A    between atoms: C_3  and  O_5 
REMARK    4  A    between atoms: C_6  and  C_3 
REMARK    5  A    between atoms: N_11  and  C_10 
ROOT
ATOM      1  C   UNL d   1     -41.796-122.110 -52.173  0.00  0.00     0.122 A 
ATOM      2  C   UNL d   1     -41.407-121.383 -52.200  0.00  0.00     0.043 A 
ATOM      3  C   UNL d   1     -41.983-122.503 -52.873  0.00  0.00     0.105 A 
ATOM      4  C   UNL d   1     -41.781-122.171 -53.600  0.00  0.00     0.030 A 
ATOM      5  C   UNL d   1     -41.393-121.448 -53.618  0.00  0.00     0.059 A 
ATOM      6  C   UNL d   1     -41.204-121.051 -52.927  0.00  0.00     0.015 A 
ATOM      7  N   UNL d   1     -42.370-123.223 -52.842  0.00  0.00    -0.242 NA
ATOM      8 CL   UNL d   1     -41.198-121.131 -54.366  0.00  0.00    -0.082 Cl
ATOM      9  C   UNL d   1     -41.967-122.562 -54.288  0.00  0.00     0.004 A 
ATOM     10  C   UNL d   1     -42.557-123.617 -53.542  0.00  0.00     0.099 A 
ATOM     11  C   UNL d   1     -42.354-123.284 -54.269  0.00  0.00     0.021 A 
ENDROOT
BRANCH   1  12
ATOM     12  O   UNL d   1     -41.984-122.420 -51.519  0.00  0.00    -0.271 OA
BRANCH  12  13
ATOM     13  C   UNL d   1     -42.475-122.225 -50.713  0.00  0.00     0.302 C 
ATOM     14  O   UNL d   1     -43.150-121.487 -50.811  0.00  0.00    -0.259 OA
BRANCH  13  15
ATOM     15  C   UNL d   1     -42.335-122.640 -50.015  0.00  0.00     0.091 A 
ATOM     16  C   UNL d   1     -42.910-123.165 -49.724  0.00  0.00     0.145 A 
ATOM     17  F   UNL d   1     -43.680-123.317 -50.112  0.00  0.00    -0.204 F 
ATOM     18  C   UNL d   1     -42.765-123.584 -49.017  0.00  0.00     0.030 A 
ATOM     19  C   UNL d   1     -42.048-123.479 -48.602  0.00  0.00     0.002 A 
ATOM     20  C   UNL d   1     -41.476-122.955 -48.897  0.00  0.00     0.000 A 
ATOM     21  C   UNL d   1     -41.622-122.536 -49.603  0.00  0.00     0.008 A 
ENDBRANCH  13  15
ENDBRANCH  12  13
ENDBRANCH   1  12
BRANCH   2  22
ATOM     22  C   UNL d   1     -41.124-120.813 -51.550  0.00  0.00     0.082 C 
BRANCH  22  23
ATOM     23  N   UNL d   1     -41.123-120.005 -51.693  0.00  0.00    -0.299 N 
ATOM     24  C   UNL d   1     -41.123-119.482 -51.066  0.00  0.00     0.107 A 
ATOM     25  C   UNL d   1     -41.123-118.665 -51.196  0.00  0.00     0.142 A 
ATOM     26  O   UNL d   1     -41.123-118.386 -51.962  0.00  0.00    -0.300 OA
ATOM     27  C   UNL d   1     -41.124-118.915 -52.601  0.00  0.00     0.142 A 
ATOM     28  C   UNL d   1     -41.124-119.721 -52.455  0.00  0.00     0.107 A 
ENDBRANCH  22  23
ENDBRANCH   2  22
TORSDOF 5
ENDMDL
