MODEL 1
REMARK VINA RESULT:      -4.6      0.000      0.000
REMARK  5 active torsions:
REMARK  status: ('A' for Active; 'I' for Inactive)
REMARK    1  A    between atoms: C_7  and  N_2 
REMARK    2  A    between atoms: C_15  and  C_7 
REMARK    3  A    between atoms: C_8  and  O_14 
REMARK    4  A    between atoms: O_17  and  C_9 
REMARK    5  A    between atoms: O_14  and  C_15 
ROOT
ATOM      1  C   UNL d   1      58.312  -0.359  29.694  0.00  0.00     0.110 C 
ENDROOT
BRANCH   1   2
ATOM      2  N   UNL d   1      59.099  -0.566  29.541  0.00  0.00    -0.266 N 
ATOM      3  C   UNL d   1      59.786  -0.104  29.615  0.00  0.00     0.296 A 
ATOM      4  S   UNL d   1      60.436  -0.572  29.393  0.00  0.00    -0.025 SA
ATOM      5  O   UNL d   1      59.810   0.682  29.867  0.00  0.00    -0.259 OA
ATOM      6  C   UNL d   1      60.147  -1.320  29.182  0.00  0.00     0.050 A 
ATOM      7  C   UNL d   1      60.528  -2.014  28.917  0.00  0.00     0.008 A 
ATOM      8  C   UNL d   1      59.327  -1.318  29.273  0.00  0.00     0.074 A 
ATOM      9  C   UNL d   1      60.089  -2.688  28.746  0.00  0.00     0.001 A 
ATOM     10  C   UNL d   1      59.269  -2.683  28.838  0.00  0.00     0.002 A 
ATOM     11  C   UNL d   1      58.888  -2.002  29.100  0.00  0.00     0.018 A 
ENDBRANCH   1   2
BRANCH   1  12
ATOM     12  C   UNL d   1      58.053  -0.269  30.468  0.00  0.00     0.142 C 
BRANCH  12  13
ATOM     13  O   UNL d   1      57.251  -0.089  30.621  0.00  0.00    -0.304 OA
BRANCH  13  14
ATOM     14  C   UNL d   1      56.974  -0.093  31.401  0.00  0.00     0.100 A 
ATOM     15  C   UNL d   1      56.710  -0.784  31.737  0.00  0.00     0.027 A 
ATOM     16  C   UNL d   1      56.432  -0.789  32.517  0.00  0.00     0.026 A 
ATOM     17  C   UNL d   1      56.425  -0.084  32.950  0.00  0.00     0.094 A 
ATOM     18  C   UNL d   1      56.697   0.613  32.595  0.00  0.00     0.026 A 
ATOM     19  C   UNL d   1      56.969   0.605  31.824  0.00  0.00     0.027 A 
BRANCH  17  20
ATOM     20  O   UNL d   1      56.151  -0.082  33.723  0.00  0.00    -0.328 OA
ATOM     21  C   UNL d   1      55.432   0.279  33.906  0.00  0.00     0.181 C 
ENDBRANCH  17  20
ENDBRANCH  13  14
ENDBRANCH  12  13
ENDBRANCH   1  12
TORSDOF 5
ENDMDL
MODEL 2
REMARK VINA RESULT:      -4.0      1.161      1.539
REMARK  5 active torsions:
REMARK  status: ('A' for Active; 'I' for Inactive)
REMARK    1  A    between atoms: C_7  and  N_2 
REMARK    2  A    between atoms: C_15  and  C_7 
REMARK    3  A    between atoms: C_8  and  O_14 
REMARK    4  A    between atoms: O_17  and  C_9 
REMARK    5  A    between atoms: O_14  and  C_15 
ROOT
ATOM      1  C   UNL d   1      58.123  -0.769  29.941  0.00  0.00     0.110 C 
ENDROOT
BRANCH   1   2
ATOM      2  N   UNL d   1      58.548  -0.273  29.433  0.00  0.00    -0.266 N 
ATOM      3  C   UNL d   1      58.274   0.363  28.973  0.00  0.00     0.296 A 
ATOM      4  S   UNL d   1      58.923   0.680  28.561  0.00  0.00    -0.025 SA
ATOM      5  O   UNL d   1      57.494   0.628  28.936  0.00  0.00    -0.259 OA
ATOM      6  C   UNL d   1      59.594   0.238  28.769  0.00  0.00     0.050 A 
ATOM      7  C   UNL d   1      60.394   0.292  28.538  0.00  0.00     0.008 A 
ATOM      8  C   UNL d   1      59.365  -0.347  29.304  0.00  0.00     0.074 A 
ATOM      9  C   UNL d   1      60.949  -0.235  28.842  0.00  0.00     0.001 A 
ATOM     10  C   UNL d   1      60.716  -0.818  29.377  0.00  0.00     0.002 A 
ATOM     11  C   UNL d   1      59.929  -0.875  29.608  0.00  0.00     0.018 A 
ENDBRANCH   1   2
BRANCH   1  12
ATOM     12  C   UNL d   1      57.744  -0.458  30.600  0.00  0.00     0.142 C 
BRANCH  12  13
ATOM     13  O   UNL d   1      57.294  -0.956  31.097  0.00  0.00    -0.304 OA
BRANCH  13  14
ATOM     14  C   UNL d   1      56.906  -0.635  31.755  0.00  0.00     0.100 A 
ATOM     15  C   UNL d   1      57.057   0.130  31.984  0.00  0.00     0.027 A 
ATOM     16  C   UNL d   1      56.670   0.452  32.641  0.00  0.00     0.026 A 
ATOM     17  C   UNL d   1      56.129  -0.012  33.061  0.00  0.00     0.094 A 
ATOM     18  C   UNL d   1      55.985  -0.790  32.816  0.00  0.00     0.026 A 
ATOM     19  C   UNL d   1      56.373  -1.097  32.165  0.00  0.00     0.027 A 
BRANCH  17  20
ATOM     20  O   UNL d   1      55.741   0.301  33.713  0.00  0.00    -0.328 OA
ATOM     21  C   UNL d   1      54.917   0.310  33.739  0.00  0.00     0.181 C 
ENDBRANCH  17  20
ENDBRANCH  13  14
ENDBRANCH  12  13
ENDBRANCH   1  12
TORSDOF 5
ENDMDL
MODEL 3
REMARK VINA RESULT:      -2.6      2.176      5.247
REMARK  5 active torsions:
REMARK  status: ('A' for Active; 'I' for Inactive)
REMARK    1  A    between atoms: C_7  and  N_2 
REMARK    2  A    between atoms: C_15  and  C_7 
REMARK    3  A    between atoms: C_8  and  O_14 
REMARK    4  A    between atoms: O_17  and  C_9 
REMARK    5  A    between atoms: O_14  and  C_15 
ROOT
ATOM      1  C   UNL d   1      56.565  -0.476  32.720  0.00  0.00     0.110 C 
ENDROOT
BRANCH   1   2
ATOM      2  N   UNL d   1      56.373  -0.055  33.407  0.00  0.00    -0.266 N 
ATOM      3  C   UNL d   1      56.879   0.328  33.943  0.00  0.00     0.296 A 
ATOM      4  S   UNL d   1      56.411   0.668  34.540  0.00  0.00    -0.025 SA
ATOM      5  O   UNL d   1      57.702   0.362  33.887  0.00  0.00    -0.259 OA
ATOM      6  C   UNL d   1      55.618   0.493  34.369  0.00  0.00     0.050 A 
ATOM      7  C   UNL d   1      54.906   0.682  34.760  0.00  0.00     0.008 A 
ATOM      8  C   UNL d   1      55.594   0.049  33.674  0.00  0.00     0.074 A 
ATOM      9  C   UNL d   1      54.185   0.427  34.454  0.00  0.00     0.001 A 
ATOM     10  C   UNL d   1      54.165  -0.017  33.759  0.00  0.00     0.002 A 
ATOM     11  C   UNL d   1      54.865  -0.206  33.369  0.00  0.00     0.018 A 
ENDBRANCH   1   2
BRANCH   1  12
ATOM     12  C   UNL d   1      56.933  -0.096  32.093  0.00  0.00     0.142 C 
BRANCH  12  13
ATOM     13  O   UNL d   1      56.828  -0.377  31.313  0.00  0.00    -0.304 OA
BRANCH  13  14
ATOM     14  C   UNL d   1      57.406  -0.222  30.741  0.00  0.00     0.100 A 
ATOM     15  C   UNL d   1      57.928  -0.806  30.522  0.00  0.00     0.027 A 
ATOM     16  C   UNL d   1      58.506  -0.653  29.950  0.00  0.00     0.026 A 
ATOM     17  C   UNL d   1      58.548   0.097  29.604  0.00  0.00     0.094 A 
ATOM     18  C   UNL d   1      58.009   0.682  29.837  0.00  0.00     0.026 A 
ATOM     19  C   UNL d   1      57.442   0.519  30.404  0.00  0.00     0.027 A 
BRANCH  17  20
ATOM     20  O   UNL d   1      59.118   0.256  29.036  0.00  0.00    -0.328 OA
ATOM     21  C   UNL d   1      59.898   0.011  29.153  0.00  0.00     0.181 C 
ENDBRANCH  17  20
ENDBRANCH  13  14
ENDBRANCH  12  13
ENDBRANCH   1  12
TORSDOF 5
ENDMDL
MODEL 4
REMARK VINA RESULT:      -2.0      8.616      9.871
REMARK  5 active torsions:
REMARK  status: ('A' for Active; 'I' for Inactive)
REMARK    1  A    between atoms: C_7  and  N_2 
REMARK    2  A    between atoms: C_15  and  C_7 
REMARK    3  A    between atoms: C_8  and  O_14 
REMARK    4  A    between atoms: O_17  and  C_9 
REMARK    5  A    between atoms: O_14  and  C_15 
ROOT
ATOM      1  C   UNL d   1      59.097  -9.235  35.087  0.00  0.00     0.110 C 
ENDROOT
BRANCH   1   2
ATOM      2  N   UNL d   1      59.646  -8.777  35.503  0.00  0.00    -0.266 N 
ATOM      3  C   UNL d   1      60.376  -9.005  35.831  0.00  0.00     0.296 A 
ATOM      4  S   UNL d   1      60.715  -8.337  36.192  0.00  0.00    -0.025 SA
ATOM      5  O   UNL d   1      60.701  -9.762  35.798  0.00  0.00    -0.259 OA
ATOM      6  C   UNL d   1      60.193  -7.701  36.086  0.00  0.00     0.050 A 
ATOM      7  C   UNL d   1      60.229  -6.901  36.321  0.00  0.00     0.008 A 
ATOM      8  C   UNL d   1      59.537  -7.970  35.664  0.00  0.00     0.074 A 
ATOM      9  C   UNL d   1      59.615  -6.386  36.134  0.00  0.00     0.001 A 
ATOM     10  C   UNL d   1      58.960  -6.659  35.712  0.00  0.00     0.002 A 
ATOM     11  C   UNL d   1      58.920  -7.446  35.477  0.00  0.00     0.018 A 
ENDBRANCH   1   2
BRANCH   1  12
ATOM     12  C   UNL d   1      59.138  -9.285  34.268  0.00  0.00     0.142 C 
BRANCH  12  13
ATOM     13  O   UNL d   1      58.463  -9.508  33.829  0.00  0.00    -0.304 OA
BRANCH  13  14
ATOM     14  C   UNL d   1      58.517  -9.584  33.007  0.00  0.00     0.100 A 
ATOM     15  C   UNL d   1      57.852  -9.508  32.545  0.00  0.00     0.027 A 
ATOM     16  C   UNL d   1      57.905  -9.583  31.723  0.00  0.00     0.026 A 
ATOM     17  C   UNL d   1      58.639  -9.738  31.375  0.00  0.00     0.094 A 
ATOM     18  C   UNL d   1      59.308  -9.813  31.857  0.00  0.00     0.026 A 
ATOM     19  C   UNL d   1      59.244  -9.736  32.669  0.00  0.00     0.027 A 
BRANCH  17  20
ATOM     20  O   UNL d   1      58.698  -9.814  30.561  0.00  0.00    -0.328 OA
ATOM     21  C   UNL d   1      58.074  -9.577  30.076  0.00  0.00     0.181 C 
ENDBRANCH  17  20
ENDBRANCH  13  14
ENDBRANCH  12  13
ENDBRANCH   1  12
TORSDOF 5
ENDMDL
