MODEL 1
REMARK VINA RESULT:      17.3      0.000      0.000
REMARK  6 active torsions:
REMARK  status: ('A' for Active; 'I' for Inactive)
REMARK    1  A    between atoms: C_11  and  S_1 
REMARK    2  A    between atoms: C_2  and  C_5 
REMARK       I    between atoms: N_3  and  C_2 
REMARK    3  A    between atoms: C_12  and  N_3 
REMARK    4  A    between atoms: N_4  and  C_5 
REMARK       I    between atoms: C_6  and  N_4 
REMARK    5  A    between atoms: C_5  and  C_7 
REMARK    6  A    between atoms: C_7  and  C_11 
ROOT
ATOM      1  C   UNL d   1      45.467 -15.105  44.576  0.00  0.00     0.143 C 
ENDROOT
BRANCH   1   2
ATOM      2  C   UNL d   1      45.824 -15.847  44.478  0.00  0.00     0.297 C 
ATOM      3  N   UNL d   1      45.518 -16.384  43.936  0.00  0.00    -0.207 NA
ATOM      4  O   UNL d   1      46.490 -16.049  44.926  0.00  0.00    -0.264 OA
BRANCH   3   5
ATOM      5  C   UNL d   1      45.884 -17.132  43.842  0.00  0.00     0.085 A 
ATOM      6  C   UNL d   1      45.977 -17.413  43.068  0.00  0.00     0.019 A 
ATOM      7  C   UNL d   1      46.344 -18.163  42.969  0.00  0.00     0.002 A 
ATOM      8  C   UNL d   1      46.446 -18.464  42.190  0.00  0.00     0.000 C 
ATOM      9  C   UNL d   1      46.596 -18.591  43.610  0.00  0.00     0.000 A 
ATOM     10  C   UNL d   1      46.489 -18.283  44.370  0.00  0.00     0.002 A 
ATOM     11  C   UNL d   1      46.130 -17.548  44.479  0.00  0.00     0.019 A 
ENDBRANCH   3   5
ENDBRANCH   1   2
BRANCH   1  12
ATOM     12  N   UNL d   1      44.733 -15.050  44.947  0.00  0.00    -0.203 NA
ATOM     13  C   UNL d   1      44.078 -14.788  44.524  0.00  0.00     0.280 C 
ATOM     14  O   UNL d   1      44.156 -14.583  43.733  0.00  0.00    -0.265 OA
ATOM     15  C   UNL d   1      43.344 -14.733  44.895  0.00  0.00     0.068 C 
ENDBRANCH   1  12
BRANCH   1  16
ATOM     16  C   UNL d   1      45.844 -14.427  44.305  0.00  0.00     0.036 C 
BRANCH  16  17
ATOM     17  C   UNL d   1      45.928 -13.778  44.802  0.00  0.00     0.096 C 
BRANCH  17  18
ATOM     18  S   UNL d   1      46.208 -13.066  44.502  0.00  0.00     0.192 S 
ATOM     19  O   UNL d   1      46.542 -12.470  44.026  0.00  0.00    -0.222 OA
ATOM     20  O   UNL d   1      46.359 -13.618  43.902  0.00  0.00    -0.222 OA
ATOM     21  C   UNL d   1      46.150 -12.381  44.954  0.00  0.00     0.145 C 
ENDBRANCH  17  18
ENDBRANCH  16  17
ENDBRANCH   1  16
TORSDOF 6
ENDMDL
MODEL 2
REMARK VINA RESULT:      18.1      2.288      4.619
REMARK  6 active torsions:
REMARK  status: ('A' for Active; 'I' for Inactive)
REMARK    1  A    between atoms: C_11  and  S_1 
REMARK    2  A    between atoms: C_2  and  C_5 
REMARK       I    between atoms: N_3  and  C_2 
REMARK    3  A    between atoms: C_12  and  N_3 
REMARK    4  A    between atoms: N_4  and  C_5 
REMARK       I    between atoms: C_6  and  N_4 
REMARK    5  A    between atoms: C_5  and  C_7 
REMARK    6  A    between atoms: C_7  and  C_11 
ROOT
ATOM      1  C   UNL d   1      46.352 -17.880  43.272  0.00  0.00     0.143 C 
ENDROOT
BRANCH   1   2
ATOM      2  C   UNL d   1      46.169 -17.243  43.768  0.00  0.00     0.297 C 
ATOM      3  N   UNL d   1      45.801 -16.573  43.462  0.00  0.00    -0.207 NA
ATOM      4  O   UNL d   1      46.357 -17.277  44.574  0.00  0.00    -0.264 OA
BRANCH   3   5
ATOM      5  C   UNL d   1      45.620 -15.932  43.971  0.00  0.00     0.085 A 
ATOM      6  C   UNL d   1      46.121 -15.273  43.941  0.00  0.00     0.019 A 
ATOM      7  C   UNL d   1      45.943 -14.627  44.449  0.00  0.00     0.002 A 
ATOM      8  C   UNL d   1      46.441 -13.949  44.432  0.00  0.00     0.000 C 
ATOM      9  C   UNL d   1      45.305 -14.654  44.948  0.00  0.00     0.000 A 
ATOM     10  C   UNL d   1      44.824 -15.327  44.955  0.00  0.00     0.002 A 
ATOM     11  C   UNL d   1      44.989 -15.966  44.460  0.00  0.00     0.019 A 
ENDBRANCH   3   5
ENDBRANCH   1   2
BRANCH   1  12
ATOM     12  N   UNL d   1      46.479 -17.751  42.468  0.00  0.00    -0.203 NA
ATOM     13  C   UNL d   1      46.504 -18.387  41.948  0.00  0.00     0.280 C 
ATOM     14  O   UNL d   1      46.403 -19.152  42.230  0.00  0.00    -0.265 OA
ATOM     15  C   UNL d   1      46.631 -18.257  41.144  0.00  0.00     0.068 C 
ENDBRANCH   1  12
BRANCH   1  16
ATOM     16  C   UNL d   1      46.407 -18.641  43.580  0.00  0.00     0.036 C 
BRANCH  16  17
ATOM     17  C   UNL d   1      46.051 -18.818  44.299  0.00  0.00     0.096 C 
BRANCH  17  18
ATOM     18  S   UNL d   1      45.998 -19.599  44.548  0.00  0.00     0.192 S 
ATOM     19  O   UNL d   1      45.742 -20.330  44.855  0.00  0.00    -0.222 OA
ATOM     20  O   UNL d   1      45.254 -19.275  44.721  0.00  0.00    -0.222 OA
ATOM     21  C   UNL d   1      46.644 -20.101  44.462  0.00  0.00     0.145 C 
ENDBRANCH  17  18
ENDBRANCH  16  17
ENDBRANCH   1  16
TORSDOF 6
ENDMDL
