MODEL 1
REMARK VINA RESULT:      34.6      0.000      0.000
REMARK  2 active torsions:
REMARK  status: ('A' for Active; 'I' for Inactive)
REMARK    1  A    between atoms: C_6  and  C_1 
REMARK       I    between atoms: N_11  and  C_6 
REMARK    2  A    between atoms: C_13  and  N_11 
ROOT
ATOM      1  C   UNL d   1      46.084 -17.085  44.196  0.00  0.00     0.108 A 
ATOM      2  C   UNL d   1      45.444 -15.932  44.220  0.00  0.00     0.044 A 
ATOM      3  C   UNL d   1      46.251 -15.764  44.228  0.00  0.00     0.112 A 
ATOM      4  S   UNL d   1      46.647 -16.485  44.214  0.00  0.00    -0.061 SA
ATOM      5  C   UNL d   1      45.346 -16.724  44.200  0.00  0.00     0.116 A 
ATOM      6  N   UNL d   1      46.522 -14.978  44.248  0.00  0.00    -0.239 NA
ATOM      7  C   UNL d   1      45.155 -14.542  44.251  0.00  0.00     0.057 A 
ATOM      8  C   UNL d   1      44.891 -15.316  44.231  0.00  0.00     0.008 A 
ATOM      9  C   UNL d   1      45.962 -14.374  44.259  0.00  0.00     0.085 A 
ATOM     10  C   UNL d   1      44.607 -13.925  44.262  0.00  0.00     0.197 A 
ATOM     11  N   UNL d   1      44.442 -17.069  44.187  0.00  0.00    -0.147 N 
ATOM     12  O   UNL d   1      43.624 -14.146  44.251  0.00  0.00    -0.286 OA
ATOM     13  C   UNL d   1      46.219 -13.591  44.279  0.00  0.00     0.019 A 
ATOM     14  C   UNL d   1      44.866 -13.152  44.282  0.00  0.00     0.042 A 
ATOM     15  C   UNL d   1      45.673 -12.984  44.290  0.00  0.00     0.005 A 
ENDROOT
BRANCH   1  16
ATOM     16  C   UNL d   1      46.223 -18.055  44.174  0.00  0.00     0.287 C 
ATOM     17  N   UNL d   1      46.321 -18.824  43.583  0.00  0.00    -0.205 NA
ATOM     18  O   UNL d   1      46.267 -18.265  44.955  0.00  0.00    -0.265 OA
BRANCH  17  19
ATOM     19  C   UNL d   1      46.292 -18.729  42.719  0.00  0.00     0.112 A 
ATOM     20  C   UNL d   1      45.918 -19.342  42.232  0.00  0.00     0.158 A 
ATOM     21  F   UNL d   1      45.408 -20.321  42.375  0.00  0.00    -0.203 F 
ATOM     22  C   UNL d   1      45.889 -19.243  41.348  0.00  0.00     0.031 A 
ATOM     23  C   UNL d   1      46.237 -18.530  40.976  0.00  0.00     0.002 A 
ATOM     24  C   UNL d   1      46.612 -17.916  41.478  0.00  0.00     0.002 A 
ATOM     25  C   UNL d   1      46.647 -18.003  42.352  0.00  0.00     0.021 A 
ENDBRANCH  17  19
ENDBRANCH   1  16
TORSDOF 2
ENDMDL
