MODEL 1
REMARK VINA RESULT:      -9.7      0.000      0.000
REMARK  2 active torsions:
REMARK  status: ('A' for Active; 'I' for Inactive)
REMARK       I    between atoms: N_2  and  C_1 
REMARK    1  A    between atoms: C_5  and  C_1 
REMARK    2  A    between atoms: C_7  and  N_2 
ROOT
ATOM      1  C   UNL d   1      52.929  31.327  53.186  0.00  0.00     0.125 A 
ATOM      2  C   UNL d   1      52.637  32.070  52.977  0.00  0.00     0.059 A 
ATOM      3  C   UNL d   1      53.515  31.251  53.762  0.00  0.00     0.123 A 
ATOM      4  C   UNL d   1      52.935  32.742  53.348  0.00  0.00     0.137 A 
ATOM      5  O   UNL d   1      52.629  30.651  52.811  0.00  0.00    -0.301 OA
ATOM      6  O   UNL d   1      53.809  30.508  53.974  0.00  0.00    -0.301 OA
ATOM      7  C   UNL d   1      53.811  31.928  54.133  0.00  0.00     0.029 A 
ATOM      8  C   UNL d   1      53.523  32.671  53.927  0.00  0.00     0.034 A 
ATOM      9  C   UNL d   1      52.918  29.907  53.017  0.00  0.00     0.149 A 
ATOM     10  C   UNL d   1      53.506  29.836  53.597  0.00  0.00     0.149 A 
ENDROOT
BRANCH   4  11
ATOM     11  N   UNL d   1      52.646  33.493  53.142  0.00  0.00    -0.365 NA
ATOM     12  C   UNL d   1      52.360  34.229  52.940  0.00  0.00     0.328 C 
ATOM     13  O   UNL d   1      52.851  34.881  52.970  0.00  0.00    -0.251 OA
BRANCH  12  14
ATOM     14  C   UNL d   1      51.581  34.310  52.708  0.00  0.00     0.070 A 
ATOM     15  C   UNL d   1      50.994  34.458  53.265  0.00  0.00     0.006 A 
ATOM     16  C   UNL d   1      50.208  34.540  53.026  0.00  0.00     0.000 A 
ATOM     17  C   UNL d   1      50.002  34.474  52.228  0.00  0.00     0.000 A 
ATOM     18  C   UNL d   1      50.586  34.326  51.669  0.00  0.00     0.000 A 
ATOM     19  C   UNL d   1      49.217  34.555  51.988  0.00  0.00     0.000 C 
ATOM     20  C   UNL d   1      51.376  34.244  51.909  0.00  0.00     0.006 A 
ENDBRANCH  12  14
ENDBRANCH   4  11
TORSDOF 2
ENDMDL
MODEL 2
REMARK VINA RESULT:      -9.4      1.899      4.419
REMARK  2 active torsions:
REMARK  status: ('A' for Active; 'I' for Inactive)
REMARK       I    between atoms: N_2  and  C_1 
REMARK    1  A    between atoms: C_5  and  C_1 
REMARK    2  A    between atoms: C_7  and  N_2 
ROOT
ATOM      1  C   UNL d   1      52.939  34.015  53.942  0.00  0.00     0.125 A 
ATOM      2  C   UNL d   1      52.796  33.289  53.578  0.00  0.00     0.059 A 
ATOM      3  C   UNL d   1      53.615  34.130  54.401  0.00  0.00     0.123 A 
ATOM      4  C   UNL d   1      53.334  32.673  53.675  0.00  0.00     0.137 A 
ATOM      5  O   UNL d   1      52.396  34.635  53.844  0.00  0.00    -0.301 OA
ATOM      6  O   UNL d   1      53.761  34.857  54.768  0.00  0.00    -0.301 OA
ATOM      7  C   UNL d   1      54.153  33.510  54.497  0.00  0.00     0.029 A 
ATOM      8  C   UNL d   1      54.014  32.784  54.135  0.00  0.00     0.034 A 
ATOM      9  C   UNL d   1      52.536  35.362  54.207  0.00  0.00     0.149 A 
ATOM     10  C   UNL d   1      53.217  35.472  54.667  0.00  0.00     0.149 A 
ENDROOT
BRANCH   4  11
ATOM     11  N   UNL d   1      53.196  31.939  53.311  0.00  0.00    -0.365 NA
ATOM     12  C   UNL d   1      53.062  31.218  52.957  0.00  0.00     0.328 C 
ATOM     13  O   UNL d   1      52.851  31.182  52.169  0.00  0.00    -0.251 OA
BRANCH  12  14
ATOM     14  C   UNL d   1      53.140  30.532  53.395  0.00  0.00     0.070 A 
ATOM     15  C   UNL d   1      52.478  30.171  53.724  0.00  0.00     0.006 A 
ATOM     16  C   UNL d   1      52.561  29.478  54.164  0.00  0.00     0.000 A 
ATOM     17  C   UNL d   1      53.307  29.140  54.280  0.00  0.00     0.000 A 
ATOM     18  C   UNL d   1      53.970  29.498  53.953  0.00  0.00     0.000 A 
ATOM     19  C   UNL d   1      53.391  28.448  54.721  0.00  0.00     0.000 C 
ATOM     20  C   UNL d   1      53.886  30.195  53.510  0.00  0.00     0.006 A 
ENDBRANCH  12  14
ENDBRANCH   4  11
TORSDOF 2
ENDMDL
MODEL 3
REMARK VINA RESULT:      -9.2      1.995      2.562
REMARK  2 active torsions:
REMARK  status: ('A' for Active; 'I' for Inactive)
REMARK       I    between atoms: N_2  and  C_1 
REMARK    1  A    between atoms: C_5  and  C_1 
REMARK    2  A    between atoms: C_7  and  N_2 
ROOT
ATOM      1  C   UNL d   1      53.388  30.205  53.994  0.00  0.00     0.125 A 
ATOM      2  C   UNL d   1      53.760  30.940  54.034  0.00  0.00     0.059 A 
ATOM      3  C   UNL d   1      52.822  30.050  53.414  0.00  0.00     0.123 A 
ATOM      4  C   UNL d   1      53.562  31.525  53.490  0.00  0.00     0.137 A 
ATOM      5  O   UNL d   1      53.588  29.616  54.544  0.00  0.00    -0.301 OA
ATOM      6  O   UNL d   1      52.448  29.313  53.371  0.00  0.00    -0.301 OA
ATOM      7  C   UNL d   1      52.626  30.639  52.868  0.00  0.00     0.029 A 
ATOM      8  C   UNL d   1      52.994  31.374  52.905  0.00  0.00     0.034 A 
ATOM      9  C   UNL d   1      53.219  28.880  54.506  0.00  0.00     0.149 A 
ATOM     10  C   UNL d   1      52.651  28.729  53.922  0.00  0.00     0.149 A 
ENDROOT
BRANCH   4  11
ATOM     11  N   UNL d   1      53.932  32.268  53.524  0.00  0.00    -0.365 NA
ATOM     12  C   UNL d   1      54.291  32.998  53.559  0.00  0.00     0.328 C 
ATOM     13  O   UNL d   1      55.063  33.086  53.305  0.00  0.00    -0.251 OA
BRANCH  12  14
ATOM     14  C   UNL d   1      53.877  33.640  53.849  0.00  0.00     0.070 A 
ATOM     15  C   UNL d   1      53.918  33.836  54.647  0.00  0.00     0.006 A 
ATOM     16  C   UNL d   1      53.498  34.485  54.935  0.00  0.00     0.000 A 
ATOM     17  C   UNL d   1      53.033  34.944  54.428  0.00  0.00     0.000 A 
ATOM     18  C   UNL d   1      52.990  34.752  53.630  0.00  0.00     0.000 A 
ATOM     19  C   UNL d   1      52.613  35.593  54.716  0.00  0.00     0.000 C 
ATOM     20  C   UNL d   1      53.412  34.099  53.340  0.00  0.00     0.006 A 
ENDBRANCH  12  14
ENDBRANCH   4  11
TORSDOF 2
ENDMDL
MODEL 4
REMARK VINA RESULT:      -9.1      1.475      4.358
REMARK  2 active torsions:
REMARK  status: ('A' for Active; 'I' for Inactive)
REMARK       I    between atoms: N_2  and  C_1 
REMARK    1  A    between atoms: C_5  and  C_1 
REMARK    2  A    between atoms: C_7  and  N_2 
ROOT
ATOM      1  C   UNL d   1      50.719  33.890  52.965  0.00  0.00     0.125 A 
ATOM      2  C   UNL d   1      51.308  33.428  53.312  0.00  0.00     0.059 A 
ATOM      3  C   UNL d   1      50.832  34.230  52.222  0.00  0.00     0.123 A 
ATOM      4  C   UNL d   1      52.016  33.306  52.911  0.00  0.00     0.137 A 
ATOM      5  O   UNL d   1      50.005  34.013  53.370  0.00  0.00    -0.301 OA
ATOM      6  O   UNL d   1      50.244  34.694  51.872  0.00  0.00    -0.301 OA
ATOM      7  C   UNL d   1      51.545  34.106  51.822  0.00  0.00     0.029 A 
ATOM      8  C   UNL d   1      52.135  33.646  52.164  0.00  0.00     0.034 A 
ATOM      9  C   UNL d   1      49.415  34.473  53.028  0.00  0.00     0.149 A 
ATOM     10  C   UNL d   1      49.533  34.813  52.281  0.00  0.00     0.149 A 
ENDROOT
BRANCH   4  11
ATOM     11  N   UNL d   1      52.615  32.842  53.253  0.00  0.00    -0.365 NA
ATOM     12  C   UNL d   1      53.203  32.390  53.591  0.00  0.00     0.328 C 
ATOM     13  O   UNL d   1      53.205  31.580  53.486  0.00  0.00    -0.251 OA
BRANCH  12  14
ATOM     14  C   UNL d   1      53.788  32.751  54.032  0.00  0.00     0.070 A 
ATOM     15  C   UNL d   1      54.494  32.982  53.679  0.00  0.00     0.006 A 
ATOM     16  C   UNL d   1      55.082  33.346  54.129  0.00  0.00     0.000 A 
ATOM     17  C   UNL d   1      54.969  33.483  54.937  0.00  0.00     0.000 A 
ATOM     18  C   UNL d   1      54.265  33.254  55.293  0.00  0.00     0.000 A 
ATOM     19  C   UNL d   1      55.557  33.847  55.387  0.00  0.00     0.000 C 
ATOM     20  C   UNL d   1      53.674  32.888  54.840  0.00  0.00     0.006 A 
ENDBRANCH  12  14
ENDBRANCH   4  11
TORSDOF 2
ENDMDL
MODEL 5
REMARK VINA RESULT:      -8.7      1.162      4.185
REMARK  2 active torsions:
REMARK  status: ('A' for Active; 'I' for Inactive)
REMARK       I    between atoms: N_2  and  C_1 
REMARK    1  A    between atoms: C_5  and  C_1 
REMARK    2  A    between atoms: C_7  and  N_2 
ROOT
ATOM      1  C   UNL d   1      51.260  33.800  52.931  0.00  0.00     0.125 A 
ATOM      2  C   UNL d   1      51.864  33.239  52.940  0.00  0.00     0.059 A 
ATOM      3  C   UNL d   1      51.364  34.537  53.288  0.00  0.00     0.123 A 
ATOM      4  C   UNL d   1      52.578  33.417  53.310  0.00  0.00     0.137 A 
ATOM      5  O   UNL d   1      50.541  33.620  52.559  0.00  0.00    -0.301 OA
ATOM      6  O   UNL d   1      50.760  35.102  53.281  0.00  0.00    -0.301 OA
ATOM      7  C   UNL d   1      52.082  34.712  53.659  0.00  0.00     0.029 A 
ATOM      8  C   UNL d   1      52.687  34.155  53.670  0.00  0.00     0.034 A 
ATOM      9  C   UNL d   1      49.935  34.179  52.548  0.00  0.00     0.149 A 
ATOM     10  C   UNL d   1      50.044  34.917  52.908  0.00  0.00     0.149 A 
ENDROOT
BRANCH   4  11
ATOM     11  N   UNL d   1      53.191  32.856  53.323  0.00  0.00    -0.365 NA
ATOM     12  C   UNL d   1      53.790  32.304  53.336  0.00  0.00     0.328 C 
ATOM     13  O   UNL d   1      54.557  32.530  53.169  0.00  0.00    -0.251 OA
BRANCH  12  14
ATOM     14  C   UNL d   1      53.619  31.526  53.517  0.00  0.00     0.070 A 
ATOM     15  C   UNL d   1      53.647  31.264  54.296  0.00  0.00     0.006 A 
ATOM     16  C   UNL d   1      53.474  30.477  54.474  0.00  0.00     0.000 A 
ATOM     17  C   UNL d   1      53.271  29.945  53.874  0.00  0.00     0.000 A 
ATOM     18  C   UNL d   1      53.242  30.203  53.095  0.00  0.00     0.000 A 
ATOM     19  C   UNL d   1      53.098  29.158  54.052  0.00  0.00     0.000 C 
ATOM     20  C   UNL d   1      53.416  30.995  52.916  0.00  0.00     0.006 A 
ENDBRANCH  12  14
ENDBRANCH   4  11
TORSDOF 2
ENDMDL
MODEL 6
REMARK VINA RESULT:      -7.7      1.575      2.522
REMARK  2 active torsions:
REMARK  status: ('A' for Active; 'I' for Inactive)
REMARK       I    between atoms: N_2  and  C_1 
REMARK    1  A    between atoms: C_5  and  C_1 
REMARK    2  A    between atoms: C_7  and  N_2 
ROOT
ATOM      1  C   UNL d   1      54.217  33.730  54.615  0.00  0.00     0.125 A 
ATOM      2  C   UNL d   1      53.649  33.658  54.021  0.00  0.00     0.059 A 
ATOM      3  C   UNL d   1      54.398  33.092  55.105  0.00  0.00     0.123 A 
ATOM      4  C   UNL d   1      53.260  32.940  53.917  0.00  0.00     0.137 A 
ATOM      5  O   UNL d   1      54.608  34.454  54.719  0.00  0.00    -0.301 OA
ATOM      6  O   UNL d   1      54.967  33.161  55.701  0.00  0.00    -0.301 OA
ATOM      7  C   UNL d   1      54.005  32.372  54.998  0.00  0.00     0.029 A 
ATOM      8  C   UNL d   1      53.439  32.295  54.406  0.00  0.00     0.034 A 
ATOM      9  C   UNL d   1      55.176  34.530  55.311  0.00  0.00     0.149 A 
ATOM     10  C   UNL d   1      55.355  33.886  55.801  0.00  0.00     0.149 A 
ENDROOT
BRANCH   4  11
ATOM     11  N   UNL d   1      52.687  32.859  53.321  0.00  0.00    -0.365 NA
ATOM     12  C   UNL d   1      52.123  32.783  52.737  0.00  0.00     0.328 C 
ATOM     13  O   UNL d   1      52.191  32.190  52.179  0.00  0.00    -0.251 OA
BRANCH  12  14
ATOM     14  C   UNL d   1      51.492  33.301  52.714  0.00  0.00     0.070 A 
ATOM     15  C   UNL d   1      50.865  33.218  53.240  0.00  0.00     0.006 A 
ATOM     16  C   UNL d   1      50.230  33.744  53.213  0.00  0.00     0.000 A 
ATOM     17  C   UNL d   1      50.215  34.358  52.659  0.00  0.00     0.000 A 
ATOM     18  C   UNL d   1      50.840  34.444  52.132  0.00  0.00     0.000 A 
ATOM     19  C   UNL d   1      49.580  34.884  52.632  0.00  0.00     0.000 C 
ATOM     20  C   UNL d   1      51.479  33.915  52.160  0.00  0.00     0.006 A 
ENDBRANCH  12  14
ENDBRANCH   4  11
TORSDOF 2
ENDMDL
MODEL 7
REMARK VINA RESULT:      -7.2      2.605      5.282
REMARK  2 active torsions:
REMARK  status: ('A' for Active; 'I' for Inactive)
REMARK       I    between atoms: N_2  and  C_1 
REMARK    1  A    between atoms: C_5  and  C_1 
REMARK    2  A    between atoms: C_7  and  N_2 
ROOT
ATOM      1  C   UNL d   1      48.445  35.599  52.718  0.00  0.00     0.125 A 
ATOM      2  C   UNL d   1      49.087  35.158  52.990  0.00  0.00     0.059 A 
ATOM      3  C   UNL d   1      48.173  35.513  51.944  0.00  0.00     0.123 A 
ATOM      4  C   UNL d   1      49.459  34.627  52.482  0.00  0.00     0.137 A 
ATOM      5  O   UNL d   1      48.071  36.133  53.230  0.00  0.00    -0.301 OA
ATOM      6  O   UNL d   1      47.529  35.954  51.668  0.00  0.00    -0.301 OA
ATOM      7  C   UNL d   1      48.549  34.979  51.436  0.00  0.00     0.029 A 
ATOM      8  C   UNL d   1      49.189  34.538  51.704  0.00  0.00     0.034 A 
ATOM      9  C   UNL d   1      47.429  36.575  52.962  0.00  0.00     0.149 A 
ATOM     10  C   UNL d   1      47.159  36.486  52.183  0.00  0.00     0.149 A 
ENDROOT
BRANCH   4  11
ATOM     11  N   UNL d   1      50.106  34.179  52.749  0.00  0.00    -0.365 NA
ATOM     12  C   UNL d   1      50.743  33.744  53.011  0.00  0.00     0.328 C 
ATOM     13  O   UNL d   1      50.674  32.935  53.103  0.00  0.00    -0.251 OA
BRANCH  12  14
ATOM     14  C   UNL d   1      51.448  34.119  53.181  0.00  0.00     0.070 A 
ATOM     15  C   UNL d   1      51.960  34.337  52.575  0.00  0.00     0.006 A 
ATOM     16  C   UNL d   1      52.671  34.716  52.751  0.00  0.00     0.000 A 
ATOM     17  C   UNL d   1      52.877  34.881  53.535  0.00  0.00     0.000 A 
ATOM     18  C   UNL d   1      52.369  34.665  54.143  0.00  0.00     0.000 A 
ATOM     19  C   UNL d   1      53.589  35.260  53.711  0.00  0.00     0.000 C 
ATOM     20  C   UNL d   1      51.653  34.284  53.965  0.00  0.00     0.006 A 
ENDBRANCH  12  14
ENDBRANCH   4  11
TORSDOF 2
ENDMDL
