MODEL 1
REMARK VINA RESULT:      -6.9      0.000      0.000
REMARK  5 active torsions:
REMARK  status: ('A' for Active; 'I' for Inactive)
REMARK    1  A    between atoms: C_7  and  C_1 
REMARK    2  A    between atoms: C_5  and  S_14 
REMARK       I    between atoms: N_13  and  C_7 
REMARK    3  A    between atoms: C_18  and  N_13 
REMARK    4  A    between atoms: S_14  and  C_19 
REMARK    5  A    between atoms: C_19  and  C_18 
ROOT
ATOM      1  C   UNL d   1     -47.667  14.179  22.866  0.00  0.00     0.056 C 
ENDROOT
BRANCH   1   2
ATOM      2  S   UNL d   1     -47.273  13.583  23.294  0.00  0.00    -0.083 SA
BRANCH   2   3
ATOM      3  C   UNL d   1     -46.543  13.292  23.022  0.00  0.00     0.050 A 
ATOM      4  C   UNL d   1     -46.238  12.545  23.183  0.00  0.00     0.025 A 
ATOM      5  C   UNL d   1     -45.499  12.486  22.803  0.00  0.00     0.082 A 
ATOM      6  C   UNL d   1     -46.526  11.904  23.624  0.00  0.00     0.002 A 
ATOM      7  C   UNL d   1     -45.054  11.792  22.865  0.00  0.00     0.019 A 
ATOM      8  N   UNL d   1     -45.361  13.204  22.412  0.00  0.00    -0.243 NA
ATOM      9  C   UNL d   1     -45.346  11.160  23.304  0.00  0.00     0.002 A 
ATOM     10  C   UNL d   1     -46.089  11.217  23.686  0.00  0.00     0.000 A 
ATOM     11  C   UNL d   1     -46.006  13.698  22.548  0.00  0.00     0.105 A 
ENDBRANCH   2   3
ENDBRANCH   1   2
BRANCH   1  12
ATOM     12  C   UNL d   1     -48.484  14.268  22.942  0.00  0.00     0.109 C 
BRANCH  12  13
ATOM     13  N   UNL d   1     -48.831  15.027  22.871  0.00  0.00    -0.204 NA
ATOM     14  C   UNL d   1     -49.645  15.103  22.779  0.00  0.00     0.302 C 
ATOM     15  O   UNL d   1     -49.982  15.853  22.710  0.00  0.00    -0.263 OA
BRANCH  14  16
ATOM     16  C   UNL d   1     -50.128  14.422  22.756  0.00  0.00     0.158 A 
ATOM     17  O   UNL d   1     -50.235  13.798  23.288  0.00  0.00    -0.296 OA
ATOM     18  C   UNL d   1     -50.788  13.283  22.961  0.00  0.00     0.134 A 
ATOM     19 BR   UNL d   1     -51.064  12.577  23.308  0.00  0.00    -0.022 Br
ATOM     20  C   UNL d   1     -51.025  13.582  22.232  0.00  0.00     0.034 A 
ATOM     21  C   UNL d   1     -50.616  14.286  22.106  0.00  0.00     0.032 A 
ENDBRANCH  14  16
ENDBRANCH  12  13
ENDBRANCH   1  12
TORSDOF 5
ENDMDL
MODEL 2
REMARK VINA RESULT:      -6.7      1.473      2.215
REMARK  5 active torsions:
REMARK  status: ('A' for Active; 'I' for Inactive)
REMARK    1  A    between atoms: C_7  and  C_1 
REMARK    2  A    between atoms: C_5  and  S_14 
REMARK       I    between atoms: N_13  and  C_7 
REMARK    3  A    between atoms: C_18  and  N_13 
REMARK    4  A    between atoms: S_14  and  C_19 
REMARK    5  A    between atoms: C_19  and  C_18 
ROOT
ATOM      1  C   UNL d   1     -48.243  11.795  23.440  0.00  0.00     0.056 C 
ENDROOT
BRANCH   1   2
ATOM      2  S   UNL d   1     -47.633  12.324  23.640  0.00  0.00    -0.083 SA
BRANCH   2   3
ATOM      3  C   UNL d   1     -46.845  12.138  23.449  0.00  0.00     0.050 A 
ATOM      4  C   UNL d   1     -46.336  12.613  23.010  0.00  0.00     0.025 A 
ATOM      5  C   UNL d   1     -45.606  12.216  22.952  0.00  0.00     0.082 A 
ATOM      6  C   UNL d   1     -46.430  13.355  22.651  0.00  0.00     0.002 A 
ATOM      7  C   UNL d   1     -44.978  12.560  22.539  0.00  0.00     0.019 A 
ATOM      8  N   UNL d   1     -45.679  11.498  23.360  0.00  0.00    -0.243 NA
ATOM      9  C   UNL d   1     -45.078  13.296  22.185  0.00  0.00     0.002 A 
ATOM     10  C   UNL d   1     -45.811  13.697  22.243  0.00  0.00     0.000 A 
ATOM     11  C   UNL d   1     -46.443  11.453  23.664  0.00  0.00     0.105 A 
ENDBRANCH   2   3
ENDBRANCH   1   2
BRANCH   1  12
ATOM     12  C   UNL d   1     -49.016  12.073  23.356  0.00  0.00     0.109 C 
BRANCH  12  13
ATOM     13  N   UNL d   1     -49.660  11.598  23.604  0.00  0.00    -0.204 NA
ATOM     14  C   UNL d   1     -50.433  11.837  23.452  0.00  0.00     0.302 C 
ATOM     15  O   UNL d   1     -51.064  11.365  23.698  0.00  0.00    -0.263 OA
BRANCH  14  16
ATOM     16  C   UNL d   1     -50.577  12.554  23.050  0.00  0.00     0.158 A 
ATOM     17  O   UNL d   1     -50.579  13.342  23.302  0.00  0.00    -0.296 OA
ATOM     18  C   UNL d   1     -50.761  13.812  22.651  0.00  0.00     0.134 A 
ATOM     19 BR   UNL d   1     -50.823  14.644  22.650  0.00  0.00    -0.022 Br
ATOM     20  C   UNL d   1     -50.871  13.324  21.998  0.00  0.00     0.034 A 
ATOM     21  C   UNL d   1     -50.757  12.546  22.246  0.00  0.00     0.032 A 
ENDBRANCH  14  16
ENDBRANCH  12  13
ENDBRANCH   1  12
TORSDOF 5
ENDMDL
MODEL 3
REMARK VINA RESULT:      -6.4      2.266      4.748
REMARK  5 active torsions:
REMARK  status: ('A' for Active; 'I' for Inactive)
REMARK    1  A    between atoms: C_7  and  C_1 
REMARK    2  A    between atoms: C_5  and  S_14 
REMARK       I    between atoms: N_13  and  C_7 
REMARK    3  A    between atoms: C_18  and  N_13 
REMARK    4  A    between atoms: S_14  and  C_19 
REMARK    5  A    between atoms: C_19  and  C_18 
ROOT
ATOM      1  C   UNL d   1     -48.761  11.839  23.246  0.00  0.00     0.056 C 
ENDROOT
BRANCH   1   2
ATOM      2  S   UNL d   1     -49.402  12.337  23.433  0.00  0.00    -0.083 SA
BRANCH   2   3
ATOM      3  C   UNL d   1     -49.908  12.604  22.829  0.00  0.00     0.050 A 
ATOM      4  C   UNL d   1     -50.202  13.370  22.757  0.00  0.00     0.025 A 
ATOM      5  C   UNL d   1     -50.683  13.393  22.077  0.00  0.00     0.082 A 
ATOM      6  C   UNL d   1     -50.102  14.054  23.215  0.00  0.00     0.002 A 
ATOM      7  C   UNL d   1     -51.058  14.096  21.859  0.00  0.00     0.019 A 
ATOM      8  N   UNL d   1     -50.676  12.637  21.739  0.00  0.00    -0.243 NA
ATOM      9  C   UNL d   1     -50.955  14.773  22.318  0.00  0.00     0.002 A 
ATOM     10  C   UNL d   1     -50.473  14.750  23.001  0.00  0.00     0.000 A 
ATOM     11  C   UNL d   1     -50.198  12.153  22.204  0.00  0.00     0.105 A 
ENDBRANCH   2   3
ENDBRANCH   1   2
BRANCH   1  12
ATOM     12  C   UNL d   1     -47.992  12.072  23.434  0.00  0.00     0.109 C 
BRANCH  12  13
ATOM     13  N   UNL d   1     -47.415  11.496  23.623  0.00  0.00    -0.204 NA
ATOM     14  C   UNL d   1     -46.616  11.657  23.508  0.00  0.00     0.302 C 
ATOM     15  O   UNL d   1     -46.051  11.085  23.696  0.00  0.00    -0.263 OA
BRANCH  14  16
ATOM     16  C   UNL d   1     -46.379  12.395  23.201  0.00  0.00     0.158 A 
ATOM     17  O   UNL d   1     -46.432  13.165  23.500  0.00  0.00    -0.296 OA
ATOM     18  C   UNL d   1     -46.101  13.673  22.942  0.00  0.00     0.134 A 
ATOM     19 BR   UNL d   1     -46.037  14.502  23.012  0.00  0.00    -0.022 Br
ATOM     20  C   UNL d   1     -45.844  13.226  22.301  0.00  0.00     0.034 A 
ATOM     21  C   UNL d   1     -46.016  12.437  22.462  0.00  0.00     0.032 A 
ENDBRANCH  14  16
ENDBRANCH  12  13
ENDBRANCH   1  12
TORSDOF 5
ENDMDL
MODEL 4
REMARK VINA RESULT:      -6.0      9.081      9.669
REMARK  5 active torsions:
REMARK  status: ('A' for Active; 'I' for Inactive)
REMARK    1  A    between atoms: C_7  and  C_1 
REMARK    2  A    between atoms: C_5  and  S_14 
REMARK       I    between atoms: N_13  and  C_7 
REMARK    3  A    between atoms: C_18  and  N_13 
REMARK    4  A    between atoms: S_14  and  C_19 
REMARK    5  A    between atoms: C_19  and  C_18 
ROOT
ATOM      1  C   UNL d   1     -40.059  14.913  19.995  0.00  0.00     0.056 C 
ENDROOT
BRANCH   1   2
ATOM      2  S   UNL d   1     -39.876  14.482  20.684  0.00  0.00    -0.083 SA
BRANCH   2   3
ATOM      3  C   UNL d   1     -39.597  14.880  21.359  0.00  0.00     0.050 A 
ATOM      4  C   UNL d   1     -39.254  14.522  22.016  0.00  0.00     0.025 A 
ATOM      5  C   UNL d   1     -39.057  15.123  22.558  0.00  0.00     0.082 A 
ATOM      6  C   UNL d   1     -39.092  13.730  22.202  0.00  0.00     0.002 A 
ATOM      7  C   UNL d   1     -38.701  14.931  23.279  0.00  0.00     0.019 A 
ATOM      8  N   UNL d   1     -39.283  15.846  22.222  0.00  0.00    -0.243 NA
ATOM      9  C   UNL d   1     -38.542  14.144  23.458  0.00  0.00     0.002 A 
ATOM     10  C   UNL d   1     -38.740  13.538  22.914  0.00  0.00     0.000 A 
ATOM     11  C   UNL d   1     -39.615  15.694  21.484  0.00  0.00     0.105 A 
ENDBRANCH   2   3
ENDBRANCH   1   2
BRANCH   1  12
ATOM     12  C   UNL d   1     -40.039  14.540  19.259  0.00  0.00     0.109 C 
BRANCH  12  13
ATOM     13  N   UNL d   1     -40.629  14.707  18.689  0.00  0.00    -0.204 NA
ATOM     14  C   UNL d   1     -40.528  14.469  17.908  0.00  0.00     0.302 C 
ATOM     15  O   UNL d   1     -41.113  14.636  17.349  0.00  0.00    -0.263 OA
BRANCH  14  16
ATOM     16  C   UNL d   1     -39.837  14.061  17.681  0.00  0.00     0.158 A 
ATOM     17  O   UNL d   1     -39.561  13.298  17.847  0.00  0.00    -0.296 OA
ATOM     18  C   UNL d   1     -38.836  13.206  17.466  0.00  0.00     0.134 A 
ATOM     19 BR   UNL d   1     -38.359  12.522  17.482  0.00  0.00    -0.022 Br
ATOM     20  C   UNL d   1     -38.660  13.904  17.067  0.00  0.00     0.034 A 
ATOM     21  C   UNL d   1     -39.279  14.431  17.200  0.00  0.00     0.032 A 
ENDBRANCH  14  16
ENDBRANCH  12  13
ENDBRANCH   1  12
TORSDOF 5
ENDMDL
MODEL 5
REMARK VINA RESULT:      -5.9      8.259      9.785
REMARK  5 active torsions:
REMARK  status: ('A' for Active; 'I' for Inactive)
REMARK    1  A    between atoms: C_7  and  C_1 
REMARK    2  A    between atoms: C_5  and  S_14 
REMARK       I    between atoms: N_13  and  C_7 
REMARK    3  A    between atoms: C_18  and  N_13 
REMARK    4  A    between atoms: S_14  and  C_19 
REMARK    5  A    between atoms: C_19  and  C_18 
ROOT
ATOM      1  C   UNL d   1     -40.244  14.999  18.741  0.00  0.00     0.056 C 
ENDROOT
BRANCH   1   2
ATOM      2  S   UNL d   1     -39.960  14.320  18.352  0.00  0.00    -0.083 SA
BRANCH   2   3
ATOM      3  C   UNL d   1     -39.595  14.391  17.608  0.00  0.00     0.050 A 
ATOM      4  C   UNL d   1     -39.045  13.866  17.294  0.00  0.00     0.025 A 
ATOM      5  C   UNL d   1     -38.826  14.149  16.541  0.00  0.00     0.082 A 
ATOM      6  C   UNL d   1     -38.708  13.166  17.584  0.00  0.00     0.002 A 
ATOM      7  C   UNL d   1     -38.275  13.734  16.086  0.00  0.00     0.019 A 
ATOM      8  N   UNL d   1     -39.248  14.849  16.405  0.00  0.00    -0.243 NA
ATOM      9  C   UNL d   1     -37.945  13.039  16.380  0.00  0.00     0.002 A 
ATOM     10  C   UNL d   1     -38.164  12.754  17.136  0.00  0.00     0.000 A 
ATOM     11  C   UNL d   1     -39.721  14.996  17.063  0.00  0.00     0.105 A 
ENDBRANCH   2   3
ENDBRANCH   1   2
BRANCH   1  12
ATOM     12  C   UNL d   1     -40.323  14.998  19.563  0.00  0.00     0.109 C 
BRANCH  12  13
ATOM     13  N   UNL d   1     -40.968  15.393  19.921  0.00  0.00    -0.204 NA
ATOM     14  C   UNL d   1     -40.975  15.521  20.734  0.00  0.00     0.302 C 
ATOM     15  O   UNL d   1     -41.614  15.911  21.083  0.00  0.00    -0.263 OA
BRANCH  14  16
ATOM     16  C   UNL d   1     -40.339  15.256  21.204  0.00  0.00     0.158 A 
ATOM     17  O   UNL d   1     -40.090  14.499  21.428  0.00  0.00    -0.296 OA
ATOM     18  C   UNL d   1     -39.420  14.586  21.900  0.00  0.00     0.134 A 
ATOM     19 BR   UNL d   1     -38.984  13.967  22.249  0.00  0.00    -0.022 Br
ATOM     20  C   UNL d   1     -39.252  15.388  21.970  0.00  0.00     0.034 A 
ATOM     21  C   UNL d   1     -39.820  15.801  21.540  0.00  0.00     0.032 A 
ENDBRANCH  14  16
ENDBRANCH  12  13
ENDBRANCH   1  12
TORSDOF 5
ENDMDL
MODEL 6
REMARK VINA RESULT:      -4.5      2.782      5.073
REMARK  5 active torsions:
REMARK  status: ('A' for Active; 'I' for Inactive)
REMARK    1  A    between atoms: C_7  and  C_1 
REMARK    2  A    between atoms: C_5  and  S_14 
REMARK       I    between atoms: N_13  and  C_7 
REMARK    3  A    between atoms: C_18  and  N_13 
REMARK    4  A    between atoms: S_14  and  C_19 
REMARK    5  A    between atoms: C_19  and  C_18 
ROOT
ATOM      1  C   UNL d   1     -46.077  13.222  22.739  0.00  0.00     0.056 C 
ENDROOT
BRANCH   1   2
ATOM      2  S   UNL d   1     -46.847  12.910  22.685  0.00  0.00    -0.083 SA
BRANCH   2   3
ATOM      3  C   UNL d   1     -47.497  13.424  22.611  0.00  0.00     0.050 A 
ATOM      4  C   UNL d   1     -48.254  13.204  22.374  0.00  0.00     0.025 A 
ATOM      5  C   UNL d   1     -48.729  13.889  22.378  0.00  0.00     0.082 A 
ATOM      6  C   UNL d   1     -48.584  12.476  22.153  0.00  0.00     0.002 A 
ATOM      7  C   UNL d   1     -49.526  13.842  22.163  0.00  0.00     0.019 A 
ATOM      8  N   UNL d   1     -48.252  14.522  22.620  0.00  0.00    -0.243 NA
ATOM      9  C   UNL d   1     -49.847  13.116  21.945  0.00  0.00     0.002 A 
ATOM     10  C   UNL d   1     -49.371  12.428  21.940  0.00  0.00     0.000 A 
ATOM     11  C   UNL d   1     -47.495  14.234  22.763  0.00  0.00     0.105 A 
ENDBRANCH   2   3
ENDBRANCH   1   2
BRANCH   1  12
ATOM     12  C   UNL d   1     -45.425  12.723  22.656  0.00  0.00     0.109 C 
BRANCH  12  13
ATOM     13  N   UNL d   1     -44.802  12.931  22.137  0.00  0.00    -0.204 NA
ATOM     14  C   UNL d   1     -44.130  12.458  22.085  0.00  0.00     0.302 C 
ATOM     15  O   UNL d   1     -43.519  12.667  21.572  0.00  0.00    -0.263 OA
BRANCH  14  16
ATOM     16  C   UNL d   1     -44.069  11.768  22.551  0.00  0.00     0.158 A 
ATOM     17  O   UNL d   1     -44.640  11.262  22.874  0.00  0.00    -0.296 OA
ATOM     18  C   UNL d   1     -44.243  10.668  23.284  0.00  0.00     0.134 A 
ATOM     19 BR   UNL d   1     -44.599  10.038  23.698  0.00  0.00    -0.022 Br
ATOM     20  C   UNL d   1     -43.433  10.801  23.219  0.00  0.00     0.034 A 
ATOM     21  C   UNL d   1     -43.328  11.480  22.765  0.00  0.00     0.032 A 
ENDBRANCH  14  16
ENDBRANCH  12  13
ENDBRANCH   1  12
TORSDOF 5
ENDMDL
MODEL 7
REMARK VINA RESULT:      -4.4      9.364     10.540
REMARK  5 active torsions:
REMARK  status: ('A' for Active; 'I' for Inactive)
REMARK    1  A    between atoms: C_7  and  C_1 
REMARK    2  A    between atoms: C_5  and  S_14 
REMARK       I    between atoms: N_13  and  C_7 
REMARK    3  A    between atoms: C_18  and  N_13 
REMARK    4  A    between atoms: S_14  and  C_19 
REMARK    5  A    between atoms: C_19  and  C_18 
ROOT
ATOM      1  C   UNL d   1     -39.480  14.586  19.431  0.00  0.00     0.056 C 
ENDROOT
BRANCH   1   2
ATOM      2  S   UNL d   1     -39.019  14.690  20.117  0.00  0.00    -0.083 SA
BRANCH   2   3
ATOM      3  C   UNL d   1     -39.323  15.125  20.758  0.00  0.00     0.050 A 
ATOM      4  C   UNL d   1     -38.941  15.245  21.477  0.00  0.00     0.025 A 
ATOM      5  C   UNL d   1     -39.442  15.709  21.955  0.00  0.00     0.082 A 
ATOM      6  C   UNL d   1     -38.205  14.998  21.769  0.00  0.00     0.002 A 
ATOM      7  C   UNL d   1     -39.207  15.922  22.718  0.00  0.00     0.019 A 
ATOM      8  N   UNL d   1     -40.128  15.867  21.518  0.00  0.00    -0.243 NA
ATOM      9  C   UNL d   1     -38.475  15.674  23.002  0.00  0.00     0.002 A 
ATOM     10  C   UNL d   1     -37.971  15.208  22.523  0.00  0.00     0.000 A 
ATOM     11  C   UNL d   1     -40.053  15.507  20.781  0.00  0.00     0.105 A 
ENDBRANCH   2   3
ENDBRANCH   1   2
BRANCH   1  12
ATOM     12  C   UNL d   1     -39.118  14.363  18.724  0.00  0.00     0.109 C 
BRANCH  12  13
ATOM     13  N   UNL d   1     -39.256  13.601  18.406  0.00  0.00    -0.204 NA
ATOM     14  C   UNL d   1     -39.117  13.453  17.608  0.00  0.00     0.302 C 
ATOM     15  O   UNL d   1     -39.255  12.700  17.299  0.00  0.00    -0.263 OA
BRANCH  14  16
ATOM     16  C   UNL d   1     -38.838  14.065  17.113  0.00  0.00     0.158 A 
ATOM     17  O   UNL d   1     -39.200  14.745  16.811  0.00  0.00    -0.296 OA
ATOM     18  C   UNL d   1     -38.643  15.141  16.351  0.00  0.00     0.134 A 
ATOM     19 BR   UNL d   1     -38.767  15.855  15.940  0.00  0.00    -0.022 Br
ATOM     20  C   UNL d   1     -37.940  14.713  16.366  0.00  0.00     0.034 A 
ATOM     21  C   UNL d   1     -38.062  14.049  16.837  0.00  0.00     0.032 A 
ENDBRANCH  14  16
ENDBRANCH  12  13
ENDBRANCH   1  12
TORSDOF 5
ENDMDL
MODEL 8
REMARK VINA RESULT:      -4.4      9.447     10.193
REMARK  5 active torsions:
REMARK  status: ('A' for Active; 'I' for Inactive)
REMARK    1  A    between atoms: C_7  and  C_1 
REMARK    2  A    between atoms: C_5  and  S_14 
REMARK       I    between atoms: N_13  and  C_7 
REMARK    3  A    between atoms: C_18  and  N_13 
REMARK    4  A    between atoms: S_14  and  C_19 
REMARK    5  A    between atoms: C_19  and  C_18 
ROOT
ATOM      1  C   UNL d   1     -39.180  13.673  20.076  0.00  0.00     0.056 C 
ENDROOT
BRANCH   1   2
ATOM      2  S   UNL d   1     -39.223  14.344  19.585  0.00  0.00    -0.083 SA
BRANCH   2   3
ATOM      3  C   UNL d   1     -39.502  14.269  18.805  0.00  0.00     0.050 A 
ATOM      4  C   UNL d   1     -40.009  14.796  18.427  0.00  0.00     0.025 A 
ATOM      5  C   UNL d   1     -40.144  14.508  17.657  0.00  0.00     0.082 A 
ATOM      6  C   UNL d   1     -40.370  15.501  18.672  0.00  0.00     0.002 A 
ATOM      7  C   UNL d   1     -40.636  14.924  17.139  0.00  0.00     0.019 A 
ATOM      8  N   UNL d   1     -39.715  13.804  17.574  0.00  0.00    -0.243 NA
ATOM      9  C   UNL d   1     -40.992  15.623  17.389  0.00  0.00     0.002 A 
ATOM     10  C   UNL d   1     -40.857  15.913  18.162  0.00  0.00     0.000 A 
ATOM     11  C   UNL d   1     -39.320  13.659  18.282  0.00  0.00     0.105 A 
ENDBRANCH   2   3
ENDBRANCH   1   2
BRANCH   1  12
ATOM     12  C   UNL d   1     -38.911  13.749  20.853  0.00  0.00     0.109 C 
BRANCH  12  13
ATOM     13  N   UNL d   1     -38.588  13.086  21.250  0.00  0.00    -0.204 NA
ATOM     14  C   UNL d   1     -38.318  13.159  22.024  0.00  0.00     0.302 C 
ATOM     15  O   UNL d   1     -37.999  12.503  22.411  0.00  0.00    -0.263 OA
BRANCH  14  16
ATOM     16  C   UNL d   1     -38.366  13.894  22.416  0.00  0.00     0.158 A 
ATOM     17  O   UNL d   1     -37.940  14.598  22.332  0.00  0.00    -0.296 OA
ATOM     18  C   UNL d   1     -38.240  15.139  22.876  0.00  0.00     0.134 A 
ATOM     19 BR   UNL d   1     -37.974  15.922  22.986  0.00  0.00    -0.022 Br
ATOM     20  C   UNL d   1     -38.848  14.776  23.296  0.00  0.00     0.034 A 
ATOM     21  C   UNL d   1     -38.925  14.008  23.011  0.00  0.00     0.032 A 
ENDBRANCH  14  16
ENDBRANCH  12  13
ENDBRANCH   1  12
TORSDOF 5
ENDMDL
