MODEL 1
REMARK VINA RESULT:      -4.2      0.000      0.000
REMARK  1 active torsions:
REMARK  status: ('A' for Active; 'I' for Inactive)
REMARK    1  A    between atoms: C_7  and  C_5 
ROOT
ATOM      1  C   UNL d   1      56.734   0.368  33.564  0.00  0.00     0.110 A 
ATOM      2  C   UNL d   1      57.680   0.589  34.486  0.00  0.00     0.332 A 
ATOM      3  C   UNL d   1      56.364   0.521  34.283  0.00  0.00     0.060 A 
ATOM      4  S   UNL d   1      56.943   0.658  34.853  0.00  0.00    -0.018 SA
ATOM      5  C   UNL d   1      56.293   0.210  32.886  0.00  0.00     0.027 A 
ATOM      6  O   UNL d   1      57.551   0.410  33.689  0.00  0.00    -0.268 OA
ATOM      7  C   UNL d   1      55.526   0.514  34.318  0.00  0.00     0.051 A 
ATOM      8  C   UNL d   1      55.469   0.203  32.923  0.00  0.00     0.044 A 
ATOM      9  O   UNL d   1      58.419   0.682  34.846  0.00  0.00    -0.251 OA
ATOM     10  C   UNL d   1      55.085   0.356  33.639  0.00  0.00     0.196 A 
ATOM     11  O   UNL d   1      54.258   0.349  33.675  0.00  0.00    -0.286 OA
ENDROOT
BRANCH   5  12
ATOM     12  C   UNL d   1      56.676   0.057  32.169  0.00  0.00     0.004 A 
ATOM     13  C   UNL d   1      56.840  -0.720  31.945  0.00  0.00     0.030 A 
ATOM     14  C   UNL d   1      57.223  -0.872  31.228  0.00  0.00     0.140 A 
ATOM     15  F   UNL d   1      57.389  -1.650  31.000  0.00  0.00    -0.204 F 
ATOM     16  C   UNL d   1      57.442  -0.247  30.736  0.00  0.00     0.030 A 
ATOM     17  C   UNL d   1      57.278   0.529  30.960  0.00  0.00     0.002 A 
ATOM     18  C   UNL d   1      56.895   0.682  31.677  0.00  0.00     0.000 A 
ENDBRANCH   5  12
TORSDOF 1
ENDMDL
MODEL 2
REMARK VINA RESULT:      -3.7      1.965      3.090
REMARK  1 active torsions:
REMARK  status: ('A' for Active; 'I' for Inactive)
REMARK    1  A    between atoms: C_7  and  C_5 
ROOT
ATOM      1  C   UNL d   1      58.193   0.373  31.585  0.00  0.00     0.110 A 
ATOM      2  C   UNL d   1      59.373   0.595  32.179  0.00  0.00     0.332 A 
ATOM      3  C   UNL d   1      58.748   0.545  31.002  0.00  0.00     0.060 A 
ATOM      4  S   UNL d   1      59.475   0.682  31.364  0.00  0.00    -0.018 SA
ATOM      5  C   UNL d   1      57.408   0.210  31.390  0.00  0.00     0.027 A 
ATOM      6  O   UNL d   1      58.580   0.403  32.316  0.00  0.00    -0.268 OA
ATOM      7  C   UNL d   1      58.504   0.552  30.200  0.00  0.00     0.051 A 
ATOM      8  C   UNL d   1      57.171   0.218  30.600  0.00  0.00     0.044 A 
ATOM      9  O   UNL d   1      59.956   0.682  32.759  0.00  0.00    -0.251 OA
ATOM     10  C   UNL d   1      57.719   0.389  30.005  0.00  0.00     0.196 A 
ATOM     11  O   UNL d   1      57.479   0.397  29.212  0.00  0.00    -0.286 OA
ENDROOT
BRANCH   5  12
ATOM     12  C   UNL d   1      56.860   0.038  31.985  0.00  0.00     0.004 A 
ATOM     13  C   UNL d   1      56.704  -0.746  32.189  0.00  0.00     0.030 A 
ATOM     14  C   UNL d   1      56.156  -0.917  32.784  0.00  0.00     0.140 A 
ATOM     15  F   UNL d   1      55.996  -1.702  32.992  0.00  0.00    -0.204 F 
ATOM     16  C   UNL d   1      55.765  -0.304  33.174  0.00  0.00     0.030 A 
ATOM     17  C   UNL d   1      55.921   0.479  32.970  0.00  0.00     0.002 A 
ATOM     18  C   UNL d   1      56.469   0.651  32.375  0.00  0.00     0.000 A 
ENDBRANCH   5  12
TORSDOF 1
ENDMDL
MODEL 3
REMARK VINA RESULT:      -3.4      0.963      2.123
REMARK  1 active torsions:
REMARK  status: ('A' for Active; 'I' for Inactive)
REMARK    1  A    between atoms: C_7  and  C_5 
ROOT
ATOM      1  C   UNL d   1      55.582   0.378  33.855  0.00  0.00     0.110 A 
ATOM      2  C   UNL d   1      54.249   0.491  33.925  0.00  0.00     0.332 A 
ATOM      3  C   UNL d   1      55.379   0.584  34.626  0.00  0.00     0.060 A 
ATOM      4  S   UNL d   1      54.560   0.655  34.672  0.00  0.00    -0.018 SA
ATOM      5  C   UNL d   1      56.370   0.267  33.638  0.00  0.00     0.027 A 
ATOM      6  O   UNL d   1      54.880   0.319  33.419  0.00  0.00    -0.268 OA
ATOM      7  C   UNL d   1      55.989   0.682  35.193  0.00  0.00     0.051 A 
ATOM      8  C   UNL d   1      56.968   0.363  34.198  0.00  0.00     0.044 A 
ATOM      9  O   UNL d   1      53.449   0.496  33.714  0.00  0.00    -0.251 OA
ATOM     10  C   UNL d   1      56.777   0.571  34.976  0.00  0.00     0.196 A 
ATOM     11  O   UNL d   1      57.379   0.668  35.537  0.00  0.00    -0.286 OA
ENDROOT
BRANCH   5  12
ATOM     12  C   UNL d   1      56.560   0.059  32.861  0.00  0.00     0.004 A 
ATOM     13  C   UNL d   1      56.506  -0.727  32.618  0.00  0.00     0.030 A 
ATOM     14  C   UNL d   1      56.696  -0.935  31.841  0.00  0.00     0.140 A 
ATOM     15  F   UNL d   1      56.643  -1.723  31.594  0.00  0.00    -0.204 F 
ATOM     16  C   UNL d   1      56.941  -0.356  31.307  0.00  0.00     0.030 A 
ATOM     17  C   UNL d   1      56.995   0.431  31.549  0.00  0.00     0.002 A 
ATOM     18  C   UNL d   1      56.805   0.638  32.327  0.00  0.00     0.000 A 
ENDBRANCH   5  12
TORSDOF 1
ENDMDL
MODEL 4
REMARK VINA RESULT:      -3.3      2.347      3.743
REMARK  1 active torsions:
REMARK  status: ('A' for Active; 'I' for Inactive)
REMARK    1  A    between atoms: C_7  and  C_5 
ROOT
ATOM      1  C   UNL d   1      57.997   0.324  30.791  0.00  0.00     0.110 A 
ATOM      2  C   UNL d   1      57.787   0.401  29.471  0.00  0.00     0.332 A 
ATOM      3  C   UNL d   1      58.707   0.526  30.428  0.00  0.00     0.060 A 
ATOM      4  S   UNL d   1      58.581   0.574  29.615  0.00  0.00    -0.018 SA
ATOM      5  C   UNL d   1      57.950   0.235  31.610  0.00  0.00     0.027 A 
ATOM      6  O   UNL d   1      57.425   0.246  30.198  0.00  0.00    -0.268 OA
ATOM      7  C   UNL d   1      59.388   0.641  30.903  0.00  0.00     0.051 A 
ATOM      8  C   UNL d   1      58.621   0.349  32.075  0.00  0.00     0.044 A 
ATOM      9  O   UNL d   1      57.414   0.383  28.733  0.00  0.00    -0.251 OA
ATOM     10  C   UNL d   1      59.341   0.551  31.721  0.00  0.00     0.196 A 
ATOM     11  O   UNL d   1      60.014   0.665  32.190  0.00  0.00    -0.286 OA
ENDROOT
BRANCH   5  12
ATOM     12  C   UNL d   1      57.230   0.032  31.964  0.00  0.00     0.004 A 
ATOM     13  C   UNL d   1      56.956  -0.745  31.925  0.00  0.00     0.030 A 
ATOM     14  C   UNL d   1      56.236  -0.948  32.278  0.00  0.00     0.140 A 
ATOM     15  F   UNL d   1      55.957  -1.725  32.242  0.00  0.00    -0.204 F 
ATOM     16  C   UNL d   1      55.792  -0.373  32.671  0.00  0.00     0.030 A 
ATOM     17  C   UNL d   1      56.067   0.403  32.710  0.00  0.00     0.002 A 
ATOM     18  C   UNL d   1      56.787   0.606  32.356  0.00  0.00     0.000 A 
ENDBRANCH   5  12
TORSDOF 1
ENDMDL
MODEL 5
REMARK VINA RESULT:      -2.8      3.706      5.319
REMARK  1 active torsions:
REMARK  status: ('A' for Active; 'I' for Inactive)
REMARK    1  A    between atoms: C_7  and  C_5 
ROOT
ATOM      1  C   UNL d   1      59.204  -1.204  29.270  0.00  0.00     0.110 A 
ATOM      2  C   UNL d   1      58.889  -2.500  29.143  0.00  0.00     0.332 A 
ATOM      3  C   UNL d   1      59.799  -1.574  28.838  0.00  0.00     0.060 A 
ATOM      4  S   UNL d   1      59.609  -2.372  28.758  0.00  0.00    -0.018 SA
ATOM      5  C   UNL d   1      59.242  -0.398  29.440  0.00  0.00     0.027 A 
ATOM      6  O   UNL d   1      58.638  -1.778  29.459  0.00  0.00    -0.268 OA
ATOM      7  C   UNL d   1      60.450  -1.118  28.571  0.00  0.00     0.051 A 
ATOM      8  C   UNL d   1      59.883   0.048  29.176  0.00  0.00     0.044 A 
ATOM      9  O   UNL d   1      58.486  -3.220  29.204  0.00  0.00    -0.251 OA
ATOM     10  C   UNL d   1      60.487  -0.312  28.742  0.00  0.00     0.196 A 
ATOM     11  O   UNL d   1      61.131   0.138  28.477  0.00  0.00    -0.286 OA
ENDROOT
BRANCH   5  12
ATOM     12  C   UNL d   1      58.637  -0.038  29.875  0.00  0.00     0.004 A 
ATOM     13  C   UNL d   1      58.670  -0.028  30.699  0.00  0.00     0.030 A 
ATOM     14  C   UNL d   1      58.066   0.332  31.133  0.00  0.00     0.140 A 
ATOM     15  F   UNL d   1      58.095   0.343  31.960  0.00  0.00    -0.204 F 
ATOM     16  C   UNL d   1      57.429   0.682  30.743  0.00  0.00     0.030 A 
ATOM     17  C   UNL d   1      57.396   0.673  29.919  0.00  0.00     0.002 A 
ATOM     18  C   UNL d   1      58.000   0.312  29.484  0.00  0.00     0.000 A 
ENDBRANCH   5  12
TORSDOF 1
ENDMDL
MODEL 6
REMARK VINA RESULT:      -2.5      3.695      4.987
REMARK  1 active torsions:
REMARK  status: ('A' for Active; 'I' for Inactive)
REMARK    1  A    between atoms: C_7  and  C_5 
ROOT
ATOM      1  C   UNL d   1      59.377  -0.648  29.344  0.00  0.00     0.110 A 
ATOM      2  C   UNL d   1      60.282   0.210  28.857  0.00  0.00     0.332 A 
ATOM      3  C   UNL d   1      59.181   0.108  29.602  0.00  0.00     0.060 A 
ATOM      4  S   UNL d   1      59.736   0.639  29.304  0.00  0.00    -0.018 SA
ATOM      5  C   UNL d   1      58.918  -1.301  29.555  0.00  0.00     0.027 A 
ATOM      6  O   UNL d   1      60.061  -0.586  28.881  0.00  0.00    -0.268 OA
ATOM      7  C   UNL d   1      58.504   0.209  30.085  0.00  0.00     0.051 A 
ATOM      8  C   UNL d   1      58.252  -1.199  30.031  0.00  0.00     0.044 A 
ATOM      9  O   UNL d   1      60.937   0.517  28.455  0.00  0.00    -0.251 OA
ATOM     10  C   UNL d   1      58.045  -0.443  30.296  0.00  0.00     0.196 A 
ATOM     11  O   UNL d   1      57.376  -0.343  30.775  0.00  0.00    -0.286 OA
ENDROOT
BRANCH   5  12
ATOM     12  C   UNL d   1      59.125  -2.056  29.289  0.00  0.00     0.004 A 
ATOM     13  C   UNL d   1      59.794  -2.431  29.592  0.00  0.00     0.030 A 
ATOM     14  C   UNL d   1      60.002  -3.187  29.327  0.00  0.00     0.140 A 
ATOM     15  F   UNL d   1      60.672  -3.566  29.628  0.00  0.00    -0.204 F 
ATOM     16  C   UNL d   1      59.540  -3.566  28.758  0.00  0.00     0.030 A 
ATOM     17  C   UNL d   1      58.871  -3.190  28.455  0.00  0.00     0.002 A 
ATOM     18  C   UNL d   1      58.663  -2.435  28.721  0.00  0.00     0.000 A 
ENDBRANCH   5  12
TORSDOF 1
ENDMDL
