MODEL 1
REMARK VINA RESULT:      -7.7      0.000      0.000
REMARK  2 active torsions:
REMARK  status: ('A' for Active; 'I' for Inactive)
REMARK    1  A    between atoms: C_6  and  C_1 
REMARK    2  A    between atoms: O_12  and  C_9 
ROOT
ATOM      1  C   UNL d   1     -48.250  13.325  22.963  0.00  0.00     0.162 A 
ATOM      2  N   UNL d   1     -48.374  14.120  23.239  0.00  0.00    -0.225 NA
ATOM      3  N   UNL d   1     -48.896  13.129  22.489  0.00  0.00    -0.225 NA
ATOM      4  C   UNL d   1     -49.072  14.381  22.935  0.00  0.00     0.101 A 
ATOM      5  C   UNL d   1     -49.403  13.753  22.459  0.00  0.00     0.101 A 
ATOM      6  C   UNL d   1     -49.518  15.075  22.973  0.00  0.00     0.021 A 
ATOM      7  C   UNL d   1     -50.125  13.863  22.075  0.00  0.00     0.021 A 
ATOM      8  C   UNL d   1     -50.506  14.564  22.155  0.00  0.00     0.002 A 
ATOM      9  C   UNL d   1     -50.186  15.171  22.615  0.00  0.00     0.002 A 
ENDROOT
BRANCH   1  10
ATOM     10  C   UNL d   1     -47.601  12.847  23.142  0.00  0.00     0.036 A 
ATOM     11  C   UNL d   1     -46.839  13.095  22.945  0.00  0.00     0.005 A 
ATOM     12  C   UNL d   1     -46.190  12.618  23.124  0.00  0.00     0.024 A 
ATOM     13  C   UNL d   1     -46.304  11.893  23.499  0.00  0.00     0.094 A 
ATOM     14  C   UNL d   1     -47.068  11.641  23.698  0.00  0.00     0.024 A 
ATOM     15  C   UNL d   1     -47.716  12.118  23.519  0.00  0.00     0.005 A 
BRANCH  13  16
ATOM     16  O   UNL d   1     -45.655  11.415  23.678  0.00  0.00    -0.328 OA
ATOM     17  C   UNL d   1     -45.299  10.670  23.698  0.00  0.00     0.181 C 
ENDBRANCH  13  16
ENDBRANCH   1  10
TORSDOF 2
ENDMDL
MODEL 2
REMARK VINA RESULT:      -7.5      1.394      1.516
REMARK  2 active torsions:
REMARK  status: ('A' for Active; 'I' for Inactive)
REMARK    1  A    between atoms: C_6  and  C_1 
REMARK    2  A    between atoms: O_12  and  C_9 
ROOT
ATOM      1  C   UNL d   1     -48.280  14.188  22.906  0.00  0.00     0.162 A 
ATOM      2  N   UNL d   1     -48.564  14.982  22.795  0.00  0.00    -0.225 NA
ATOM      3  N   UNL d   1     -48.913  13.742  23.191  0.00  0.00    -0.225 NA
ATOM      4  C   UNL d   1     -49.341  14.999  23.009  0.00  0.00     0.101 A 
ATOM      5  C   UNL d   1     -49.562  14.212  23.260  0.00  0.00     0.101 A 
ATOM      6  C   UNL d   1     -49.939  15.567  23.041  0.00  0.00     0.021 A 
ATOM      7  C   UNL d   1     -50.332  14.062  23.512  0.00  0.00     0.021 A 
ATOM      8  C   UNL d   1     -50.865  14.661  23.518  0.00  0.00     0.002 A 
ATOM      9  C   UNL d   1     -50.651  15.421  23.275  0.00  0.00     0.002 A 
ENDROOT
BRANCH   1  10
ATOM     10  C   UNL d   1     -47.513  13.924  22.755  0.00  0.00     0.036 A 
ATOM     11  C   UNL d   1     -46.867  14.394  22.958  0.00  0.00     0.005 A 
ATOM     12  C   UNL d   1     -46.100  14.130  22.806  0.00  0.00     0.024 A 
ATOM     13  C   UNL d   1     -45.980  13.396  22.451  0.00  0.00     0.094 A 
ATOM     14  C   UNL d   1     -46.627  12.921  22.246  0.00  0.00     0.024 A 
ATOM     15  C   UNL d   1     -47.394  13.185  22.398  0.00  0.00     0.005 A 
BRANCH  13  16
ATOM     16  O   UNL d   1     -45.213  13.132  22.300  0.00  0.00    -0.328 OA
ATOM     17  C   UNL d   1     -44.605  12.971  21.765  0.00  0.00     0.181 C 
ENDBRANCH  13  16
ENDBRANCH   1  10
TORSDOF 2
ENDMDL
MODEL 3
REMARK VINA RESULT:      -6.7      1.833      4.184
REMARK  2 active torsions:
REMARK  status: ('A' for Active; 'I' for Inactive)
REMARK    1  A    between atoms: C_6  and  C_1 
REMARK    2  A    between atoms: O_12  and  C_9 
ROOT
ATOM      1  C   UNL d   1     -47.686  13.820  22.872  0.00  0.00     0.162 A 
ATOM      2  N   UNL d   1     -47.007  14.034  22.405  0.00  0.00    -0.225 NA
ATOM      3  N   UNL d   1     -47.507  13.109  23.249  0.00  0.00    -0.225 NA
ATOM      4  C   UNL d   1     -46.448  13.464  22.507  0.00  0.00     0.101 A 
ATOM      5  C   UNL d   1     -46.765  12.877  23.042  0.00  0.00     0.101 A 
ATOM      6  C   UNL d   1     -45.683  13.321  22.232  0.00  0.00     0.021 A 
ATOM      7  C   UNL d   1     -46.310  12.221  23.250  0.00  0.00     0.021 A 
ATOM      8  C   UNL d   1     -45.573  12.145  22.945  0.00  0.00     0.002 A 
ATOM      9  C   UNL d   1     -45.267  12.712  22.428  0.00  0.00     0.002 A 
ENDROOT
BRANCH   1  10
ATOM     10  C   UNL d   1     -48.387  14.251  22.929  0.00  0.00     0.036 A 
ATOM     11  C   UNL d   1     -49.076  13.885  23.197  0.00  0.00     0.005 A 
ATOM     12  C   UNL d   1     -49.777  14.316  23.255  0.00  0.00     0.024 A 
ATOM     13  C   UNL d   1     -49.790  15.113  23.044  0.00  0.00     0.094 A 
ATOM     14  C   UNL d   1     -49.100  15.483  22.774  0.00  0.00     0.024 A 
ATOM     15  C   UNL d   1     -48.398  15.053  22.717  0.00  0.00     0.005 A 
BRANCH  13  16
ATOM     16  O   UNL d   1     -50.491  15.543  23.101  0.00  0.00    -0.328 OA
ATOM     17  C   UNL d   1     -51.063  15.921  23.562  0.00  0.00     0.181 C 
ENDBRANCH  13  16
ENDBRANCH   1  10
TORSDOF 2
ENDMDL
MODEL 4
REMARK VINA RESULT:      -5.8      8.801      9.768
REMARK  2 active torsions:
REMARK  status: ('A' for Active; 'I' for Inactive)
REMARK    1  A    between atoms: C_6  and  C_1 
REMARK    2  A    between atoms: O_12  and  C_9 
ROOT
ATOM      1  C   UNL d   1     -39.793  14.540  19.737  0.00  0.00     0.162 A 
ATOM      2  N   UNL d   1     -39.002  14.242  19.832  0.00  0.00    -0.225 NA
ATOM      3  N   UNL d   1     -40.161  14.491  20.474  0.00  0.00    -0.225 NA
ATOM      4  C   UNL d   1     -38.911  14.025  20.602  0.00  0.00     0.101 A 
ATOM      5  C   UNL d   1     -39.646  14.183  21.009  0.00  0.00     0.101 A 
ATOM      6  C   UNL d   1     -38.307  13.703  21.065  0.00  0.00     0.021 A 
ATOM      7  C   UNL d   1     -39.716  14.014  21.813  0.00  0.00     0.021 A 
ATOM      8  C   UNL d   1     -39.088  13.702  22.203  0.00  0.00     0.002 A 
ATOM      9  C   UNL d   1     -38.378  13.549  21.809  0.00  0.00     0.002 A 
ENDROOT
BRANCH   1  10
ATOM     10  C   UNL d   1     -40.121  14.823  19.035  0.00  0.00     0.036 A 
ATOM     11  C   UNL d   1     -40.279  14.304  18.414  0.00  0.00     0.005 A 
ATOM     12  C   UNL d   1     -40.607  14.587  17.712  0.00  0.00     0.024 A 
ATOM     13  C   UNL d   1     -40.777  15.390  17.631  0.00  0.00     0.094 A 
ATOM     14  C   UNL d   1     -40.619  15.914  18.253  0.00  0.00     0.024 A 
ATOM     15  C   UNL d   1     -40.291  15.631  18.955  0.00  0.00     0.005 A 
BRANCH  13  16
ATOM     16  O   UNL d   1     -41.105  15.673  16.929  0.00  0.00    -0.328 OA
ATOM     17  C   UNL d   1     -41.763  15.922  16.497  0.00  0.00     0.181 C 
ENDBRANCH  13  16
ENDBRANCH   1  10
TORSDOF 2
ENDMDL
MODEL 5
REMARK VINA RESULT:      -5.7      8.694      9.938
REMARK  2 active torsions:
REMARK  status: ('A' for Active; 'I' for Inactive)
REMARK    1  A    between atoms: C_6  and  C_1 
REMARK    2  A    between atoms: O_12  and  C_9 
ROOT
ATOM      1  C   UNL d   1     -39.832  14.542  18.645  0.00  0.00     0.162 A 
ATOM      2  N   UNL d   1     -40.362  14.071  19.116  0.00  0.00    -0.225 NA
ATOM      3  N   UNL d   1     -39.762  15.274  19.018  0.00  0.00    -0.225 NA
ATOM      4  C   UNL d   1     -40.594  14.517  19.746  0.00  0.00     0.101 A 
ATOM      5  C   UNL d   1     -40.214  15.280  19.684  0.00  0.00     0.101 A 
ATOM      6  C   UNL d   1     -41.086  14.414  20.401  0.00  0.00     0.021 A 
ATOM      7  C   UNL d   1     -40.349  15.856  20.257  0.00  0.00     0.021 A 
ATOM      8  C   UNL d   1     -40.840  15.689  20.869  0.00  0.00     0.002 A 
ATOM      9  C   UNL d   1     -41.208  14.952  20.929  0.00  0.00     0.002 A 
ENDROOT
BRANCH   1  10
ATOM     10  C   UNL d   1     -39.464  14.301  17.947  0.00  0.00     0.036 A 
ATOM     11  C   UNL d   1     -39.562  14.739  17.256  0.00  0.00     0.005 A 
ATOM     12  C   UNL d   1     -39.193  14.498  16.558  0.00  0.00     0.024 A 
ATOM     13  C   UNL d   1     -38.726  13.819  16.552  0.00  0.00     0.094 A 
ATOM     14  C   UNL d   1     -38.625  13.376  17.246  0.00  0.00     0.024 A 
ATOM     15  C   UNL d   1     -38.994  13.617  17.943  0.00  0.00     0.005 A 
BRANCH  13  16
ATOM     16  O   UNL d   1     -38.358  13.578  15.855  0.00  0.00    -0.328 OA
ATOM     17  C   UNL d   1     -37.942  13.761  15.165  0.00  0.00     0.181 C 
ENDBRANCH  13  16
ENDBRANCH   1  10
TORSDOF 2
ENDMDL
MODEL 6
REMARK VINA RESULT:      -5.5      8.471      9.091
REMARK  2 active torsions:
REMARK  status: ('A' for Active; 'I' for Inactive)
REMARK    1  A    between atoms: C_6  and  C_1 
REMARK    2  A    between atoms: O_12  and  C_9 
ROOT
ATOM      1  C   UNL d   1     -39.993  14.659  19.514  0.00  0.00     0.162 A 
ATOM      2  N   UNL d   1     -40.396  15.386  19.335  0.00  0.00    -0.225 NA
ATOM      3  N   UNL d   1     -39.904  14.250  18.803  0.00  0.00    -0.225 NA
ATOM      4  C   UNL d   1     -40.538  15.401  18.542  0.00  0.00     0.101 A 
ATOM      5  C   UNL d   1     -40.226  14.680  18.205  0.00  0.00     0.101 A 
ATOM      6  C   UNL d   1     -40.895  15.921  18.009  0.00  0.00     0.021 A 
ATOM      7  C   UNL d   1     -40.293  14.542  17.395  0.00  0.00     0.021 A 
ATOM      8  C   UNL d   1     -40.653  15.091  16.934  0.00  0.00     0.002 A 
ATOM      9  C   UNL d   1     -40.954  15.787  17.260  0.00  0.00     0.002 A 
ENDROOT
BRANCH   1  10
ATOM     10  C   UNL d   1     -39.742  14.417  20.262  0.00  0.00     0.036 A 
ATOM     11  C   UNL d   1     -38.945  14.252  20.397  0.00  0.00     0.005 A 
ATOM     12  C   UNL d   1     -38.694  14.010  21.145  0.00  0.00     0.024 A 
ATOM     13  C   UNL d   1     -39.240  13.934  21.758  0.00  0.00     0.094 A 
ATOM     14  C   UNL d   1     -40.041  14.100  21.625  0.00  0.00     0.024 A 
ATOM     15  C   UNL d   1     -40.292  14.341  20.877  0.00  0.00     0.005 A 
BRANCH  13  16
ATOM     16  O   UNL d   1     -38.989  13.693  22.505  0.00  0.00    -0.328 OA
ATOM     17  C   UNL d   1     -38.500  13.226  22.979  0.00  0.00     0.181 C 
ENDBRANCH  13  16
ENDBRANCH   1  10
TORSDOF 2
ENDMDL
MODEL 7
REMARK VINA RESULT:      -4.9      9.310     10.719
REMARK  2 active torsions:
REMARK  status: ('A' for Active; 'I' for Inactive)
REMARK    1  A    between atoms: C_6  and  C_1 
REMARK    2  A    between atoms: O_12  and  C_9 
ROOT
ATOM      1  C   UNL d   1     -39.194  14.454  17.659  0.00  0.00     0.162 A 
ATOM      2  N   UNL d   1     -38.960  13.768  17.212  0.00  0.00    -0.225 NA
ATOM      3  N   UNL d   1     -38.960  15.116  17.226  0.00  0.00    -0.225 NA
ATOM      4  C   UNL d   1     -38.599  14.024  16.539  0.00  0.00     0.101 A 
ATOM      5  C   UNL d   1     -38.600  14.879  16.548  0.00  0.00     0.101 A 
ATOM      6  C   UNL d   1     -38.249  13.673  15.878  0.00  0.00     0.021 A 
ATOM      7  C   UNL d   1     -38.264  15.297  15.922  0.00  0.00     0.021 A 
ATOM      8  C   UNL d   1     -37.940  14.892  15.311  0.00  0.00     0.002 A 
ATOM      9  C   UNL d   1     -37.940  14.066  15.302  0.00  0.00     0.002 A 
ENDROOT
BRANCH   1  10
ATOM     10  C   UNL d   1     -39.582  14.446  18.387  0.00  0.00     0.036 A 
ATOM     11  C   UNL d   1     -39.147  14.462  19.087  0.00  0.00     0.005 A 
ATOM     12  C   UNL d   1     -39.535  14.454  19.815  0.00  0.00     0.024 A 
ATOM     13  C   UNL d   1     -40.359  14.430  19.842  0.00  0.00     0.094 A 
ATOM     14  C   UNL d   1     -40.799  14.413  19.140  0.00  0.00     0.024 A 
ATOM     15  C   UNL d   1     -40.411  14.421  18.413  0.00  0.00     0.005 A 
BRANCH  13  16
ATOM     16  O   UNL d   1     -40.747  14.422  20.570  0.00  0.00    -0.328 OA
ATOM     17  C   UNL d   1     -41.328  14.723  21.074  0.00  0.00     0.181 C 
ENDBRANCH  13  16
ENDBRANCH   1  10
TORSDOF 2
ENDMDL
