MODEL 1
REMARK VINA RESULT:      -8.4      0.000      0.000
REMARK  10 active torsions:
REMARK  status: ('A' for Active; 'I' for Inactive)
REMARK    1  A    between atoms: C_10  and  N_1 
REMARK    2  A    between atoms: S_7  and  C_2 
REMARK    3  A    between atoms: C_9  and  C_3 
REMARK       I    between atoms: C_6  and  N_8 
REMARK    4  A    between atoms: C_11  and  C_6 
REMARK    5  A    between atoms: C_15  and  S_7 
REMARK    6  A    between atoms: N_8  and  C_9 
REMARK    7  A    between atoms: C_12  and  C_15 
REMARK    8  A    between atoms: O_21  and  C_12 
REMARK    9  A    between atoms: O_22  and  C_18 
REMARK   10  A    between atoms: C_25  and  O_21 
ROOT
ATOM      1  N   UNL d   1      53.107  32.351  53.403  0.00  0.00    -0.268 N 
ATOM      2  C   UNL d   1      53.008  31.554  53.210  0.00  0.00     0.201 A 
ATOM      3  C   UNL d   1      52.512  32.774  53.003  0.00  0.00     0.190 A 
ATOM      4  N   UNL d   1      52.361  31.487  52.697  0.00  0.00    -0.121 NA
ATOM      5  N   UNL d   1      52.055  32.232  52.568  0.00  0.00    -0.126 NA
ENDROOT
BRANCH   3   6
ATOM      6  C   UNL d   1      52.394  33.591  53.031  0.00  0.00     0.141 C 
BRANCH   6   7
ATOM      7  N   UNL d   1      51.635  33.685  52.710  0.00  0.00    -0.203 NA
ATOM      8  C   UNL d   1      51.273  34.428  52.726  0.00  0.00     0.279 C 
ATOM      9  O   UNL d   1      51.660  35.072  53.056  0.00  0.00    -0.265 OA
BRANCH   8  10
ATOM     10  C   UNL d   1      50.518  34.515  52.405  0.00  0.00     0.058 A 
ATOM     11  C   UNL d   1      50.383  34.372  51.610  0.00  0.00     0.007 A 
ATOM     12  C   UNL d   1      49.629  34.458  51.289  0.00  0.00     0.024 A 
ATOM     13  C   UNL d   1      49.005  34.692  51.780  0.00  0.00     0.094 A 
ATOM     14  C   UNL d   1      49.139  34.835  52.575  0.00  0.00     0.024 A 
ATOM     15  C   UNL d   1      49.894  34.748  52.896  0.00  0.00     0.007 A 
BRANCH  13  16
ATOM     16  O   UNL d   1      48.251  34.778  51.459  0.00  0.00    -0.328 OA
ATOM     17  C   UNL d   1      47.820  35.458  51.609  0.00  0.00     0.181 C 
ENDBRANCH  13  16
ENDBRANCH   8  10
ENDBRANCH   6   7
ENDBRANCH   3   6
BRANCH   1  18
ATOM     18  C   UNL d   1      53.678  32.661  53.893  0.00  0.00     0.067 A 
ATOM     19  C   UNL d   1      54.395  32.911  53.578  0.00  0.00     0.018 A 
ATOM     20  C   UNL d   1      54.975  33.227  54.076  0.00  0.00     0.002 A 
ATOM     21  C   UNL d   1      54.835  33.291  54.886  0.00  0.00     0.000 A 
ATOM     22  C   UNL d   1      54.117  33.039  55.196  0.00  0.00     0.002 A 
ATOM     23  C   UNL d   1      53.543  32.727  54.703  0.00  0.00     0.018 A 
ENDBRANCH   1  18
BRANCH   2  24
ATOM     24  S   UNL d   1      53.475  30.926  53.481  0.00  0.00    -0.042 SA
BRANCH  24  25
ATOM     25  C   UNL d   1      53.213  30.148  53.406  0.00  0.00     0.107 C 
BRANCH  25  26
ATOM     26  C   UNL d   1      53.570  29.556  53.849  0.00  0.00     0.307 C 
ATOM     27  O   UNL d   1      54.339  29.331  53.692  0.00  0.00    -0.258 OA
BRANCH  26  28
ATOM     28  O   UNL d   1      53.146  29.190  54.455  0.00  0.00    -0.271 OA
BRANCH  28  29
ATOM     29  C   UNL d   1      53.506  28.604  54.904  0.00  0.00     0.126 C 
ATOM     30  C   UNL d   1      53.240  28.457  55.670  0.00  0.00     0.029 C 
ENDBRANCH  28  29
ENDBRANCH  26  28
ENDBRANCH  25  26
ENDBRANCH  24  25
ENDBRANCH   2  24
TORSDOF 10
ENDMDL
MODEL 2
REMARK VINA RESULT:      -6.8      1.503      5.478
REMARK  10 active torsions:
REMARK  status: ('A' for Active; 'I' for Inactive)
REMARK    1  A    between atoms: C_10  and  N_1 
REMARK    2  A    between atoms: S_7  and  C_2 
REMARK    3  A    between atoms: C_9  and  C_3 
REMARK       I    between atoms: C_6  and  N_8 
REMARK    4  A    between atoms: C_11  and  C_6 
REMARK    5  A    between atoms: C_15  and  S_7 
REMARK    6  A    between atoms: N_8  and  C_9 
REMARK    7  A    between atoms: C_12  and  C_15 
REMARK    8  A    between atoms: O_21  and  C_12 
REMARK    9  A    between atoms: O_22  and  C_18 
REMARK   10  A    between atoms: C_25  and  O_21 
ROOT
ATOM      1  N   UNL d   1      51.916  33.912  53.137  0.00  0.00    -0.268 N 
ATOM      2  C   UNL d   1      51.123  33.940  52.909  0.00  0.00     0.201 A 
ATOM      3  C   UNL d   1      52.223  33.188  52.863  0.00  0.00     0.190 A 
ATOM      4  N   UNL d   1      50.943  33.242  52.501  0.00  0.00    -0.121 NA
ATOM      5  N   UNL d   1      51.614  32.780  52.471  0.00  0.00    -0.126 NA
ENDROOT
BRANCH   3   6
ATOM      6  C   UNL d   1      52.998  32.920  52.963  0.00  0.00     0.141 C 
BRANCH   6   7
ATOM      7  N   UNL d   1      52.897  32.134  53.211  0.00  0.00    -0.203 NA
ATOM      8  C   UNL d   1      53.559  31.665  53.362  0.00  0.00     0.279 C 
ATOM      9  O   UNL d   1      54.316  31.970  53.269  0.00  0.00    -0.265 OA
BRANCH   8  10
ATOM     10  C   UNL d   1      53.452  30.884  53.609  0.00  0.00     0.058 A 
ATOM     11  C   UNL d   1      53.288  30.295  53.065  0.00  0.00     0.007 A 
ATOM     12  C   UNL d   1      53.180  29.515  53.310  0.00  0.00     0.024 A 
ATOM     13  C   UNL d   1      53.240  29.333  54.114  0.00  0.00     0.094 A 
ATOM     14  C   UNL d   1      53.404  29.922  54.658  0.00  0.00     0.024 A 
ATOM     15  C   UNL d   1      53.512  30.702  54.413  0.00  0.00     0.007 A 
BRANCH  13  16
ATOM     16  O   UNL d   1      53.133  28.552  54.360  0.00  0.00    -0.328 OA
ATOM     17  C   UNL d   1      53.396  28.319  55.100  0.00  0.00     0.181 C 
ENDBRANCH  13  16
ENDBRANCH   8  10
ENDBRANCH   6   7
ENDBRANCH   3   6
BRANCH   1  18
ATOM     18  C   UNL d   1      52.320  34.486  53.550  0.00  0.00     0.067 A 
ATOM     19  C   UNL d   1      52.761  35.048  53.145  0.00  0.00     0.018 A 
ATOM     20  C   UNL d   1      53.171  35.630  53.565  0.00  0.00     0.002 A 
ATOM     21  C   UNL d   1      53.138  35.648  54.388  0.00  0.00     0.000 A 
ATOM     22  C   UNL d   1      52.695  35.083  54.789  0.00  0.00     0.002 A 
ATOM     23  C   UNL d   1      52.289  34.507  54.373  0.00  0.00     0.018 A 
ENDBRANCH   1  18
BRANCH   2  24
ATOM     24  S   UNL d   1      50.594  34.559  53.062  0.00  0.00    -0.042 SA
BRANCH  24  25
ATOM     25  C   UNL d   1      49.807  34.505  52.822  0.00  0.00     0.107 C 
BRANCH  25  26
ATOM     26  C   UNL d   1      49.310  35.152  52.913  0.00  0.00     0.307 C 
ATOM     27  O   UNL d   1      49.318  35.583  53.606  0.00  0.00    -0.258 OA
BRANCH  26  28
ATOM     28  O   UNL d   1      48.803  35.365  52.298  0.00  0.00    -0.271 OA
BRANCH  28  29
ATOM     29  C   UNL d   1      48.079  35.711  52.471  0.00  0.00     0.126 C 
ATOM     30  C   UNL d   1      47.554  35.885  51.860  0.00  0.00     0.029 C 
ENDBRANCH  28  29
ENDBRANCH  26  28
ENDBRANCH  25  26
ENDBRANCH  24  25
ENDBRANCH   2  24
TORSDOF 10
ENDMDL
MODEL 3
REMARK VINA RESULT:      -6.7      1.511      2.086
REMARK  10 active torsions:
REMARK  status: ('A' for Active; 'I' for Inactive)
REMARK    1  A    between atoms: C_10  and  N_1 
REMARK    2  A    between atoms: S_7  and  C_2 
REMARK    3  A    between atoms: C_9  and  C_3 
REMARK       I    between atoms: C_6  and  N_8 
REMARK    4  A    between atoms: C_11  and  C_6 
REMARK    5  A    between atoms: C_15  and  S_7 
REMARK    6  A    between atoms: N_8  and  C_9 
REMARK    7  A    between atoms: C_12  and  C_15 
REMARK    8  A    between atoms: O_21  and  C_12 
REMARK    9  A    between atoms: O_22  and  C_18 
REMARK   10  A    between atoms: C_25  and  O_21 
ROOT
ATOM      1  N   UNL d   1      51.669  33.735  53.319  0.00  0.00    -0.268 N 
ATOM      2  C   UNL d   1      51.762  32.942  53.111  0.00  0.00     0.201 A 
ATOM      3  C   UNL d   1      50.868  33.926  53.199  0.00  0.00     0.190 A 
ATOM      4  N   UNL d   1      51.027  32.648  52.865  0.00  0.00    -0.121 NA
ATOM      5  N   UNL d   1      50.478  33.248  52.917  0.00  0.00    -0.126 NA
ENDROOT
BRANCH   3   6
ATOM      6  C   UNL d   1      50.518  34.663  53.335  0.00  0.00     0.141 C 
BRANCH   6   7
ATOM      7  N   UNL d   1      49.862  34.658  52.827  0.00  0.00    -0.203 NA
ATOM      8  C   UNL d   1      49.299  35.260  52.881  0.00  0.00     0.279 C 
ATOM      9  O   UNL d   1      49.384  35.861  53.433  0.00  0.00    -0.265 OA
BRANCH   8  10
ATOM     10  C   UNL d   1      48.648  35.250  52.373  0.00  0.00     0.058 A 
ATOM     11  C   UNL d   1      48.715  34.942  51.617  0.00  0.00     0.007 A 
ATOM     12  C   UNL d   1      48.065  34.931  51.109  0.00  0.00     0.024 A 
ATOM     13  C   UNL d   1      47.342  35.236  51.372  0.00  0.00     0.094 A 
ATOM     14  C   UNL d   1      47.276  35.544  52.128  0.00  0.00     0.024 A 
ATOM     15  C   UNL d   1      47.925  35.554  52.636  0.00  0.00     0.007 A 
BRANCH  13  16
ATOM     16  O   UNL d   1      46.693  35.225  50.863  0.00  0.00    -0.328 OA
ATOM     17  C   UNL d   1      45.976  35.533  51.113  0.00  0.00     0.181 C 
ENDBRANCH  13  16
ENDBRANCH   8  10
ENDBRANCH   6   7
ENDBRANCH   3   6
BRANCH   1  18
ATOM     18  C   UNL d   1      52.252  34.234  53.591  0.00  0.00     0.067 A 
ATOM     19  C   UNL d   1      52.406  34.282  54.397  0.00  0.00     0.018 A 
ATOM     20  C   UNL d   1      52.999  34.789  54.673  0.00  0.00     0.002 A 
ATOM     21  C   UNL d   1      53.434  35.245  54.142  0.00  0.00     0.000 A 
ATOM     22  C   UNL d   1      53.276  35.193  53.337  0.00  0.00     0.002 A 
ATOM     23  C   UNL d   1      52.690  34.692  53.064  0.00  0.00     0.018 A 
ENDBRANCH   1  18
BRANCH   2  24
ATOM     24  S   UNL d   1      52.468  32.510  53.141  0.00  0.00    -0.042 SA
BRANCH  24  25
ATOM     25  C   UNL d   1      52.481  31.714  52.927  0.00  0.00     0.107 C 
BRANCH  25  26
ATOM     26  C   UNL d   1      53.080  31.228  53.208  0.00  0.00     0.307 C 
ATOM     27  O   UNL d   1      53.862  31.423  53.079  0.00  0.00    -0.258 OA
BRANCH  26  28
ATOM     28  O   UNL d   1      52.886  30.542  53.622  0.00  0.00    -0.271 OA
BRANCH  28  29
ATOM     29  C   UNL d   1      53.431  29.929  53.670  0.00  0.00     0.126 C 
ATOM     30  C   UNL d   1      53.288  29.295  54.176  0.00  0.00     0.029 C 
ENDBRANCH  28  29
ENDBRANCH  26  28
ENDBRANCH  25  26
ENDBRANCH  24  25
ENDBRANCH   2  24
TORSDOF 10
ENDMDL
