MODEL 1
REMARK VINA RESULT:      50.6      0.000      0.000
REMARK  9 active torsions:
REMARK  status: ('A' for Active; 'I' for Inactive)
REMARK       I    between atoms: N_2  and  C_1 
REMARK    1  A    between atoms: C_16  and  C_1 
REMARK    2  A    between atoms: C_8  and  N_2 
REMARK    3  A    between atoms: N_4  and  C_3 
REMARK    4  A    between atoms: C_17  and  N_4 
REMARK    5  A    between atoms: C_18  and  N_4 
REMARK    6  A    between atoms: C_12  and  O_14 
REMARK    7  A    between atoms: O_14  and  C_21 
REMARK    8  A    between atoms: C_23  and  C_16 
REMARK    9  A    between atoms: C_21  and  C_23 
ROOT
ATOM      1  C   UNL d   1     -48.625  28.220  35.312  0.00  0.00     0.328 C 
ATOM      2  N   UNL d   1     -48.383  29.010  35.186  0.00  0.00    -0.365 NA
ATOM      3  O   UNL d   1     -48.892  27.991  36.051  0.00  0.00    -0.251 OA
ENDROOT
BRANCH   1   4
ATOM      4  C   UNL d   1     -48.594  27.680  34.698  0.00  0.00     0.078 C 
BRANCH   4   5
ATOM      5  C   UNL d   1     -49.225  27.604  34.182  0.00  0.00     0.033 C 
BRANCH   5   6
ATOM      6  C   UNL d   1     -49.696  26.918  34.183  0.00  0.00     0.123 C 
BRANCH   6   7
ATOM      7  O   UNL d   1     -49.834  26.510  33.479  0.00  0.00    -0.305 OA
BRANCH   7   8
ATOM      8  C   UNL d   1     -50.495  26.024  33.422  0.00  0.00     0.100 A 
ATOM      9  C   UNL d   1     -50.392  25.183  33.400  0.00  0.00     0.025 A 
ATOM     10  C   UNL d   1     -51.068  24.696  33.342  0.00  0.00     0.002 A 
ATOM     11  C   UNL d   1     -50.954  23.883  33.321  0.00  0.00     0.000 C 
ATOM     12  C   UNL d   1     -51.821  25.015  33.306  0.00  0.00     0.000 A 
ATOM     13  C   UNL d   1     -51.924  25.833  33.327  0.00  0.00     0.002 A 
ATOM     14  C   UNL d   1     -51.260  26.348  33.385  0.00  0.00     0.025 A 
ENDBRANCH   7   8
ENDBRANCH   6   7
ENDBRANCH   5   6
ENDBRANCH   4   5
ENDBRANCH   1   4
BRANCH   2  15
ATOM     15  C   UNL d   1     -48.144  29.785  35.055  0.00  0.00     0.135 A 
ATOM     16  C   UNL d   1     -48.583  30.291  34.569  0.00  0.00     0.034 A 
ATOM     17  C   UNL d   1     -48.341  31.055  34.445  0.00  0.00     0.020 A 
ATOM     18  C   UNL d   1     -47.657  31.342  34.796  0.00  0.00     0.064 A 
ATOM     19  C   UNL d   1     -47.205  30.841  35.289  0.00  0.00     0.020 A 
ATOM     20  C   UNL d   1     -47.446  30.062  35.420  0.00  0.00     0.034 A 
BRANCH  18  21
ATOM     21  N   UNL d   1     -47.406  32.120  34.672  0.00  0.00    -0.304 N 
BRANCH  21  22
ATOM     22  C   UNL d   1     -47.766  32.575  34.071  0.00  0.00     0.080 C 
ATOM     23  C   UNL d   1     -47.574  33.372  33.985  0.00  0.00     0.021 C 
ENDBRANCH  21  22
BRANCH  21  24
ATOM     24  C   UNL d   1     -46.810  32.452  35.128  0.00  0.00     0.080 C 
ATOM     25  C   UNL d   1     -46.827  33.253  35.303  0.00  0.00     0.021 C 
ENDBRANCH  21  24
ENDBRANCH  18  21
ENDBRANCH   2  15
TORSDOF 9
ENDMDL
MODEL 2
REMARK VINA RESULT:      51.6      0.861      1.463
REMARK  9 active torsions:
REMARK  status: ('A' for Active; 'I' for Inactive)
REMARK       I    between atoms: N_2  and  C_1 
REMARK    1  A    between atoms: C_16  and  C_1 
REMARK    2  A    between atoms: C_8  and  N_2 
REMARK    3  A    between atoms: N_4  and  C_3 
REMARK    4  A    between atoms: C_17  and  N_4 
REMARK    5  A    between atoms: C_18  and  N_4 
REMARK    6  A    between atoms: C_12  and  O_14 
REMARK    7  A    between atoms: O_14  and  C_21 
REMARK    8  A    between atoms: C_23  and  C_16 
REMARK    9  A    between atoms: C_21  and  C_23 
ROOT
ATOM      1  C   UNL d   1     -48.095  29.051  35.711  0.00  0.00     0.328 C 
ATOM      2  N   UNL d   1     -48.021  29.807  35.364  0.00  0.00    -0.365 NA
ATOM      3  O   UNL d   1     -47.505  28.774  36.207  0.00  0.00    -0.251 OA
ENDROOT
BRANCH   1   4
ATOM      4  C   UNL d   1     -48.753  28.591  35.556  0.00  0.00     0.078 C 
BRANCH   4   5
ATOM      5  C   UNL d   1     -48.680  27.892  35.135  0.00  0.00     0.033 C 
BRANCH   5   6
ATOM      6  C   UNL d   1     -49.332  27.565  34.735  0.00  0.00     0.123 C 
BRANCH   6   7
ATOM      7  O   UNL d   1     -49.213  27.074  34.082  0.00  0.00    -0.305 OA
BRANCH   7   8
ATOM      8  C   UNL d   1     -49.830  26.594  33.826  0.00  0.00     0.100 A 
ATOM      9  C   UNL d   1     -50.601  26.931  33.722  0.00  0.00     0.025 A 
ATOM     10  C   UNL d   1     -51.224  26.439  33.461  0.00  0.00     0.002 A 
ATOM     11  C   UNL d   1     -51.966  26.777  33.365  0.00  0.00     0.000 C 
ATOM     12  C   UNL d   1     -51.102  25.644  33.306  0.00  0.00     0.000 A 
ATOM     13  C   UNL d   1     -50.353  25.314  33.406  0.00  0.00     0.002 A 
ATOM     14  C   UNL d   1     -49.706  25.788  33.668  0.00  0.00     0.025 A 
ENDBRANCH   7   8
ENDBRANCH   6   7
ENDBRANCH   5   6
ENDBRANCH   4   5
ENDBRANCH   1   4
BRANCH   2  15
ATOM     15  C   UNL d   1     -47.956  30.549  35.018  0.00  0.00     0.135 A 
ATOM     16  C   UNL d   1     -47.577  31.171  35.411  0.00  0.00     0.034 A 
ATOM     17  C   UNL d   1     -47.516  31.901  35.063  0.00  0.00     0.020 A 
ATOM     18  C   UNL d   1     -47.828  32.039  34.317  0.00  0.00     0.064 A 
ATOM     19  C   UNL d   1     -48.213  31.419  33.911  0.00  0.00     0.020 A 
ATOM     20  C   UNL d   1     -48.278  30.674  34.259  0.00  0.00     0.034 A 
BRANCH  18  21
ATOM     21  N   UNL d   1     -47.769  32.783  33.958  0.00  0.00    -0.304 N 
BRANCH  21  22
ATOM     22  C   UNL d   1     -48.395  33.328  34.043  0.00  0.00     0.080 C 
ATOM     23  C   UNL d   1     -48.723  33.687  33.376  0.00  0.00     0.021 C 
ENDBRANCH  21  22
BRANCH  21  24
ATOM     24  C   UNL d   1     -47.105  32.992  33.523  0.00  0.00     0.080 C 
ATOM     25  C   UNL d   1     -46.373  32.679  33.718  0.00  0.00     0.021 C 
ENDBRANCH  21  24
ENDBRANCH  18  21
ENDBRANCH   2  15
TORSDOF 9
ENDMDL
