MODEL 1
REMARK VINA RESULT:     118.9      0.000      0.000
REMARK  4 active torsions:
REMARK  status: ('A' for Active; 'I' for Inactive)
REMARK    1  A    between atoms: C_2  and  C_1 
REMARK    2  A    between atoms: C_16  and  C_4 
REMARK    3  A    between atoms: C_28  and  C_15 
REMARK    4  A    between atoms: N_17  and  C_16 
ROOT
ATOM      1  C   UNL d   1     -55.255-100.327 -42.200  0.00  0.00     0.098 A 
ATOM      2  C   UNL d   1     -55.620 -99.863 -44.612  0.00  0.00     0.079 A 
ATOM      3  C   UNL d   1     -55.181-100.742 -43.576  0.00  0.00     0.062 A 
ATOM      4  C   UNL d   1     -55.057-100.902 -42.776  0.00  0.00     0.202 A 
ATOM      5  C   UNL d   1     -55.502-100.013 -43.822  0.00  0.00     0.108 A 
ATOM      6  C   UNL d   1     -55.576 -99.598 -42.447  0.00  0.00     0.129 A 
ATOM      7  O   UNL d   1     -55.701 -99.437 -43.257  0.00  0.00    -0.305 OA
ATOM      8  C   UNL d   1     -55.425-100.430 -45.175  0.00  0.00     0.199 A 
ATOM      9  C   UNL d   1     -54.984-101.312 -44.137  0.00  0.00     0.008 A 
ATOM     10  C   UNL d   1     -55.108-101.150 -44.932  0.00  0.00     0.039 A 
ATOM     11  O   UNL d   1     -54.742-101.620 -42.539  0.00  0.00    -0.286 OA
ATOM     12  O   UNL d   1     -55.542-100.284 -45.973  0.00  0.00    -0.286 OA
ENDROOT
BRANCH   1  13
ATOM     13  C   UNL d   1     -55.134-100.482 -41.399  0.00  0.00     0.153 A 
ATOM     14  N   UNL d   1     -55.086-101.233 -41.051  0.00  0.00    -0.227 NA
ATOM     15  C   UNL d   1     -54.961-101.125 -40.238  0.00  0.00     0.099 A 
ATOM     16  C   UNL d   1     -54.872-101.666 -39.631  0.00  0.00     0.021 A 
ATOM     17  C   UNL d   1     -54.932-100.325 -40.088  0.00  0.00     0.083 A 
ATOM     18  C   UNL d   1     -54.751-101.399 -38.859  0.00  0.00     0.002 A 
ATOM     19  C   UNL d   1     -54.722-100.595 -38.706  0.00  0.00     0.002 A 
ATOM     20  C   UNL d   1     -54.813-100.048 -39.329  0.00  0.00     0.019 A 
ATOM     21  N   UNL d   1     -55.039 -99.916 -40.811  0.00  0.00    -0.288 N 
ATOM     22  C   UNL d   1     -55.050 -99.098 -40.922  0.00  0.00     0.101 C 
ENDBRANCH   1  13
BRANCH  10  23
ATOM     23  C   UNL d   1     -54.910-101.725 -45.502  0.00  0.00     0.003 C 
ATOM     24  C   UNL d   1     -55.347-102.425 -45.562  0.00  0.00     0.000 C 
ENDBRANCH  10  23
BRANCH   2  25
ATOM     25  C   UNL d   1     -55.937 -99.144 -44.855  0.00  0.00     0.086 C 
BRANCH  25  26
ATOM     26  N   UNL d   1     -56.747 -99.049 -44.909  0.00  0.00    -0.300 N 
ATOM     27  C   UNL d   1     -57.218 -99.079 -44.222  0.00  0.00     0.100 A 
ATOM     28  C   UNL d   1     -58.047 -98.980 -44.290  0.00  0.00     0.100 A 
ATOM     29  N   UNL d   1     -58.394 -98.856 -45.025  0.00  0.00    -0.299 N 
ATOM     30  C   UNL d   1     -57.916 -98.829 -45.707  0.00  0.00     0.100 A 
ATOM     31  C   UNL d   1     -59.215 -98.760 -45.088  0.00  0.00     0.100 C 
ATOM     32  C   UNL d   1     -57.098 -98.924 -45.647  0.00  0.00     0.100 A 
ENDBRANCH  25  26
ENDBRANCH   2  25
TORSDOF 4
ENDMDL
