MODEL 1
REMARK VINA RESULT:      11.6      0.000      0.000
REMARK  4 active torsions:
REMARK  status: ('A' for Active; 'I' for Inactive)
REMARK    1  A    between atoms: C_2  and  N_1 
REMARK    2  A    between atoms: C_4  and  C_2 
REMARK    3  A    between atoms: C_10  and  C_4 
REMARK    4  A    between atoms: N_7  and  C_6 
ROOT
ATOM      1  C   UNL d   1      57.347  49.619  50.120  0.00  0.00     0.064 A 
ATOM      2  C   UNL d   1      57.660  49.612  50.884  0.00  0.00     0.018 A 
ATOM      3  C   UNL d   1      57.849  49.653  49.465  0.00  0.00     0.018 A 
ATOM      4  C   UNL d   1      58.979  49.674  50.332  0.00  0.00     0.002 A 
ATOM      5  C   UNL d   1      58.664  49.681  49.570  0.00  0.00     0.002 A 
ATOM      6  C   UNL d   1      58.476  49.640  50.989  0.00  0.00     0.002 A 
ENDROOT
BRANCH   4   7
ATOM      7  C   UNL d   1      59.799  49.702  50.437  0.00  0.00     0.025 C 
BRANCH   7   8
ATOM      8  C   UNL d   1      60.117  49.576  51.182  0.00  0.00     0.148 C 
BRANCH   8   9
ATOM      9  N   UNL d   1      60.902  49.329  51.250  0.00  0.00    -0.112 N 
ATOM     10  O   UNL d   1      61.310  49.481  51.939  0.00  0.00    -0.532 OA
ATOM     11  O   UNL d   1      61.247  48.939  50.622  0.00  0.00    -0.532 OA
ENDBRANCH   8   9
ENDBRANCH   7   8
ENDBRANCH   4   7
BRANCH   1  12
ATOM     12  N   UNL d   1      56.523  49.591  50.023  0.00  0.00    -0.301 N 
ATOM     13  C   UNL d   1      56.033  49.510  50.687  0.00  0.00     0.100 C 
ATOM     14  C   UNL d   1      56.183  49.643  49.269  0.00  0.00     0.100 C 
ENDBRANCH   1  12
TORSDOF 4
ENDMDL
MODEL 2
REMARK VINA RESULT:      14.0      2.097      3.803
REMARK  4 active torsions:
REMARK  status: ('A' for Active; 'I' for Inactive)
REMARK    1  A    between atoms: C_2  and  N_1 
REMARK    2  A    between atoms: C_4  and  C_2 
REMARK    3  A    between atoms: C_10  and  C_4 
REMARK    4  A    between atoms: N_7  and  C_6 
ROOT
ATOM      1  C   UNL d   1      60.163  49.579  51.092  0.00  0.00     0.064 A 
ATOM      2  C   UNL d   1      59.880  49.629  50.318  0.00  0.00     0.018 A 
ATOM      3  C   UNL d   1      59.636  49.569  51.728  0.00  0.00     0.018 A 
ATOM      4  C   UNL d   1      58.541  49.659  50.823  0.00  0.00     0.002 A 
ATOM      5  C   UNL d   1      58.826  49.609  51.594  0.00  0.00     0.002 A 
ATOM      6  C   UNL d   1      59.068  49.669  50.184  0.00  0.00     0.002 A 
ENDROOT
BRANCH   4   7
ATOM      7  C   UNL d   1      57.726  49.700  50.688  0.00  0.00     0.025 C 
BRANCH   7   8
ATOM      8  C   UNL d   1      57.435  49.617  49.926  0.00  0.00     0.148 C 
BRANCH   8   9
ATOM      9  N   UNL d   1      56.620  49.575  49.807  0.00  0.00    -0.112 N 
ATOM     10  O   UNL d   1      56.122  49.554  50.451  0.00  0.00    -0.532 OA
ATOM     11  O   UNL d   1      56.336  49.555  49.041  0.00  0.00    -0.532 OA
ENDBRANCH   8   9
ENDBRANCH   7   8
ENDBRANCH   4   7
BRANCH   1  12
ATOM     12  N   UNL d   1      60.983  49.539  51.218  0.00  0.00    -0.301 N 
ATOM     13  C   UNL d   1      61.494  49.435  50.573  0.00  0.00     0.100 C 
ATOM     14  C   UNL d   1      61.297  49.601  51.982  0.00  0.00     0.100 C 
ENDBRANCH   1  12
TORSDOF 4
ENDMDL
