MODEL 1
REMARK VINA RESULT:      -1.1      0.000      0.000
REMARK  4 active torsions:
REMARK  status: ('A' for Active; 'I' for Inactive)
REMARK    1  A    between atoms: N_10  and  C_3 
REMARK    2  A    between atoms: C_11  and  C_5 
REMARK    3  A    between atoms: C_13  and  N_10 
REMARK    4  A    between atoms: C_15  and  C_13 
ROOT
ATOM      1  N   UNL d   1      59.724  -9.331  32.767  0.00  0.00    -0.195 N 
ATOM      2  C   UNL d   1      59.372  -9.098  33.493  0.00  0.00     0.167 A 
ATOM      3  C   UNL d   1      59.244  -9.582  32.142  0.00  0.00     0.167 A 
ATOM      4  N   UNL d   1      61.009  -9.061  33.304  0.00  0.00    -0.163 NA
ATOM      5  C   UNL d   1      59.839  -8.854  34.103  0.00  0.00     0.055 A 
ATOM      6  N   UNL d   1      58.553  -9.125  33.566  0.00  0.00    -0.227 NA
ATOM      7  C   UNL d   1      58.437  -9.602  32.230  0.00  0.00     0.054 A 
ATOM      8  C   UNL d   1      60.663  -8.832  34.018  0.00  0.00     0.104 A 
ATOM      9  C   UNL d   1      58.077  -9.371  32.952  0.00  0.00     0.086 A 
ATOM     10  C   UNL d   1      57.836  -9.816  31.729  0.00  0.00     0.005 A 
ATOM     11  C   UNL d   1      61.129  -8.583  34.642  0.00  0.00     0.023 C 
ATOM     12  C   UNL d   1      57.265  -9.449  32.877  0.00  0.00     0.019 A 
ATOM     13  C   UNL d   1      57.118  -9.728  32.109  0.00  0.00     0.002 A 
ENDROOT
BRANCH   3  14
ATOM     14  N   UNL d   1      59.595  -9.817  31.408  0.00  0.00    -0.224 NA
BRANCH  14  15
ATOM     15  C   UNL d   1      60.328  -9.789  30.986  0.00  0.00     0.120 C 
BRANCH  15  16
ATOM     16  C   UNL d   1      60.331  -9.632  30.166  0.00  0.00     0.101 A 
ATOM     17  N   UNL d   1      61.031  -9.323  29.800  0.00  0.00    -0.242 NA
ATOM     18  C   UNL d   1      61.038  -9.163  28.973  0.00  0.00     0.099 A 
ATOM     19  C   UNL d   1      60.346  -9.312  28.511  0.00  0.00     0.021 A 
ATOM     20  C   UNL d   1      59.648  -9.620  28.877  0.00  0.00     0.003 A 
ATOM     21  C   UNL d   1      59.647  -9.779  29.709  0.00  0.00     0.021 A 
ENDBRANCH  15  16
ENDBRANCH  14  15
ENDBRANCH   3  14
BRANCH   5  22
ATOM     22  C   UNL d   1      59.495  -8.626  34.813  0.00  0.00     0.004 A 
ATOM     23  C   UNL d   1      59.219  -7.864  34.912  0.00  0.00     0.000 A 
ATOM     24  C   UNL d   1      58.870  -7.634  35.631  0.00  0.00     0.000 A 
ATOM     25  C   UNL d   1      58.806  -8.171  36.234  0.00  0.00     0.000 A 
ATOM     26  C   UNL d   1      59.084  -8.941  36.139  0.00  0.00     0.000 A 
ATOM     27  C   UNL d   1      59.426  -9.164  35.430  0.00  0.00     0.000 A 
ENDBRANCH   5  22
TORSDOF 4
ENDMDL
MODEL 2
REMARK VINA RESULT:       0.9      1.279      5.049
REMARK  4 active torsions:
REMARK  status: ('A' for Active; 'I' for Inactive)
REMARK    1  A    between atoms: N_10  and  C_3 
REMARK    2  A    between atoms: C_11  and  C_5 
REMARK    3  A    between atoms: C_13  and  N_10 
REMARK    4  A    between atoms: C_15  and  C_13 
ROOT
ATOM      1  N   UNL d   1      58.445  -9.788  32.230  0.00  0.00    -0.195 N 
ATOM      2  C   UNL d   1      58.452  -9.790  31.391  0.00  0.00     0.167 A 
ATOM      3  C   UNL d   1      59.160  -9.779  32.645  0.00  0.00     0.167 A 
ATOM      4  N   UNL d   1      57.026  -9.804  32.217  0.00  0.00    -0.163 NA
ATOM      5  C   UNL d   1      57.755  -9.799  30.984  0.00  0.00     0.055 A 
ATOM      6  N   UNL d   1      59.175  -9.783  30.997  0.00  0.00    -0.227 NA
ATOM      7  C   UNL d   1      59.865  -9.772  32.242  0.00  0.00     0.054 A 
ATOM      8  C   UNL d   1      57.034  -9.806  31.391  0.00  0.00     0.104 A 
ATOM      9  C   UNL d   1      59.881  -9.774  31.403  0.00  0.00     0.086 A 
ATOM     10  C   UNL d   1      60.638  -9.763  32.490  0.00  0.00     0.005 A 
ATOM     11  C   UNL d   1      56.331  -9.815  30.972  0.00  0.00     0.023 C 
ATOM     12  C   UNL d   1      60.663  -9.766  31.156  0.00  0.00     0.019 A 
ATOM     13  C   UNL d   1      61.133  -9.759  31.840  0.00  0.00     0.002 A 
ENDROOT
BRANCH   3  14
ATOM     14  N   UNL d   1      59.157  -9.776  33.492  0.00  0.00    -0.224 NA
BRANCH  14  15
ATOM     15  C   UNL d   1      58.658  -9.597  34.151  0.00  0.00     0.120 C 
BRANCH  15  16
ATOM     16  C   UNL d   1      58.991  -9.303  34.858  0.00  0.00     0.101 A 
ATOM     17  N   UNL d   1      58.882  -8.489  35.067  0.00  0.00    -0.242 NA
ATOM     18  C   UNL d   1      59.216  -8.188  35.780  0.00  0.00     0.099 A 
ATOM     19  C   UNL d   1      59.659  -8.702  36.284  0.00  0.00     0.021 A 
ATOM     20  C   UNL d   1      59.768  -9.515  36.074  0.00  0.00     0.003 A 
ATOM     21  C   UNL d   1      59.429  -9.810  35.357  0.00  0.00     0.021 A 
ENDBRANCH  15  16
ENDBRANCH  14  15
ENDBRANCH   3  14
BRANCH   5  22
ATOM     22  C   UNL d   1      57.762  -9.801  30.163  0.00  0.00     0.004 A 
ATOM     23  C   UNL d   1      57.061  -9.804  29.744  0.00  0.00     0.000 A 
ATOM     24  C   UNL d   1      57.068  -9.806  28.913  0.00  0.00     0.000 A 
ATOM     25  C   UNL d   1      57.777  -9.806  28.520  0.00  0.00     0.000 A 
ATOM     26  C   UNL d   1      58.487  -9.803  28.939  0.00  0.00     0.000 A 
ATOM     27  C   UNL d   1      58.476  -9.801  29.757  0.00  0.00     0.000 A 
ENDBRANCH   5  22
TORSDOF 4
ENDMDL
