MODEL 1
REMARK VINA RESULT:      21.7      0.000      0.000
REMARK  2 active torsions:
REMARK  status: ('A' for Active; 'I' for Inactive)
REMARK    1  A    between atoms: C_7  and  C_2 
REMARK    2  A    between atoms: C_6  and  N_3 
ROOT
ATOM      1  C   UNL d   1      58.857  49.673  50.346  0.00  0.00     0.085 A 
ATOM      2  C   UNL d   1      58.135  49.690  50.719  0.00  0.00     0.019 A 
ATOM      3  C   UNL d   1      57.438  49.690  50.278  0.00  0.00     0.002 A 
ATOM      4  C   UNL d   1      58.884  49.656  49.498  0.00  0.00     0.019 A 
ATOM      5  C   UNL d   1      57.464  49.673  49.453  0.00  0.00     0.000 A 
ATOM      6  C   UNL d   1      58.188  49.656  49.051  0.00  0.00     0.002 A 
ATOM      7  C   UNL d   1      56.731  49.707  50.673  0.00  0.00     0.000 A 
ATOM      8  C   UNL d   1      56.784  49.673  49.005  0.00  0.00     0.000 A 
ATOM      9  C   UNL d   1      56.034  49.707  50.255  0.00  0.00     0.000 A 
ATOM     10  C   UNL d   1      56.061  49.690  49.407  0.00  0.00     0.000 A 
ENDROOT
BRANCH   1  11
ATOM     11  N   UNL d   1      59.566  49.673  50.765  0.00  0.00    -0.210 N 
ATOM     12  C   UNL d   1      59.710  49.667  51.569  0.00  0.00     0.191 A 
ATOM     13  C   UNL d   1      60.503  49.669  51.675  0.00  0.00     0.118 A 
ATOM     14  N   UNL d   1      59.135  49.661  52.153  0.00  0.00    -0.127 N 
ATOM     15  C   UNL d   1      60.873  49.676  50.937  0.00  0.00     0.129 A 
ATOM     16  N   UNL d   1      60.297  49.678  50.388  0.00  0.00    -0.162 NA
BRANCH  13  17
ATOM     17  C   UNL d   1      60.882  49.665  52.411  0.00  0.00     0.301 C 
ATOM     18  O   UNL d   1      60.423  49.687  53.064  0.00  0.00    -0.263 OA
ATOM     19  N   UNL d   1      61.678  49.639  52.458  0.00  0.00    -0.102 N 
ENDBRANCH  13  17
ENDBRANCH   1  11
TORSDOF 2
ENDMDL
