MODEL 1
REMARK VINA RESULT:      -2.9      0.000      0.000
REMARK  6 active torsions:
REMARK  status: ('A' for Active; 'I' for Inactive)
REMARK    1  A    between atoms: C_6  and  C_1 
REMARK    2  A    between atoms: C_10  and  N_3 
REMARK    3  A    between atoms: O_7  and  C_6 
REMARK    4  A    between atoms: C_8  and  O_7 
REMARK    5  A    between atoms: O_11  and  C_9 
REMARK    6  A    between atoms: C_17  and  C_10 
ROOT
ATOM      1  C   UNL d   1     -41.672-122.935 -51.580  0.00  0.00     0.173 A 
ATOM      2  N   UNL d   1     -42.164-123.540 -51.279  0.00  0.00    -0.225 NA
ATOM      3  N   UNL d   1     -41.585-122.391 -50.963  0.00  0.00    -0.287 N 
ATOM      4  C   UNL d   1     -42.000-122.641 -50.308  0.00  0.00     0.083 A 
ATOM      5  C   UNL d   1     -42.366-123.368 -50.508  0.00  0.00     0.099 A 
ATOM      6  C   UNL d   1     -42.110-122.320 -49.544  0.00  0.00     0.019 A 
ATOM      7  C   UNL d   1     -42.824-123.740 -49.934  0.00  0.00     0.021 A 
ATOM      8  C   UNL d   1     -42.565-122.713 -49.009  0.00  0.00     0.002 A 
ATOM      9  C   UNL d   1     -42.931-123.440 -49.208  0.00  0.00     0.002 A 
ENDROOT
BRANCH   1  10
ATOM     10  C   UNL d   1     -41.459-123.089 -52.346  0.00  0.00     0.160 C 
BRANCH  10  11
ATOM     11  O   UNL d   1     -41.899-122.764 -52.985  0.00  0.00    -0.300 OA
BRANCH  11  12
ATOM     12  C   UNL d   1     -41.702-122.940 -53.781  0.00  0.00     0.122 A 
ATOM     13  C   UNL d   1     -41.905-122.409 -54.380  0.00  0.00     0.117 A 
ATOM     14  C   UNL d   1     -41.718-122.565 -55.177  0.00  0.00     0.026 A 
ATOM     15  C   UNL d   1     -41.326-123.267 -55.344  0.00  0.00     0.002 A 
ATOM     16  C   UNL d   1     -41.123-123.801 -54.744  0.00  0.00     0.002 A 
ATOM     17  C   UNL d   1     -41.308-123.645 -53.952  0.00  0.00     0.027 A 
BRANCH  13  18
ATOM     18  O   UNL d   1     -42.304-121.701 -54.185  0.00  0.00    -0.326 OA
ATOM     19  C   UNL d   1     -42.462-121.115 -54.776  0.00  0.00     0.181 C 
ENDBRANCH  13  18
ENDBRANCH  11  12
ENDBRANCH  10  11
ENDBRANCH   1  10
BRANCH   3  20
ATOM     20  C   UNL d   1     -41.125-121.766 -51.155  0.00  0.00     0.082 C 
BRANCH  20  21
ATOM     21  C   UNL d   1     -41.254-121.010 -50.849  0.00  0.00     0.019 C 
ATOM     22  C   UNL d   1     -41.129-120.320 -51.279  0.00  0.00     0.002 C 
ENDBRANCH  20  21
ENDBRANCH   3  20
TORSDOF 6
ENDMDL
MODEL 2
REMARK VINA RESULT:      -1.0      1.302      1.879
REMARK  6 active torsions:
REMARK  status: ('A' for Active; 'I' for Inactive)
REMARK    1  A    between atoms: C_6  and  C_1 
REMARK    2  A    between atoms: C_10  and  N_3 
REMARK    3  A    between atoms: O_7  and  C_6 
REMARK    4  A    between atoms: C_8  and  O_7 
REMARK    5  A    between atoms: O_11  and  C_9 
REMARK    6  A    between atoms: C_17  and  C_10 
ROOT
ATOM      1  C   UNL d   1     -41.870-123.299 -50.288  0.00  0.00     0.173 A 
ATOM      2  N   UNL d   1     -41.336-123.719 -49.802  0.00  0.00    -0.225 NA
ATOM      3  N   UNL d   1     -42.367-122.887 -49.770  0.00  0.00    -0.287 N 
ATOM      4  C   UNL d   1     -42.156-123.041 -48.998  0.00  0.00     0.083 A 
ATOM      5  C   UNL d   1     -41.505-123.567 -49.018  0.00  0.00     0.099 A 
ATOM      6  C   UNL d   1     -42.457-122.783 -48.262  0.00  0.00     0.019 A 
ATOM      7  C   UNL d   1     -41.184-123.811 -48.301  0.00  0.00     0.021 A 
ATOM      8  C   UNL d   1     -42.116-123.044 -47.580  0.00  0.00     0.002 A 
ATOM      9  C   UNL d   1     -41.464-123.570 -47.600  0.00  0.00     0.002 A 
ENDROOT
BRANCH   1  10
ATOM     10  C   UNL d   1     -41.719-123.437 -51.072  0.00  0.00     0.160 C 
BRANCH  10  11
ATOM     11  O   UNL d   1     -41.519-122.804 -51.586  0.00  0.00    -0.300 OA
BRANCH  11  12
ATOM     12  C   UNL d   1     -41.385-122.934 -52.404  0.00  0.00     0.122 A 
ATOM     13  C   UNL d   1     -41.300-122.290 -52.914  0.00  0.00     0.117 A 
ATOM     14  C   UNL d   1     -41.167-122.398 -53.729  0.00  0.00     0.026 A 
ATOM     15  C   UNL d   1     -41.124-123.170 -54.007  0.00  0.00     0.002 A 
ATOM     16  C   UNL d   1     -41.210-123.817 -53.497  0.00  0.00     0.002 A 
ATOM     17  C   UNL d   1     -41.342-123.708 -52.686  0.00  0.00     0.027 A 
BRANCH  13  18
ATOM     18  O   UNL d   1     -41.347-121.513 -52.607  0.00  0.00    -0.326 OA
ATOM     19  C   UNL d   1     -41.422-120.847 -53.123  0.00  0.00     0.181 C 
ENDBRANCH  13  18
ENDBRANCH  11  12
ENDBRANCH  10  11
ENDBRANCH   1  10
BRANCH   3  20
ATOM     20  C   UNL d   1     -42.920-122.448 -50.145  0.00  0.00     0.082 C 
BRANCH  20  21
ATOM     21  C   UNL d   1     -43.729-122.586 -50.056  0.00  0.00     0.019 C 
ATOM     22  C   UNL d   1     -44.301-122.003 -50.155  0.00  0.00     0.002 C 
ENDBRANCH  20  21
ENDBRANCH   3  20
TORSDOF 6
ENDMDL
