MODEL 1
REMARK VINA RESULT:      -4.8      0.000      0.000
REMARK  4 active torsions:
REMARK  status: ('A' for Active; 'I' for Inactive)
REMARK       I    between atoms: N_2  and  C_1 
REMARK    1  A    between atoms: C_4  and  C_1 
REMARK    2  A    between atoms: C_14  and  N_3 
REMARK    3  A    between atoms: C_5  and  C_6 
REMARK    4  A    between atoms: C_17  and  C_14 
ROOT
ATOM      1  C   UNL d   1      58.197  -0.198  29.276  0.00  0.00     0.265 C 
ATOM      2  N   UNL d   1      57.944  -0.046  30.038  0.00  0.00    -0.269 N 
ATOM      3  N   UNL d   1      57.428   0.267  31.567  0.00  0.00    -0.300 N 
ATOM      4  O   UNL d   1      57.870   0.218  28.647  0.00  0.00    -0.267 OA
ATOM      5  C   UNL d   1      58.263  -0.454  30.671  0.00  0.00     0.102 A 
ATOM      6  C   UNL d   1      57.355   0.530  30.171  0.00  0.00     0.102 A 
ATOM      7  C   UNL d   1      57.102   0.682  30.934  0.00  0.00     0.100 A 
ATOM      8  C   UNL d   1      58.001  -0.294  31.437  0.00  0.00     0.100 A 
ENDROOT
BRANCH   1   9
ATOM      9  C   UNL d   1      58.786  -0.774  29.143  0.00  0.00     0.057 A 
ATOM     10  C   UNL d   1      58.583  -1.562  29.109  0.00  0.00     0.004 A 
ATOM     11  C   UNL d   1      59.171  -2.138  28.976  0.00  0.00    -0.004 A 
ATOM     12  C   UNL d   1      59.947  -1.911  28.880  0.00  0.00    -0.023 A 
ATOM     13  C   UNL d   1      60.157  -1.116  28.913  0.00  0.00    -0.004 A 
ATOM     14  C   UNL d   1      59.569  -0.540  29.046  0.00  0.00     0.004 A 
BRANCH  12  15
ATOM     15  C   UNL d   1      60.527  -2.478  28.748  0.00  0.00     0.019 C 
ATOM     16  C   UNL d   1      59.945  -3.027  28.551  0.00  0.00     0.004 C 
ATOM     17  C   UNL d   1      61.111  -3.049  28.616  0.00  0.00     0.004 C 
ATOM     18  C   UNL d   1      61.116  -1.923  28.948  0.00  0.00     0.004 C 
ENDBRANCH  12  15
ENDBRANCH   1   9
BRANCH   3  19
ATOM     19  C   UNL d   1      57.178   0.414  32.334  0.00  0.00     0.080 C 
BRANCH  19  20
ATOM     20  C   UNL d   1      56.542   0.005  32.651  0.00  0.00     0.018 A 
ATOM     21  C   UNL d   1      56.547  -0.836  32.697  0.00  0.00     0.002 A 
ATOM     22  C   UNL d   1      55.902  -1.231  33.018  0.00  0.00     0.000 A 
ATOM     23  C   UNL d   1      55.241  -0.803  33.298  0.00  0.00     0.000 A 
ATOM     24  C   UNL d   1      55.239   0.027  33.251  0.00  0.00     0.000 A 
ATOM     25  C   UNL d   1      55.888   0.429  32.929  0.00  0.00     0.002 A 
ENDBRANCH  19  20
ENDBRANCH   3  19
TORSDOF 4
ENDMDL
MODEL 2
REMARK VINA RESULT:      -4.1      1.712      5.446
REMARK  4 active torsions:
REMARK  status: ('A' for Active; 'I' for Inactive)
REMARK       I    between atoms: N_2  and  C_1 
REMARK    1  A    between atoms: C_4  and  C_1 
REMARK    2  A    between atoms: C_14  and  N_3 
REMARK    3  A    between atoms: C_5  and  C_6 
REMARK    4  A    between atoms: C_17  and  C_14 
ROOT
ATOM      1  C   UNL d   1      56.695  -1.133  31.928  0.00  0.00     0.265 C 
ATOM      2  N   UNL d   1      57.126  -0.681  31.402  0.00  0.00    -0.269 N 
ATOM      3  N   UNL d   1      57.996   0.222  30.338  0.00  0.00    -0.300 N 
ATOM      4  O   UNL d   1      56.643  -1.946  31.819  0.00  0.00    -0.267 OA
ATOM      5  C   UNL d   1      57.185   0.130  31.501  0.00  0.00     0.102 A 
ATOM      6  C   UNL d   1      57.510  -1.047  30.758  0.00  0.00     0.102 A 
ATOM      7  C   UNL d   1      57.942  -0.593  30.231  0.00  0.00     0.100 A 
ATOM      8  C   UNL d   1      57.622   0.578  30.965  0.00  0.00     0.100 A 
ENDROOT
BRANCH   1   9
ATOM      9  C   UNL d   1      56.312  -0.766  32.572  0.00  0.00     0.057 A 
ATOM     10  C   UNL d   1      56.729  -0.268  33.063  0.00  0.00     0.004 A 
ATOM     11  C   UNL d   1      56.346   0.099  33.707  0.00  0.00    -0.004 A 
ATOM     12  C   UNL d   1      55.555  -0.043  33.842  0.00  0.00    -0.023 A 
ATOM     13  C   UNL d   1      55.130  -0.546  33.349  0.00  0.00    -0.004 A 
ATOM     14  C   UNL d   1      55.513  -0.912  32.705  0.00  0.00     0.004 A 
BRANCH  12  15
ATOM     15  C   UNL d   1      55.177   0.318  34.477  0.00  0.00     0.019 C 
ATOM     16  C   UNL d   1      55.797   0.095  34.973  0.00  0.00     0.004 C 
ATOM     17  C   UNL d   1      54.797   0.682  35.115  0.00  0.00     0.004 C 
ATOM     18  C   UNL d   1      54.551   0.544  33.975  0.00  0.00     0.004 C 
ENDBRANCH  12  15
ENDBRANCH   1   9
BRANCH   3  19
ATOM     19  C   UNL d   1      58.427   0.682  29.813  0.00  0.00     0.080 C 
BRANCH  19  20
ATOM     20  C   UNL d   1      59.227   0.543  29.697  0.00  0.00     0.018 A 
ATOM     21  C   UNL d   1      59.780   0.649  30.323  0.00  0.00     0.002 A 
ATOM     22  C   UNL d   1      60.578   0.506  30.191  0.00  0.00     0.000 A 
ATOM     23  C   UNL d   1      60.844   0.256  29.440  0.00  0.00     0.000 A 
ATOM     24  C   UNL d   1      60.295   0.152  28.824  0.00  0.00     0.000 A 
ATOM     25  C   UNL d   1      59.490   0.296  28.953  0.00  0.00     0.002 A 
ENDBRANCH  19  20
ENDBRANCH   3  19
TORSDOF 4
ENDMDL
