MODEL 1
REMARK VINA RESULT:      -6.4      0.000      0.000
REMARK  7 active torsions:
REMARK  status: ('A' for Active; 'I' for Inactive)
REMARK    1  A    between atoms: C_11  and  C_4 
REMARK    2  A    between atoms: N_12  and  C_5 
REMARK    3  A    between atoms: C_10  and  C_8 
REMARK    4  A    between atoms: C_15  and  N_12 
REMARK    5  A    between atoms: N_13  and  C_19 
REMARK    6  A    between atoms: C_14  and  C_15 
REMARK    7  A    between atoms: C_19  and  C_14 
ROOT
ATOM      1  C   UNL d   1     -48.714  12.545  22.992  0.00  0.00     0.168 A 
ATOM      2  N   UNL d   1     -48.197  11.920  23.199  0.00  0.00    -0.184 N 
ATOM      3  N   UNL d   1     -48.410  13.285  22.826  0.00  0.00    -0.231 NA
ATOM      4  C   UNL d   1     -49.511  12.418  22.955  0.00  0.00     0.057 A 
ATOM      5  C   UNL d   1     -47.405  12.070  23.229  0.00  0.00     0.217 A 
ATOM      6  N   UNL d   1     -49.299  11.067  23.324  0.00  0.00    -0.160 NA
ATOM      7  C   UNL d   1     -47.089  12.808  23.065  0.00  0.00     0.067 A 
ATOM      8  C   UNL d   1     -47.598  13.424  22.861  0.00  0.00     0.064 A 
ATOM      9  C   UNL d   1     -49.808  11.684  23.120  0.00  0.00     0.124 A 
ENDROOT
BRANCH   5  10
ATOM     10  N   UNL d   1     -46.879  11.433  23.440  0.00  0.00    -0.380 NA
BRANCH  10  11
ATOM     11  C   UNL d   1     -46.326  10.848  23.698  0.00  0.00     0.164 C 
BRANCH  11  12
ATOM     12  C   UNL d   1     -45.498  10.978  23.549  0.00  0.00     0.054 C 
BRANCH  12  13
ATOM     13  C   UNL d   1     -44.948  10.327  23.647  0.00  0.00     0.083 C 
BRANCH  13  14
ATOM     14  N   UNL d   1     -44.138  10.424  23.419  0.00  0.00    -0.300 N 
ATOM     15  C   UNL d   1     -43.941   9.647  23.698  0.00  0.00     0.100 C 
ATOM     16  C   UNL d   1     -43.524  10.909  23.075  0.00  0.00     0.100 C 
ENDBRANCH  13  14
ENDBRANCH  12  13
ENDBRANCH  11  12
ENDBRANCH  10  11
ENDBRANCH   5  10
BRANCH   8  17
ATOM     17  C   UNL d   1     -47.285  14.198  22.687  0.00  0.00     0.036 C 
ATOM     18  C   UNL d   1     -46.976  14.962  22.511  0.00  0.00     0.006 C 
ATOM     19  C   UNL d   1     -47.078  14.721  23.325  0.00  0.00     0.006 C 
ATOM     20  C   UNL d   1     -47.182  14.443  21.874  0.00  0.00     0.006 C 
ENDBRANCH   8  17
BRANCH   4  21
ATOM     21  C   UNL d   1     -50.020  13.034  22.751  0.00  0.00     0.004 A 
ATOM     22  C   UNL d   1     -50.227  13.134  21.981  0.00  0.00     0.000 A 
ATOM     23  C   UNL d   1     -50.736  13.751  21.777  0.00  0.00     0.000 A 
ATOM     24  C   UNL d   1     -51.023  14.247  22.348  0.00  0.00     0.000 A 
ATOM     25  C   UNL d   1     -50.808  14.139  23.128  0.00  0.00     0.000 A 
ATOM     26  C   UNL d   1     -50.299  13.523  23.333  0.00  0.00     0.000 A 
ENDBRANCH   4  21
TORSDOF 7
ENDMDL
MODEL 2
REMARK VINA RESULT:      -6.3      1.645      2.638
REMARK  7 active torsions:
REMARK  status: ('A' for Active; 'I' for Inactive)
REMARK    1  A    between atoms: C_11  and  C_4 
REMARK    2  A    between atoms: N_12  and  C_5 
REMARK    3  A    between atoms: C_10  and  C_8 
REMARK    4  A    between atoms: C_15  and  N_12 
REMARK    5  A    between atoms: N_13  and  C_19 
REMARK    6  A    between atoms: C_14  and  C_15 
REMARK    7  A    between atoms: C_19  and  C_14 
ROOT
ATOM      1  C   UNL d   1     -48.207  14.153  22.681  0.00  0.00     0.168 A 
ATOM      2  N   UNL d   1     -47.376  14.177  22.571  0.00  0.00    -0.184 N 
ATOM      3  N   UNL d   1     -48.580  13.435  22.794  0.00  0.00    -0.231 NA
ATOM      4  C   UNL d   1     -48.638  14.836  22.675  0.00  0.00     0.057 A 
ATOM      5  C   UNL d   1     -46.967  13.483  22.580  0.00  0.00     0.217 A 
ATOM      6  N   UNL d   1     -47.447  15.570  22.455  0.00  0.00    -0.160 NA
ATOM      7  C   UNL d   1     -47.331  12.757  22.692  0.00  0.00     0.067 A 
ATOM      8  C   UNL d   1     -48.148  12.733  22.801  0.00  0.00     0.064 A 
ATOM      9  C   UNL d   1     -48.264  15.545  22.563  0.00  0.00     0.124 A 
ENDROOT
BRANCH   5  10
ATOM     10  N   UNL d   1     -46.123  13.508  22.468  0.00  0.00    -0.380 NA
BRANCH  10  11
ATOM     11  C   UNL d   1     -45.282  13.468  22.392  0.00  0.00     0.164 C 
BRANCH  11  12
ATOM     12  C   UNL d   1     -44.949  12.903  21.850  0.00  0.00     0.054 C 
BRANCH  12  13
ATOM     13  C   UNL d   1     -44.154  13.025  21.553  0.00  0.00     0.083 C 
BRANCH  13  14
ATOM     14  N   UNL d   1     -43.542  12.474  21.751  0.00  0.00    -0.300 N 
ATOM     15  C   UNL d   1     -42.992  12.861  21.233  0.00  0.00     0.100 C 
ATOM     16  C   UNL d   1     -43.284  11.788  22.192  0.00  0.00     0.100 C 
ENDBRANCH  13  14
ENDBRANCH  12  13
ENDBRANCH  11  12
ENDBRANCH  10  11
ENDBRANCH   5  10
BRANCH   8  17
ATOM     17  C   UNL d   1     -48.542  11.985  22.919  0.00  0.00     0.036 C 
ATOM     18  C   UNL d   1     -48.932  11.247  23.030  0.00  0.00     0.006 C 
ATOM     19  C   UNL d   1     -48.576  11.646  23.698  0.00  0.00     0.006 C 
ATOM     20  C   UNL d   1     -48.900  11.583  22.254  0.00  0.00     0.006 C 
ENDBRANCH   8  17
BRANCH   4  21
ATOM     21  C   UNL d   1     -49.455  14.812  22.784  0.00  0.00     0.004 A 
ATOM     22  C   UNL d   1     -49.934  14.722  22.145  0.00  0.00     0.000 A 
ATOM     23  C   UNL d   1     -50.751  14.698  22.253  0.00  0.00     0.000 A 
ATOM     24  C   UNL d   1     -51.064  14.764  22.997  0.00  0.00     0.000 A 
ATOM     25  C   UNL d   1     -50.572  14.854  23.641  0.00  0.00     0.000 A 
ATOM     26  C   UNL d   1     -49.755  14.879  23.533  0.00  0.00     0.000 A 
ENDBRANCH   4  21
TORSDOF 7
ENDMDL
MODEL 3
REMARK VINA RESULT:      -6.2      1.127      2.438
REMARK  7 active torsions:
REMARK  status: ('A' for Active; 'I' for Inactive)
REMARK    1  A    between atoms: C_11  and  C_4 
REMARK    2  A    between atoms: N_12  and  C_5 
REMARK    3  A    between atoms: C_10  and  C_8 
REMARK    4  A    between atoms: C_15  and  N_12 
REMARK    5  A    between atoms: N_13  and  C_19 
REMARK    6  A    between atoms: C_14  and  C_15 
REMARK    7  A    between atoms: C_19  and  C_14 
ROOT
ATOM      1  C   UNL d   1     -48.012  13.837  22.852  0.00  0.00     0.168 A 
ATOM      2  N   UNL d   1     -47.225  13.549  22.843  0.00  0.00    -0.184 N 
ATOM      3  N   UNL d   1     -48.636  13.310  22.865  0.00  0.00    -0.231 NA
ATOM      4  C   UNL d   1     -48.153  14.632  22.846  0.00  0.00     0.057 A 
ATOM      5  C   UNL d   1     -47.107  12.751  22.849  0.00  0.00     0.217 A 
ATOM      6  N   UNL d   1     -46.756  14.867  22.825  0.00  0.00    -0.160 NA
ATOM      7  C   UNL d   1     -47.726  12.214  22.863  0.00  0.00     0.067 A 
ATOM      8  C   UNL d   1     -48.501  12.497  22.871  0.00  0.00     0.064 A 
ATOM      9  C   UNL d   1     -47.531  15.150  22.833  0.00  0.00     0.124 A 
ENDROOT
BRANCH   5  10
ATOM     10  N   UNL d   1     -46.307  12.458  22.841  0.00  0.00    -0.380 NA
BRANCH  10  11
ATOM     11  C   UNL d   1     -45.527  12.143  22.764  0.00  0.00     0.164 C 
BRANCH  11  12
ATOM     12  C   UNL d   1     -45.291  11.509  23.281  0.00  0.00     0.054 C 
BRANCH  12  13
ATOM     13  C   UNL d   1     -44.476  11.244  23.274  0.00  0.00     0.083 C 
BRANCH  13  14
ATOM     14  N   UNL d   1     -44.295  10.437  23.456  0.00  0.00    -0.300 N 
ATOM     15  C   UNL d   1     -43.470  10.561  23.297  0.00  0.00     0.100 C 
ATOM     16  C   UNL d   1     -44.559   9.661  23.698  0.00  0.00     0.100 C 
ENDBRANCH  13  14
ENDBRANCH  12  13
ENDBRANCH  11  12
ENDBRANCH  10  11
ENDBRANCH   5  10
BRANCH   8  17
ATOM     17  C   UNL d   1     -49.157  11.951  22.885  0.00  0.00     0.036 C 
ATOM     18  C   UNL d   1     -49.803  11.412  22.904  0.00  0.00     0.006 C 
ATOM     19  C   UNL d   1     -49.545  11.741  22.158  0.00  0.00     0.006 C 
ATOM     20  C   UNL d   1     -49.418  11.619  23.628  0.00  0.00     0.006 C 
ENDBRANCH   8  17
BRANCH   4  21
ATOM     21  C   UNL d   1     -48.928  14.916  22.854  0.00  0.00     0.004 A 
ATOM     22  C   UNL d   1     -49.254  15.148  23.550  0.00  0.00     0.000 A 
ATOM     23  C   UNL d   1     -50.029  15.432  23.558  0.00  0.00     0.000 A 
ATOM     24  C   UNL d   1     -50.453  15.474  22.870  0.00  0.00     0.000 A 
ATOM     25  C   UNL d   1     -50.115  15.236  22.167  0.00  0.00     0.000 A 
ATOM     26  C   UNL d   1     -49.340  14.952  22.158  0.00  0.00     0.000 A 
ENDBRANCH   4  21
TORSDOF 7
ENDMDL
MODEL 4
REMARK VINA RESULT:      -5.8      1.624      1.922
REMARK  7 active torsions:
REMARK  status: ('A' for Active; 'I' for Inactive)
REMARK    1  A    between atoms: C_11  and  C_4 
REMARK    2  A    between atoms: N_12  and  C_5 
REMARK    3  A    between atoms: C_10  and  C_8 
REMARK    4  A    between atoms: C_15  and  N_12 
REMARK    5  A    between atoms: N_13  and  C_19 
REMARK    6  A    between atoms: C_14  and  C_15 
REMARK    7  A    between atoms: C_19  and  C_14 
ROOT
ATOM      1  C   UNL d   1     -48.154  12.596  22.836  0.00  0.00     0.168 A 
ATOM      2  N   UNL d   1     -47.321  12.503  22.813  0.00  0.00    -0.184 N 
ATOM      3  N   UNL d   1     -48.481  13.340  22.759  0.00  0.00    -0.231 NA
ATOM      4  C   UNL d   1     -48.631  11.951  22.934  0.00  0.00     0.057 A 
ATOM      5  C   UNL d   1     -46.864  13.160  22.714  0.00  0.00     0.217 A 
ATOM      6  N   UNL d   1     -47.483  11.124  22.987  0.00  0.00    -0.160 NA
ATOM      7  C   UNL d   1     -47.182  13.911  22.636  0.00  0.00     0.067 A 
ATOM      8  C   UNL d   1     -48.002  14.003  22.659  0.00  0.00     0.064 A 
ATOM      9  C   UNL d   1     -48.303  11.216  23.010  0.00  0.00     0.124 A 
ENDROOT
BRANCH   5  10
ATOM     10  N   UNL d   1     -46.018  13.066  22.691  0.00  0.00    -0.380 NA
BRANCH  10  11
ATOM     11  C   UNL d   1     -45.177  12.992  22.739  0.00  0.00     0.164 C 
BRANCH  11  12
ATOM     12  C   UNL d   1     -44.732  12.924  22.016  0.00  0.00     0.054 C 
BRANCH  12  13
ATOM     13  C   UNL d   1     -43.966  12.540  22.030  0.00  0.00     0.083 C 
BRANCH  13  14
ATOM     14  N   UNL d   1     -43.378  12.755  21.460  0.00  0.00    -0.300 N 
ATOM     15  C   UNL d   1     -42.849  12.155  21.744  0.00  0.00     0.100 C 
ATOM     16  C   UNL d   1     -43.130  13.253  20.811  0.00  0.00     0.100 C 
ENDBRANCH  13  14
ENDBRANCH  12  13
ENDBRANCH  11  12
ENDBRANCH  10  11
ENDBRANCH   5  10
BRANCH   8  17
ATOM     17  C   UNL d   1     -48.348  14.778  22.579  0.00  0.00     0.036 C 
ATOM     18  C   UNL d   1     -48.690  15.543  22.495  0.00  0.00     0.006 C 
ATOM     19  C   UNL d   1     -48.620  15.191  23.271  0.00  0.00     0.006 C 
ATOM     20  C   UNL d   1     -48.420  15.134  21.805  0.00  0.00     0.006 C 
ENDBRANCH   8  17
BRANCH   4  21
ATOM     21  C   UNL d   1     -49.451  12.043  22.957  0.00  0.00     0.004 A 
ATOM     22  C   UNL d   1     -49.862  12.077  22.268  0.00  0.00     0.000 A 
ATOM     23  C   UNL d   1     -50.681  12.169  22.291  0.00  0.00     0.000 A 
ATOM     24  C   UNL d   1     -51.064  12.222  23.001  0.00  0.00     0.000 A 
ATOM     25  C   UNL d   1     -50.641  12.186  23.698  0.00  0.00     0.000 A 
ATOM     26  C   UNL d   1     -49.821  12.095  23.675  0.00  0.00     0.000 A 
ENDBRANCH   4  21
TORSDOF 7
ENDMDL
MODEL 5
REMARK VINA RESULT:      -4.3      7.283     10.128
REMARK  7 active torsions:
REMARK  status: ('A' for Active; 'I' for Inactive)
REMARK    1  A    between atoms: C_11  and  C_4 
REMARK    2  A    between atoms: N_12  and  C_5 
REMARK    3  A    between atoms: C_10  and  C_8 
REMARK    4  A    between atoms: C_15  and  N_12 
REMARK    5  A    between atoms: N_13  and  C_19 
REMARK    6  A    between atoms: C_14  and  C_15 
REMARK    7  A    between atoms: C_19  and  C_14 
ROOT
ATOM      1  C   UNL d   1     -39.277  15.197  20.504  0.00  0.00     0.168 A 
ATOM      2  N   UNL d   1     -39.233  15.297  19.673  0.00  0.00    -0.184 N 
ATOM      3  N   UNL d   1     -39.951  14.878  20.839  0.00  0.00    -0.231 NA
ATOM      4  C   UNL d   1     -38.656  15.415  20.973  0.00  0.00     0.057 A 
ATOM      5  C   UNL d   1     -39.864  15.073  19.225  0.00  0.00     0.217 A 
ATOM      6  N   UNL d   1     -37.947  15.829  19.819  0.00  0.00    -0.160 NA
ATOM      7  C   UNL d   1     -40.545  14.752  19.551  0.00  0.00     0.067 A 
ATOM      8  C   UNL d   1     -40.589  14.653  20.369  0.00  0.00     0.064 A 
ATOM      9  C   UNL d   1     -37.991  15.730  20.637  0.00  0.00     0.124 A 
ENDROOT
BRANCH   5  10
ATOM     10  N   UNL d   1     -39.819  15.174  18.381  0.00  0.00    -0.380 NA
BRANCH  10  11
ATOM     11  C   UNL d   1     -39.824  15.330  17.550  0.00  0.00     0.164 C 
BRANCH  11  12
ATOM     12  C   UNL d   1     -39.314  14.869  17.047  0.00  0.00     0.054 C 
BRANCH  12  13
ATOM     13  C   UNL d   1     -38.853  15.266  16.442  0.00  0.00     0.083 C 
BRANCH  13  14
ATOM     14  N   UNL d   1     -38.380  14.810  15.908  0.00  0.00    -0.300 N 
ATOM     15  C   UNL d   1     -38.043  15.511  15.569  0.00  0.00     0.100 C 
ATOM     16  C   UNL d   1     -38.135  14.047  15.610  0.00  0.00     0.100 C 
ENDBRANCH  13  14
ENDBRANCH  12  13
ENDBRANCH  11  12
ENDBRANCH  10  11
ENDBRANCH   5  10
BRANCH   8  17
ATOM     17  C   UNL d   1     -41.290  14.321  20.723  0.00  0.00     0.036 C 
ATOM     18  C   UNL d   1     -41.981  13.988  21.071  0.00  0.00     0.006 C 
ATOM     19  C   UNL d   1     -41.898  14.838  21.019  0.00  0.00     0.006 C 
ATOM     20  C   UNL d   1     -41.378  13.472  20.778  0.00  0.00     0.006 C 
ENDBRANCH   8  17
BRANCH   4  21
ATOM     21  C   UNL d   1     -38.700  15.317  21.791  0.00  0.00     0.004 A 
ATOM     22  C   UNL d   1     -38.456  14.625  22.117  0.00  0.00     0.000 A 
ATOM     23  C   UNL d   1     -38.500  14.527  22.935  0.00  0.00     0.000 A 
ATOM     24  C   UNL d   1     -38.786  15.123  23.401  0.00  0.00     0.000 A 
ATOM     25  C   UNL d   1     -39.033  15.824  23.063  0.00  0.00     0.000 A 
ATOM     26  C   UNL d   1     -38.989  15.922  22.245  0.00  0.00     0.000 A 
ENDBRANCH   4  21
TORSDOF 7
ENDMDL
