MODEL 1
REMARK VINA RESULT:      -5.6      0.000      0.000
REMARK  4 active torsions:
REMARK  status: ('A' for Active; 'I' for Inactive)
REMARK    1  A    between atoms: C_5  and  C_4 
REMARK    2  A    between atoms: C_6  and  C_5 
REMARK       I    between atoms: N_11  and  C_6 
REMARK    3  A    between atoms: C_9  and  C_10 
REMARK    4  A    between atoms: C_14  and  N_11 
ROOT
ATOM      1  C   UNL d   1      58.298   0.112  29.656  0.00  0.00     0.074 C 
ENDROOT
BRANCH   1   2
ATOM      2  C   UNL d   1      58.834  -0.423  29.362  0.00  0.00     0.092 A 
ATOM      3  C   UNL d   1      59.532  -0.148  29.005  0.00  0.00     0.285 A 
ATOM      4  N   UNL d   1      60.087  -0.691  28.701  0.00  0.00    -0.207 NA
ATOM      5  O   UNL d   1      59.682   0.657  28.947  0.00  0.00    -0.265 OA
ATOM      6  C   UNL d   1      59.934  -1.487  28.760  0.00  0.00     0.091 A 
ATOM      7  C   UNL d   1      59.236  -1.762  29.117  0.00  0.00     0.047 A 
ATOM      8  C   UNL d   1      60.490  -2.033  28.455  0.00  0.00     0.020 A 
ATOM      9  S   UNL d   1      58.703  -1.236  29.410  0.00  0.00    -0.080 SA
ATOM     10  C   UNL d   1      59.109  -2.566  29.163  0.00  0.00     0.008 A 
ATOM     11  C   UNL d   1      59.645  -3.123  28.868  0.00  0.00     0.001 A 
ATOM     12  C   UNL d   1      60.343  -2.848  28.510  0.00  0.00     0.002 A 
ENDBRANCH   1   2
BRANCH   1  13
ATOM     13  C   UNL d   1      58.092   0.107  30.440  0.00  0.00     0.280 C 
ATOM     14  N   UNL d   1      57.304   0.056  30.663  0.00  0.00    -0.208 NA
ATOM     15  O   UNL d   1      58.676   0.153  31.011  0.00  0.00    -0.265 OA
BRANCH  14  16
ATOM     16  C   UNL d   1      57.103   0.052  31.457  0.00  0.00     0.085 A 
ATOM     17  C   UNL d   1      56.637  -0.562  31.770  0.00  0.00     0.025 A 
ATOM     18  C   UNL d   1      56.447  -0.550  32.565  0.00  0.00     0.066 A 
ATOM     19  C   UNL d   1      56.695   0.031  33.040  0.00  0.00     0.006 A 
ATOM     20  C   UNL d   1      57.164   0.659  32.748  0.00  0.00     0.002 A 
ATOM     21  C   UNL d   1      57.360   0.653  31.947  0.00  0.00     0.019 A 
BRANCH  18  22
ATOM     22  C   UNL d   1      55.995  -1.132  32.901  0.00  0.00     0.211 C 
ATOM     23  O   UNL d   1      55.194  -1.034  33.046  0.00  0.00    -0.644 OA
ATOM     24  O   UNL d   1      56.374  -1.835  33.092  0.00  0.00    -0.644 OA
ENDBRANCH  18  22
ENDBRANCH  14  16
ENDBRANCH   1  13
TORSDOF 4
ENDMDL
MODEL 2
REMARK VINA RESULT:      -4.2      1.722      1.936
REMARK  4 active torsions:
REMARK  status: ('A' for Active; 'I' for Inactive)
REMARK    1  A    between atoms: C_5  and  C_4 
REMARK    2  A    between atoms: C_6  and  C_5 
REMARK       I    between atoms: N_11  and  C_6 
REMARK    3  A    between atoms: C_9  and  C_10 
REMARK    4  A    between atoms: C_14  and  N_11 
ROOT
ATOM      1  C   UNL d   1      57.468   0.563  30.098  0.00  0.00     0.074 C 
ENDROOT
BRANCH   1   2
ATOM      2  C   UNL d   1      58.212   0.465  29.786  0.00  0.00     0.092 A 
ATOM      3  C   UNL d   1      58.311   0.451  28.961  0.00  0.00     0.285 A 
ATOM      4  N   UNL d   1      59.071   0.350  28.634  0.00  0.00    -0.207 NA
ATOM      5  O   UNL d   1      57.664   0.535  28.462  0.00  0.00    -0.265 OA
ATOM      6  C   UNL d   1      59.707   0.267  29.132  0.00  0.00     0.091 A 
ATOM      7  C   UNL d   1      59.608   0.281  29.957  0.00  0.00     0.047 A 
ATOM      8  C   UNL d   1      60.470   0.166  28.805  0.00  0.00     0.020 A 
ATOM      9  S   UNL d   1      58.875   0.378  30.270  0.00  0.00    -0.080 SA
ATOM     10  C   UNL d   1      60.265   0.196  30.433  0.00  0.00     0.008 A 
ATOM     11  C   UNL d   1      61.028   0.095  30.130  0.00  0.00     0.001 A 
ATOM     12  C   UNL d   1      61.127   0.080  29.305  0.00  0.00     0.002 A 
ENDBRANCH   1   2
BRANCH   1  13
ATOM     13  C   UNL d   1      57.227   0.135  30.742  0.00  0.00     0.280 C 
ATOM     14  N   UNL d   1      56.843   0.504  31.367  0.00  0.00    -0.208 NA
ATOM     15  O   UNL d   1      57.368  -0.669  30.768  0.00  0.00    -0.265 OA
BRANCH  14  16
ATOM     16  C   UNL d   1      56.602   0.066  32.014  0.00  0.00     0.085 A 
ATOM     17  C   UNL d   1      56.148   0.418  32.616  0.00  0.00     0.025 A 
ATOM     18  C   UNL d   1      55.916  -0.036  33.256  0.00  0.00     0.066 A 
ATOM     19  C   UNL d   1      56.113  -0.799  33.313  0.00  0.00     0.006 A 
ATOM     20  C   UNL d   1      56.569  -1.175  32.721  0.00  0.00     0.002 A 
ATOM     21  C   UNL d   1      56.806  -0.723  32.074  0.00  0.00     0.019 A 
BRANCH  18  22
ATOM     22  C   UNL d   1      55.474   0.277  33.858  0.00  0.00     0.211 C 
ATOM     23  O   UNL d   1      54.713   0.561  33.739  0.00  0.00    -0.644 OA
ATOM     24  O   UNL d   1      55.819   0.300  34.603  0.00  0.00    -0.644 OA
ENDBRANCH  18  22
ENDBRANCH  14  16
ENDBRANCH   1  13
TORSDOF 4
ENDMDL
MODEL 3
REMARK VINA RESULT:      -2.9      1.626      4.514
REMARK  4 active torsions:
REMARK  status: ('A' for Active; 'I' for Inactive)
REMARK    1  A    between atoms: C_5  and  C_4 
REMARK    2  A    between atoms: C_6  and  C_5 
REMARK       I    between atoms: N_11  and  C_6 
REMARK    3  A    between atoms: C_9  and  C_10 
REMARK    4  A    between atoms: C_14  and  N_11 
ROOT
ATOM      1  C   UNL d   1      58.657   0.682  30.256  0.00  0.00     0.074 C 
ENDROOT
BRANCH   1   2
ATOM      2  C   UNL d   1      58.060   0.649  30.807  0.00  0.00     0.092 A 
ATOM      3  C   UNL d   1      57.269   0.649  30.553  0.00  0.00     0.285 A 
ATOM      4  N   UNL d   1      56.652   0.615  31.112  0.00  0.00    -0.207 NA
ATOM      5  O   UNL d   1      57.088   0.681  29.753  0.00  0.00    -0.265 OA
ATOM      6  C   UNL d   1      56.836   0.584  31.903  0.00  0.00     0.091 A 
ATOM      7  C   UNL d   1      57.628   0.584  32.157  0.00  0.00     0.047 A 
ATOM      8  C   UNL d   1      56.218   0.550  32.465  0.00  0.00     0.020 A 
ATOM      9  S   UNL d   1      58.221   0.616  31.616  0.00  0.00    -0.080 SA
ATOM     10  C   UNL d   1      57.784   0.552  32.957  0.00  0.00     0.008 A 
ATOM     11  C   UNL d   1      57.187   0.518  33.529  0.00  0.00     0.001 A 
ATOM     12  C   UNL d   1      56.396   0.518  33.275  0.00  0.00     0.002 A 
ENDBRANCH   1   2
BRANCH   1  13
ATOM     13  C   UNL d   1      59.119   0.033  30.104  0.00  0.00     0.280 C 
ATOM     14  N   UNL d   1      59.003  -0.410  29.423  0.00  0.00    -0.208 NA
ATOM     15  O   UNL d   1      59.704  -0.178  30.634  0.00  0.00    -0.265 OA
BRANCH  14  16
ATOM     16  C   UNL d   1      59.473  -1.063  29.275  0.00  0.00     0.085 A 
ATOM     17  C   UNL d   1      59.134  -1.821  29.218  0.00  0.00     0.025 A 
ATOM     18  C   UNL d   1      59.620  -2.462  29.070  0.00  0.00     0.066 A 
ATOM     19  C   UNL d   1      60.401  -2.377  28.981  0.00  0.00     0.006 A 
ATOM     20  C   UNL d   1      60.763  -1.625  29.034  0.00  0.00     0.002 A 
ATOM     21  C   UNL d   1      60.280  -0.974  29.183  0.00  0.00     0.019 A 
BRANCH  18  22
ATOM     22  C   UNL d   1      59.322  -3.213  29.009  0.00  0.00     0.211 C 
ATOM     23  O   UNL d   1      58.520  -3.357  28.912  0.00  0.00    -0.644 OA
ATOM     24  O   UNL d   1      59.859  -3.833  29.048  0.00  0.00    -0.644 OA
ENDBRANCH  18  22
ENDBRANCH  14  16
ENDBRANCH   1  13
TORSDOF 4
ENDMDL
