MODEL 1
REMARK VINA RESULT:       9.2      0.000      0.000
REMARK  4 active torsions:
REMARK  status: ('A' for Active; 'I' for Inactive)
REMARK    1  A    between atoms: N_2  and  C_1 
REMARK    2  A    between atoms: N_3  and  C_1 
REMARK       I    between atoms: C_4  and  N_2 
REMARK    3  A    between atoms: C_5  and  N_3 
REMARK    4  A    between atoms: C_9  and  C_4 
ROOT
ATOM      1  C   UNL d   1      46.071 -17.264  44.297  0.00  0.00     0.276 C 
ATOM      2  S   UNL d   1      46.176 -17.751  44.954  0.00  0.00    -0.023 SA
ENDROOT
BRANCH   1   3
ATOM      3  N   UNL d   1      46.163 -17.576  43.540  0.00  0.00    -0.168 NA
ATOM      4  C   UNL d   1      46.334 -18.379  43.433  0.00  0.00     0.282 C 
ATOM      5  O   UNL d   1      46.413 -18.866  44.095  0.00  0.00    -0.265 OA
BRANCH   4   6
ATOM      6  C   UNL d   1      46.426 -18.689  42.673  0.00  0.00     0.058 C 
ATOM      7  C   UNL d   1      46.580 -19.482  42.577  0.00  0.00     0.005 C 
ATOM      8  C   UNL d   1      46.360 -18.192  42.019  0.00  0.00     0.005 C 
ENDBRANCH   4   6
ENDBRANCH   1   3
BRANCH   1   9
ATOM      9  N   UNL d   1      45.874 -16.466  44.393  0.00  0.00    -0.353 NA
BRANCH   9  10
ATOM     10  C   UNL d   1      45.679 -15.673  44.487  0.00  0.00     0.216 A 
ATOM     11  N   UNL d   1      46.192 -15.088  44.205  0.00  0.00    -0.215 NA
ATOM     12  C   UNL d   1      45.994 -14.295  44.301  0.00  0.00     0.102 A 
ATOM     13  C   UNL d   1      45.288 -14.088  44.676  0.00  0.00     0.021 A 
ATOM     14  C   UNL d   1      44.783 -14.666  44.954  0.00  0.00     0.006 A 
ATOM     15  C   UNL d   1      44.969 -15.465  44.865  0.00  0.00     0.052 A 
ENDBRANCH   9  10
ENDBRANCH   1   9
TORSDOF 4
ENDMDL
MODEL 2
REMARK VINA RESULT:      10.3      2.806      4.421
REMARK  4 active torsions:
REMARK  status: ('A' for Active; 'I' for Inactive)
REMARK    1  A    between atoms: N_2  and  C_1 
REMARK    2  A    between atoms: N_3  and  C_1 
REMARK       I    between atoms: C_4  and  N_2 
REMARK    3  A    between atoms: C_5  and  N_3 
REMARK    4  A    between atoms: C_9  and  C_4 
ROOT
ATOM      1  C   UNL d   1      45.598 -13.280  44.536  0.00  0.00     0.276 C 
ATOM      2  S   UNL d   1      46.166 -12.849  44.951  0.00  0.00    -0.023 SA
ENDROOT
BRANCH   1   3
ATOM      3  N   UNL d   1      45.093 -12.890  44.015  0.00  0.00    -0.168 NA
ATOM      4  C   UNL d   1      45.327 -12.734  43.237  0.00  0.00     0.282 C 
ATOM      5  O   UNL d   1      46.076 -12.975  42.985  0.00  0.00    -0.265 OA
BRANCH   4   6
ATOM      6  C   UNL d   1      44.819 -12.343  42.717  0.00  0.00     0.058 C 
ATOM      7  C   UNL d   1      45.047 -12.220  41.946  0.00  0.00     0.005 C 
ATOM      8  C   UNL d   1      44.085 -12.081  42.985  0.00  0.00     0.005 C 
ENDBRANCH   4   6
ENDBRANCH   1   3
BRANCH   1   9
ATOM      9  N   UNL d   1      45.532 -14.098  44.641  0.00  0.00    -0.353 NA
BRANCH   9  10
ATOM     10  C   UNL d   1      45.465 -14.911  44.745  0.00  0.00     0.216 A 
ATOM     11  N   UNL d   1      46.148 -15.379  44.761  0.00  0.00    -0.215 NA
ATOM     12  C   UNL d   1      46.079 -16.192  44.866  0.00  0.00     0.102 A 
ATOM     13  C   UNL d   1      45.333 -16.536  44.954  0.00  0.00     0.021 A 
ATOM     14  C   UNL d   1      44.661 -16.073  44.938  0.00  0.00     0.006 A 
ATOM     15  C   UNL d   1      44.715 -15.256  44.834  0.00  0.00     0.052 A 
ENDBRANCH   9  10
ENDBRANCH   1   9
TORSDOF 4
ENDMDL
MODEL 3
REMARK VINA RESULT:      10.5      1.446      3.883
REMARK  4 active torsions:
REMARK  status: ('A' for Active; 'I' for Inactive)
REMARK    1  A    between atoms: N_2  and  C_1 
REMARK    2  A    between atoms: N_3  and  C_1 
REMARK       I    between atoms: C_4  and  N_2 
REMARK    3  A    between atoms: C_5  and  N_3 
REMARK    4  A    between atoms: C_9  and  C_4 
ROOT
ATOM      1  C   UNL d   1      45.459 -16.092  44.468  0.00  0.00     0.276 C 
ATOM      2  S   UNL d   1      44.793 -16.111  44.955  0.00  0.00    -0.023 SA
ENDROOT
BRANCH   1   3
ATOM      3  N   UNL d   1      45.827 -15.372  44.310  0.00  0.00    -0.168 NA
ATOM      4  C   UNL d   1      45.409 -14.661  44.375  0.00  0.00     0.282 C 
ATOM      5  O   UNL d   1      44.615 -14.680  44.602  0.00  0.00    -0.265 OA
BRANCH   4   6
ATOM      6  C   UNL d   1      45.781 -13.941  44.216  0.00  0.00     0.058 C 
ATOM      7  C   UNL d   1      45.472 -13.445  43.650  0.00  0.00     0.005 C 
ATOM      8  C   UNL d   1      46.461 -13.733  44.632  0.00  0.00     0.005 C 
ENDBRANCH   4   6
ENDBRANCH   1   3
BRANCH   1   9
ATOM      9  N   UNL d   1      45.758 -16.791  44.139  0.00  0.00    -0.353 NA
BRANCH   9  10
ATOM     10  C   UNL d   1      46.054 -17.484  43.812  0.00  0.00     0.216 A 
ATOM     11  N   UNL d   1      46.249 -17.506  43.007  0.00  0.00    -0.215 NA
ATOM     12  C   UNL d   1      46.546 -18.201  42.682  0.00  0.00     0.102 A 
ATOM     13  C   UNL d   1      46.646 -18.870  43.156  0.00  0.00     0.021 A 
ATOM     14  C   UNL d   1      46.454 -18.846  43.949  0.00  0.00     0.006 A 
ATOM     15  C   UNL d   1      46.156 -18.156  44.289  0.00  0.00     0.052 A 
ENDBRANCH   9  10
ENDBRANCH   1   9
TORSDOF 4
ENDMDL
