MODEL 1
REMARK VINA RESULT:      -2.0      0.000      0.000
REMARK  5 active torsions:
REMARK  status: ('A' for Active; 'I' for Inactive)
REMARK    1  A    between atoms: C_2  and  S_1 
REMARK    2  A    between atoms: N_4  and  S_1 
REMARK    3  A    between atoms: C_11  and  N_4 
REMARK    4  A    between atoms: O_14  and  C_5 
REMARK    5  A    between atoms: O_15  and  C_7 
ROOT
ATOM      1  C   UNL d   1      31.665  17.164 -24.177  0.00  0.00     0.129 A 
ATOM      2  C   UNL d   1      31.049  17.504 -24.609  0.00  0.00     0.040 A 
ATOM      3  C   UNL d   1      31.546  16.445 -23.799  0.00  0.00     0.107 A 
ATOM      4  C   UNL d   1      30.823  16.059 -23.846  0.00  0.00     0.034 A 
ATOM      5  C   UNL d   1      30.319  17.122 -24.661  0.00  0.00     0.101 A 
ATOM      6  C   UNL d   1      30.207  16.400 -24.279  0.00  0.00     0.059 A 
ATOM      7 BR   UNL d   1      29.471  16.021 -24.335  0.00  0.00    -0.047 Br
ENDROOT
BRANCH   1   8
ATOM      8  S   UNL d   1      32.388  17.550 -24.130  0.00  0.00     0.287 S 
ATOM      9  O   UNL d   1      32.158  17.923 -23.440  0.00  0.00    -0.198 OA
ATOM     10  O   UNL d   1      32.625  17.176 -24.826  0.00  0.00    -0.198 OA
BRANCH   8  11
ATOM     11  N   UNL d   1      33.118  17.934 -24.089  0.00  0.00    -0.157 NA
BRANCH  11  12
ATOM     12  C   UNL d   1      33.159  18.750 -24.210  0.00  0.00     0.113 A 
ATOM     13  C   UNL d   1      33.200  19.050 -24.970  0.00  0.00     0.119 A 
ATOM     14  N   UNL d   1      33.241  19.865 -25.090  0.00  0.00    -0.241 NA
ATOM     15  C   UNL d   1      33.240  20.384 -24.440  0.00  0.00     0.099 A 
ATOM     16  C   UNL d   1      33.199  20.073 -23.675  0.00  0.00     0.022 A 
ATOM     17  C   UNL d   1      33.158  19.258 -23.555  0.00  0.00     0.023 A 
ENDBRANCH  11  12
ENDBRANCH   8  11
ENDBRANCH   1   8
BRANCH   3  18
ATOM     18  O   UNL d   1      32.163  16.105 -23.366  0.00  0.00    -0.327 OA
ATOM     19  C   UNL d   1      32.017  15.453 -22.882  0.00  0.00     0.181 C 
ENDBRANCH   3  18
BRANCH   5  20
ATOM     20  O   UNL d   1      29.703  17.463 -25.094  0.00  0.00    -0.328 OA
ATOM     21  C   UNL d   1      29.384  18.187 -24.860  0.00  0.00     0.181 C 
ENDBRANCH   5  20
TORSDOF 5
ENDMDL
MODEL 2
REMARK VINA RESULT:      -1.6      2.253      3.688
REMARK  5 active torsions:
REMARK  status: ('A' for Active; 'I' for Inactive)
REMARK    1  A    between atoms: C_2  and  S_1 
REMARK    2  A    between atoms: N_4  and  S_1 
REMARK    3  A    between atoms: C_11  and  N_4 
REMARK    4  A    between atoms: O_14  and  C_5 
REMARK    5  A    between atoms: O_15  and  C_7 
ROOT
ATOM      1  C   UNL d   1      31.334  16.625 -24.081  0.00  0.00     0.129 A 
ATOM      2  C   UNL d   1      31.082  17.319 -24.451  0.00  0.00     0.040 A 
ATOM      3  C   UNL d   1      32.129  16.525 -23.905  0.00  0.00     0.107 A 
ATOM      4  C   UNL d   1      32.678  17.107 -24.090  0.00  0.00     0.034 A 
ATOM      5  C   UNL d   1      31.628  17.908 -24.640  0.00  0.00     0.101 A 
ATOM      6  C   UNL d   1      32.426  17.801 -24.459  0.00  0.00     0.059 A 
ATOM      7 BR   UNL d   1      32.970  18.397 -24.652  0.00  0.00    -0.047 Br
ENDROOT
BRANCH   1   8
ATOM      8  S   UNL d   1      30.785  16.043 -23.896  0.00  0.00     0.287 S 
ATOM      9  O   UNL d   1      30.880  16.191 -23.098  0.00  0.00    -0.198 OA
ATOM     10  O   UNL d   1      30.686  15.890 -24.700  0.00  0.00    -0.198 OA
BRANCH   8  11
ATOM     11  N   UNL d   1      30.232  15.457 -23.717  0.00  0.00    -0.157 NA
BRANCH  11  12
ATOM     12  C   UNL d   1      29.427  15.634 -23.732  0.00  0.00     0.113 A 
ATOM     13  C   UNL d   1      28.987  15.488 -24.406  0.00  0.00     0.119 A 
ATOM     14  N   UNL d   1      28.181  15.666 -24.421  0.00  0.00    -0.241 NA
ATOM     15  C   UNL d   1      27.814  15.994 -23.751  0.00  0.00     0.099 A 
ATOM     16  C   UNL d   1      28.265  16.140 -23.073  0.00  0.00     0.022 A 
ATOM     17  C   UNL d   1      29.070  15.962 -23.059  0.00  0.00     0.023 A 
ENDBRANCH  11  12
ENDBRANCH   8  11
ENDBRANCH   1   8
BRANCH   3  18
ATOM     18  O   UNL d   1      32.381  15.829 -23.535  0.00  0.00    -0.327 OA
ATOM     19  C   UNL d   1      33.184  15.704 -23.393  0.00  0.00     0.181 C 
ENDBRANCH   3  18
BRANCH   5  20
ATOM     20  O   UNL d   1      31.376  18.604 -25.010  0.00  0.00    -0.328 OA
ATOM     21  C   UNL d   1      30.570  18.760 -25.092  0.00  0.00     0.181 C 
ENDBRANCH   5  20
TORSDOF 5
ENDMDL
MODEL 3
REMARK VINA RESULT:      -0.5      4.188      5.724
REMARK  5 active torsions:
REMARK  status: ('A' for Active; 'I' for Inactive)
REMARK    1  A    between atoms: C_2  and  S_1 
REMARK    2  A    between atoms: N_4  and  S_1 
REMARK    3  A    between atoms: C_11  and  N_4 
REMARK    4  A    between atoms: O_14  and  C_5 
REMARK    5  A    between atoms: O_15  and  C_7 
ROOT
ATOM      1  C   UNL d   1      32.562  22.295 -21.680  0.00  0.00     0.129 A 
ATOM      2  C   UNL d   1      32.657  21.588 -22.097  0.00  0.00     0.040 A 
ATOM      3  C   UNL d   1      32.584  22.287 -20.859  0.00  0.00     0.107 A 
ATOM      4  C   UNL d   1      32.699  21.586 -20.448  0.00  0.00     0.034 A 
ATOM      5  C   UNL d   1      32.772  20.879 -21.690  0.00  0.00     0.101 A 
ATOM      6  C   UNL d   1      32.793  20.879 -20.865  0.00  0.00     0.059 A 
ATOM      7 BR   UNL d   1      32.910  20.164 -20.461  0.00  0.00    -0.047 Br
ENDROOT
BRANCH   1   8
ATOM      8  S   UNL d   1      32.448  22.996 -22.092  0.00  0.00     0.287 S 
ATOM      9  O   UNL d   1      33.241  23.180 -22.022  0.00  0.00    -0.198 OA
ATOM     10  O   UNL d   1      31.646  22.814 -22.164  0.00  0.00    -0.198 OA
BRANCH   8  11
ATOM     11  N   UNL d   1      32.325  23.698 -22.506  0.00  0.00    -0.157 NA
BRANCH  11  12
ATOM     12  C   UNL d   1      32.360  23.700 -23.331  0.00  0.00     0.113 A 
ATOM     13  C   UNL d   1      33.085  23.699 -23.711  0.00  0.00     0.119 A 
ATOM     14  N   UNL d   1      33.119  23.701 -24.535  0.00  0.00    -0.241 NA
ATOM     15  C   UNL d   1      32.418  23.702 -24.983  0.00  0.00     0.099 A 
ATOM     16  C   UNL d   1      31.689  23.702 -24.592  0.00  0.00     0.022 A 
ATOM     17  C   UNL d   1      31.655  23.701 -23.767  0.00  0.00     0.023 A 
ENDBRANCH  11  12
ENDBRANCH   8  11
ENDBRANCH   1   8
BRANCH   3  18
ATOM     18  O   UNL d   1      32.490  22.995 -20.442  0.00  0.00    -0.327 OA
ATOM     19  C   UNL d   1      32.744  23.050 -19.659  0.00  0.00     0.181 C 
ENDBRANCH   3  18
BRANCH   5  20
ATOM     20  O   UNL d   1      32.867  20.172 -22.107  0.00  0.00    -0.328 OA
ATOM     21  C   UNL d   1      33.150  20.184 -22.882  0.00  0.00     0.181 C 
ENDBRANCH   5  20
TORSDOF 5
ENDMDL
MODEL 4
REMARK VINA RESULT:      -0.2      1.953      3.599
REMARK  5 active torsions:
REMARK  status: ('A' for Active; 'I' for Inactive)
REMARK    1  A    between atoms: C_2  and  S_1 
REMARK    2  A    between atoms: N_4  and  S_1 
REMARK    3  A    between atoms: C_11  and  N_4 
REMARK    4  A    between atoms: O_14  and  C_5 
REMARK    5  A    between atoms: O_15  and  C_7 
ROOT
ATOM      1  C   UNL d   1      31.939  17.099 -23.905  0.00  0.00     0.129 A 
ATOM      2  C   UNL d   1      31.847  17.887 -24.134  0.00  0.00     0.040 A 
ATOM      3  C   UNL d   1      32.463  16.910 -23.303  0.00  0.00     0.107 A 
ATOM      4  C   UNL d   1      32.898  17.494 -22.924  0.00  0.00     0.034 A 
ATOM      5  C   UNL d   1      32.281  18.480 -23.758  0.00  0.00     0.101 A 
ATOM      6  C   UNL d   1      32.807  18.283 -23.153  0.00  0.00     0.059 A 
ATOM      7 BR   UNL d   1      33.240  18.883 -22.779  0.00  0.00    -0.047 Br
ENDROOT
BRANCH   1   8
ATOM      8  S   UNL d   1      31.504  16.514 -24.283  0.00  0.00     0.287 S 
ATOM      9  O   UNL d   1      32.065  16.463 -24.875  0.00  0.00    -0.198 OA
ATOM     10  O   UNL d   1      30.934  16.563 -23.688  0.00  0.00    -0.198 OA
BRANCH   8  11
ATOM     11  N   UNL d   1      31.061  15.927 -24.658  0.00  0.00    -0.157 NA
BRANCH  11  12
ATOM     12  C   UNL d   1      30.238  15.926 -24.588  0.00  0.00     0.113 A 
ATOM     13  C   UNL d   1      29.875  15.455 -24.027  0.00  0.00     0.119 A 
ATOM     14  N   UNL d   1      29.053  15.455 -23.958  0.00  0.00    -0.241 NA
ATOM     15  C   UNL d   1      28.591  15.933 -24.458  0.00  0.00     0.099 A 
ATOM     16  C   UNL d   1      28.966  16.406 -25.023  0.00  0.00     0.022 A 
ATOM     17  C   UNL d   1      29.788  16.407 -25.092  0.00  0.00     0.023 A 
ENDBRANCH  11  12
ENDBRANCH   8  11
ENDBRANCH   1   8
BRANCH   3  18
ATOM     18  O   UNL d   1      32.555  16.120 -23.074  0.00  0.00    -0.327 OA
ATOM     19  C   UNL d   1      33.188  15.901 -22.593  0.00  0.00     0.181 C 
ENDBRANCH   3  18
BRANCH   5  20
ATOM     20  O   UNL d   1      32.190  19.269 -23.987  0.00  0.00    -0.328 OA
ATOM     21  C   UNL d   1      32.482  19.525 -24.715  0.00  0.00     0.181 C 
ENDBRANCH   5  20
TORSDOF 5
ENDMDL
MODEL 5
REMARK VINA RESULT:       0.3      1.495      2.571
REMARK  5 active torsions:
REMARK  status: ('A' for Active; 'I' for Inactive)
REMARK    1  A    between atoms: C_2  and  S_1 
REMARK    2  A    between atoms: N_4  and  S_1 
REMARK    3  A    between atoms: C_11  and  N_4 
REMARK    4  A    between atoms: O_14  and  C_5 
REMARK    5  A    between atoms: O_15  and  C_7 
ROOT
ATOM      1  C   UNL d   1      30.006  16.775 -24.252  0.00  0.00     0.129 A 
ATOM      2  C   UNL d   1      29.951  16.203 -23.658  0.00  0.00     0.040 A 
ATOM      3  C   UNL d   1      29.329  17.166 -24.502  0.00  0.00     0.107 A 
ATOM      4  C   UNL d   1      28.598  16.995 -24.170  0.00  0.00     0.034 A 
ATOM      5  C   UNL d   1      29.219  16.026 -23.320  0.00  0.00     0.101 A 
ATOM      6  C   UNL d   1      28.543  16.423 -23.576  0.00  0.00     0.059 A 
ATOM      7 BR   UNL d   1      27.810  16.241 -23.232  0.00  0.00    -0.047 Br
ENDROOT
BRANCH   1   8
ATOM      8  S   UNL d   1      30.737  16.945 -24.583  0.00  0.00     0.287 S 
ATOM      9  O   UNL d   1      30.668  16.309 -25.092  0.00  0.00    -0.198 OA
ATOM     10  O   UNL d   1      30.812  17.588 -24.072  0.00  0.00    -0.198 OA
BRANCH   8  11
ATOM     11  N   UNL d   1      31.473  17.123 -24.912  0.00  0.00    -0.157 NA
BRANCH  11  12
ATOM     12  C   UNL d   1      32.064  17.455 -24.441  0.00  0.00     0.113 A 
ATOM     13  C   UNL d   1      32.610  16.975 -24.067  0.00  0.00     0.119 A 
ATOM     14  N   UNL d   1      33.199  17.308 -23.596  0.00  0.00    -0.241 NA
ATOM     15  C   UNL d   1      33.241  18.133 -23.500  0.00  0.00     0.099 A 
ATOM     16  C   UNL d   1      32.686  18.612 -23.881  0.00  0.00     0.022 A 
ATOM     17  C   UNL d   1      32.096  18.279 -24.352  0.00  0.00     0.023 A 
ENDBRANCH  11  12
ENDBRANCH   8  11
ENDBRANCH   1   8
BRANCH   3  18
ATOM     18  O   UNL d   1      29.384  17.738 -25.096  0.00  0.00    -0.327 OA
ATOM     19  C   UNL d   1      28.874  18.387 -25.093  0.00  0.00     0.181 C 
ENDBRANCH   3  18
BRANCH   5  20
ATOM     20  O   UNL d   1      29.164  15.454 -22.726  0.00  0.00    -0.328 OA
ATOM     21  C   UNL d   1      29.137  15.682 -21.934  0.00  0.00     0.181 C 
ENDBRANCH   5  20
TORSDOF 5
ENDMDL
MODEL 6
REMARK VINA RESULT:       0.5      2.077      4.089
REMARK  5 active torsions:
REMARK  status: ('A' for Active; 'I' for Inactive)
REMARK    1  A    between atoms: C_2  and  S_1 
REMARK    2  A    between atoms: N_4  and  S_1 
REMARK    3  A    between atoms: C_11  and  N_4 
REMARK    4  A    between atoms: O_14  and  C_5 
REMARK    5  A    between atoms: O_15  and  C_7 
ROOT
ATOM      1  C   UNL d   1      32.675  19.079 -23.282  0.00  0.00     0.129 A 
ATOM      2  C   UNL d   1      32.724  19.041 -22.458  0.00  0.00     0.040 A 
ATOM      3  C   UNL d   1      32.815  19.792 -23.664  0.00  0.00     0.107 A 
ATOM      4  C   UNL d   1      33.003  20.468 -23.239  0.00  0.00     0.034 A 
ATOM      5  C   UNL d   1      32.913  19.717 -22.024  0.00  0.00     0.101 A 
ATOM      6  C   UNL d   1      33.052  20.431 -22.415  0.00  0.00     0.059 A 
ATOM      7 BR   UNL d   1      33.241  21.106 -21.972  0.00  0.00    -0.047 Br
ENDROOT
BRANCH   1   8
ATOM      8  S   UNL d   1      32.487  18.403 -23.708  0.00  0.00     0.287 S 
ATOM      9  O   UNL d   1      33.241  18.108 -23.595  0.00  0.00    -0.198 OA
ATOM     10  O   UNL d   1      31.725  18.696 -23.824  0.00  0.00    -0.198 OA
BRANCH   8  11
ATOM     11  N   UNL d   1      32.291  17.726 -24.137  0.00  0.00    -0.157 NA
BRANCH  11  12
ATOM     12  C   UNL d   1      32.236  16.998 -23.752  0.00  0.00     0.113 A 
ATOM     13  C   UNL d   1      32.912  16.625 -23.480  0.00  0.00     0.119 A 
ATOM     14  N   UNL d   1      32.856  15.898 -23.095  0.00  0.00    -0.241 NA
ATOM     15  C   UNL d   1      32.114  15.540 -22.982  0.00  0.00     0.099 A 
ATOM     16  C   UNL d   1      31.435  15.923 -23.260  0.00  0.00     0.022 A 
ATOM     17  C   UNL d   1      31.491  16.650 -23.645  0.00  0.00     0.023 A 
ENDBRANCH  11  12
ENDBRANCH   8  11
ENDBRANCH   1   8
BRANCH   3  18
ATOM     18  O   UNL d   1      32.766  19.829 -24.489  0.00  0.00    -0.327 OA
ATOM     19  C   UNL d   1      32.867  20.551 -24.876  0.00  0.00     0.181 C 
ENDBRANCH   3  18
BRANCH   5  20
ATOM     20  O   UNL d   1      32.962  19.680 -21.199  0.00  0.00    -0.328 OA
ATOM     21  C   UNL d   1      33.207  18.983 -20.831  0.00  0.00     0.181 C 
ENDBRANCH   5  20
TORSDOF 5
ENDMDL
