MODEL 1
REMARK VINA RESULT:      30.3      0.000      0.000
REMARK  3 active torsions:
REMARK  status: ('A' for Active; 'I' for Inactive)
REMARK    1  A    between atoms: C_4  and  C_1 
REMARK    2  A    between atoms: C_7  and  C_4 
REMARK    3  A    between atoms: C_10  and  C_7 
ROOT
ATOM      1  C   UNL d   1     -51.569  25.893  33.325  0.00  0.00     0.062 A 
ATOM      2  C   UNL d   1     -52.003  26.595  33.329  0.00  0.00     0.279 A 
ATOM      3  N   UNL d   1     -51.472  27.223  33.344  0.00  0.00    -0.208 NA
ATOM      4  C   UNL d   1     -50.771  26.091  33.337  0.00  0.00     0.022 A 
ATOM      5  C   UNL d   1     -50.709  26.908  33.349  0.00  0.00     0.085 A 
ATOM      6  O   UNL d   1     -52.825  26.659  33.320  0.00  0.00    -0.265 OA
ATOM      7  C   UNL d   1     -50.092  25.619  33.339  0.00  0.00     0.002 A 
ATOM      8  C   UNL d   1     -49.958  27.263  33.363  0.00  0.00     0.019 A 
ATOM      9  C   UNL d   1     -49.344  25.974  33.353  0.00  0.00     0.000 A 
ATOM     10  C   UNL d   1     -49.285  26.797  33.365  0.00  0.00     0.002 A 
ENDROOT
BRANCH   1  11
ATOM     11  C   UNL d   1     -51.881  25.132  33.310  0.00  0.00     0.047 C 
BRANCH  11  12
ATOM     12  C   UNL d   1     -52.698  25.193  33.424  0.00  0.00     0.196 C 
ATOM     13  O   UNL d   1     -53.076  25.913  33.312  0.00  0.00    -0.287 OA
BRANCH  12  14
ATOM     14  C   UNL d   1     -53.128  24.527  33.651  0.00  0.00     0.039 A 
ATOM     15  C   UNL d   1     -52.737  23.855  33.928  0.00  0.00     0.003 A 
ATOM     16  C   UNL d   1     -53.159  23.191  34.155  0.00  0.00     0.000 A 
ATOM     17  C   UNL d   1     -53.987  23.189  34.107  0.00  0.00     0.000 A 
ATOM     18  C   UNL d   1     -54.378  23.860  33.831  0.00  0.00     0.000 A 
ATOM     19  C   UNL d   1     -53.955  24.528  33.602  0.00  0.00     0.003 A 
ENDBRANCH  12  14
ENDBRANCH  11  12
ENDBRANCH   1  11
TORSDOF 3
ENDMDL
MODEL 2
REMARK VINA RESULT:      31.6      1.150      1.506
REMARK  3 active torsions:
REMARK  status: ('A' for Active; 'I' for Inactive)
REMARK    1  A    between atoms: C_4  and  C_1 
REMARK    2  A    between atoms: C_7  and  C_4 
REMARK    3  A    between atoms: C_10  and  C_7 
ROOT
ATOM      1  C   UNL d   1     -50.967  25.888  33.360  0.00  0.00     0.062 A 
ATOM      2  C   UNL d   1     -50.303  25.400  33.414  0.00  0.00     0.279 A 
ATOM      3  N   UNL d   1     -49.637  25.881  33.450  0.00  0.00    -0.208 NA
ATOM      4  C   UNL d   1     -50.707  26.667  33.363  0.00  0.00     0.022 A 
ATOM      5  C   UNL d   1     -49.890  26.667  33.418  0.00  0.00     0.085 A 
ATOM      6  O   UNL d   1     -50.303  24.576  33.429  0.00  0.00    -0.265 OA
ATOM      7  C   UNL d   1     -51.124  27.380  33.321  0.00  0.00     0.002 A 
ATOM      8  C   UNL d   1     -49.478  27.387  33.432  0.00  0.00     0.019 A 
ATOM      9  C   UNL d   1     -50.712  28.100  33.336  0.00  0.00     0.000 A 
ATOM     10  C   UNL d   1     -49.889  28.095  33.391  0.00  0.00     0.002 A 
ENDROOT
BRANCH   1  11
ATOM     11  C   UNL d   1     -51.749  25.635  33.312  0.00  0.00     0.047 C 
BRANCH  11  12
ATOM     12  C   UNL d   1     -51.889  25.130  33.952  0.00  0.00     0.196 C 
ATOM     13  O   UNL d   1     -51.441  25.198  34.636  0.00  0.00    -0.287 OA
BRANCH  12  14
ATOM     14  C   UNL d   1     -52.481  24.558  33.897  0.00  0.00     0.039 A 
ATOM     15  C   UNL d   1     -52.287  23.777  33.714  0.00  0.00     0.003 A 
ATOM     16  C   UNL d   1     -52.871  23.205  33.658  0.00  0.00     0.000 A 
ATOM     17  C   UNL d   1     -53.664  23.408  33.785  0.00  0.00     0.000 A 
ATOM     18  C   UNL d   1     -53.859  24.189  33.968  0.00  0.00     0.000 A 
ATOM     19  C   UNL d   1     -53.273  24.764  34.025  0.00  0.00     0.003 A 
ENDBRANCH  12  14
ENDBRANCH  11  12
ENDBRANCH   1  11
TORSDOF 3
ENDMDL
