MODEL 1
REMARK VINA RESULT:      -2.7      0.000      0.000
REMARK  5 active torsions:
REMARK  status: ('A' for Active; 'I' for Inactive)
REMARK    1  A    between atoms: N_8  and  S_1 
REMARK    2  A    between atoms: C_18  and  S_1 
REMARK    3  A    between atoms: C_13  and  C_3 
REMARK    4  A    between atoms: C_5  and  C_11 
REMARK    5  A    between atoms: C_17  and  N_8 
ROOT
ATOM      1  N   UNL d   1      58.880   0.365  30.642  0.00  0.00    -0.246 NA
ATOM      2  C   UNL d   1      58.798  -1.099  29.877  0.00  0.00     0.003 A 
ATOM      3  C   UNL d   1      59.414  -0.575  29.707  0.00  0.00     0.018 A 
ATOM      4  C   UNL d   1      58.263  -0.157  30.813  0.00  0.00     0.081 A 
ATOM      5  C   UNL d   1      58.223  -0.887  30.432  0.00  0.00     0.019 A 
ATOM      6  C   UNL d   1      59.455   0.156  30.089  0.00  0.00     0.081 A 
ATOM      7  C   UNL d   1      59.989  -0.787  29.153  0.00  0.00     0.002 A 
ATOM      8  C   UNL d   1      60.070   0.677  29.917  0.00  0.00     0.019 A 
ATOM      9  C   UNL d   1      60.605  -0.263  28.983  0.00  0.00     0.000 A 
ATOM     10  C   UNL d   1      60.646   0.468  29.364  0.00  0.00     0.002 A 
ATOM     11  C   UNL d   1      61.133  -0.487  28.457  0.00  0.00     0.000 C 
ENDROOT
BRANCH   4  12
ATOM     12  C   UNL d   1      57.688   0.053  31.367  0.00  0.00     0.018 A 
ATOM     13  C   UNL d   1      56.968   0.364  31.115  0.00  0.00     0.003 A 
ATOM     14  C   UNL d   1      56.393   0.573  31.668  0.00  0.00     0.020 A 
ATOM     15  C   UNL d   1      56.540   0.472  32.474  0.00  0.00     0.094 A 
ATOM     16  C   UNL d   1      57.261   0.161  32.726  0.00  0.00     0.020 A 
ATOM     17  C   UNL d   1      57.836  -0.048  32.172  0.00  0.00     0.003 A 
BRANCH  15  18
ATOM     18  N   UNL d   1      55.965   0.682  33.027  0.00  0.00    -0.158 NA
BRANCH  18  19
ATOM     19  S   UNL d   1      55.491   0.100  33.371  0.00  0.00     0.286 S 
ATOM     20  O   UNL d   1      55.048  -0.444  33.694  0.00  0.00    -0.198 OA
ATOM     21  O   UNL d   1      55.562  -0.361  32.689  0.00  0.00    -0.198 OA
BRANCH  19  22
ATOM     22  C   UNL d   1      55.421   0.561  34.052  0.00  0.00     0.117 C 
ATOM     23  C   UNL d   1      54.710   0.329  34.401  0.00  0.00     0.014 C 
ENDBRANCH  19  22
ENDBRANCH  18  19
ENDBRANCH  15  18
ENDBRANCH   4  12
BRANCH   2  24
ATOM     24  C   UNL d   1      58.758  -1.820  29.501  0.00  0.00     0.000 A 
ATOM     25  C   UNL d   1      58.274  -1.912  28.841  0.00  0.00     0.000 A 
ATOM     26  C   UNL d   1      58.234  -2.645  28.458  0.00  0.00     0.000 A 
ATOM     27  C   UNL d   1      58.677  -3.282  28.737  0.00  0.00     0.000 A 
ATOM     28  C   UNL d   1      59.162  -3.188  29.400  0.00  0.00     0.000 A 
ATOM     29  C   UNL d   1      59.202  -2.455  29.782  0.00  0.00     0.000 A 
ENDBRANCH   2  24
TORSDOF 5
ENDMDL
MODEL 2
REMARK VINA RESULT:      -2.7      0.838      2.200
REMARK  5 active torsions:
REMARK  status: ('A' for Active; 'I' for Inactive)
REMARK    1  A    between atoms: N_8  and  S_1 
REMARK    2  A    between atoms: C_18  and  S_1 
REMARK    3  A    between atoms: C_13  and  C_3 
REMARK    4  A    between atoms: C_5  and  C_11 
REMARK    5  A    between atoms: C_17  and  N_8 
ROOT
ATOM      1  N   UNL d   1      57.845  -1.617  30.525  0.00  0.00    -0.246 NA
ATOM      2  C   UNL d   1      59.029  -0.694  29.831  0.00  0.00     0.003 A 
ATOM      3  C   UNL d   1      58.973  -1.500  29.655  0.00  0.00     0.018 A 
ATOM      4  C   UNL d   1      57.899  -0.812  30.703  0.00  0.00     0.081 A 
ATOM      5  C   UNL d   1      58.490  -0.352  30.356  0.00  0.00     0.019 A 
ATOM      6  C   UNL d   1      58.382  -1.960  30.001  0.00  0.00     0.081 A 
ATOM      7  C   UNL d   1      59.512  -1.841  29.129  0.00  0.00     0.002 A 
ATOM      8  C   UNL d   1      58.328  -2.764  29.824  0.00  0.00     0.019 A 
ATOM      9  C   UNL d   1      59.455  -2.647  28.953  0.00  0.00     0.000 A 
ATOM     10  C   UNL d   1      58.865  -3.107  29.300  0.00  0.00     0.002 A 
ATOM     11  C   UNL d   1      59.975  -2.943  28.455  0.00  0.00     0.000 C 
ENDROOT
BRANCH   4  12
ATOM     12  C   UNL d   1      57.363  -0.470  31.227  0.00  0.00     0.018 A 
ATOM     13  C   UNL d   1      57.397   0.339  31.383  0.00  0.00     0.003 A 
ATOM     14  C   UNL d   1      56.860   0.682  31.907  0.00  0.00     0.020 A 
ATOM     15  C   UNL d   1      56.288   0.214  32.275  0.00  0.00     0.094 A 
ATOM     16  C   UNL d   1      56.254  -0.594  32.120  0.00  0.00     0.020 A 
ATOM     17  C   UNL d   1      56.791  -0.937  31.595  0.00  0.00     0.003 A 
BRANCH  15  18
ATOM     18  N   UNL d   1      55.751   0.557  32.799  0.00  0.00    -0.158 NA
BRANCH  18  19
ATOM     19  S   UNL d   1      55.539   0.161  33.491  0.00  0.00     0.286 S 
ATOM     20  O   UNL d   1      55.340  -0.210  34.140  0.00  0.00    -0.198 OA
ATOM     21  O   UNL d   1      54.992  -0.290  33.065  0.00  0.00    -0.198 OA
BRANCH  19  22
ATOM     22  C   UNL d   1      56.084   0.611  33.916  0.00  0.00     0.117 C 
ATOM     23  C   UNL d   1      55.822   0.593  34.698  0.00  0.00     0.014 C 
ENDBRANCH  19  22
ENDBRANCH  18  19
ENDBRANCH  15  18
ENDBRANCH   4  12
BRANCH   2  24
ATOM     24  C   UNL d   1      59.612  -0.240  29.489  0.00  0.00     0.000 A 
ATOM     25  C   UNL d   1      60.361  -0.209  29.829  0.00  0.00     0.000 A 
ATOM     26  C   UNL d   1      60.953   0.253  29.482  0.00  0.00     0.000 A 
ATOM     27  C   UNL d   1      60.794   0.682  28.795  0.00  0.00     0.000 A 
ATOM     28  C   UNL d   1      60.042   0.649  28.455  0.00  0.00     0.000 A 
ATOM     29  C   UNL d   1      59.450   0.188  28.803  0.00  0.00     0.000 A 
ENDBRANCH   2  24
TORSDOF 5
ENDMDL
