MODEL 1
REMARK VINA RESULT:      28.8      0.000      0.000
REMARK  2 active torsions:
REMARK  status: ('A' for Active; 'I' for Inactive)
REMARK    1  A    between atoms: C_3  and  C_1 
REMARK       I    between atoms: N_6  and  C_3 
REMARK    2  A    between atoms: C_16  and  N_7 
ROOT
ATOM      1  C   UNL d   1      44.970 -15.911  44.376  0.00  0.00     0.270 C 
ATOM      2  N   UNL d   1      45.246 -16.554  43.937  0.00  0.00    -0.269 N 
ATOM      3  N   UNL d   1      45.802 -17.827  43.056  0.00  0.00    -0.301 N 
ATOM      4  O   UNL d   1      44.389 -16.026  44.952  0.00  0.00    -0.266 OA
ATOM      5  C   UNL d   1      45.826 -16.433  43.363  0.00  0.00     0.102 A 
ATOM      6  C   UNL d   1      44.947 -17.303  44.070  0.00  0.00     0.102 A 
ATOM      7  C   UNL d   1      45.225 -17.943  43.629  0.00  0.00     0.100 A 
ATOM      8  C   UNL d   1      46.105 -17.069  42.922  0.00  0.00     0.100 A 
ENDROOT
BRANCH   1   9
ATOM      9  C   UNL d   1      45.275 -15.156  44.239  0.00  0.00     0.120 A 
ATOM     10  C   UNL d   1      46.037 -14.963  44.486  0.00  0.00     0.305 A 
ATOM     11  O   UNL d   1      46.346 -14.199  44.347  0.00  0.00    -0.273 OA
ATOM     12  O   UNL d   1      46.497 -15.530  44.872  0.00  0.00    -0.259 OA
ATOM     13  C   UNL d   1      45.881 -13.633  43.959  0.00  0.00     0.103 A 
ATOM     14  C   UNL d   1      45.118 -13.821  43.711  0.00  0.00     0.023 A 
ATOM     15  C   UNL d   1      46.186 -12.878  43.822  0.00  0.00     0.025 A 
ATOM     16  C   UNL d   1      44.808 -14.583  43.848  0.00  0.00     0.012 A 
ATOM     17  C   UNL d   1      44.658 -13.254  43.325  0.00  0.00     0.002 A 
ATOM     18  C   UNL d   1      44.963 -12.503  43.190  0.00  0.00     0.000 A 
ATOM     19  C   UNL d   1      45.726 -12.315  43.438  0.00  0.00     0.002 A 
ENDBRANCH   1   9
BRANCH   3  20
ATOM     20  C   UNL d   1      46.084 -18.461  42.613  0.00  0.00     0.064 A 
ATOM     21  C   UNL d   1      46.354 -18.346  41.841  0.00  0.00     0.018 A 
ATOM     22  C   UNL d   1      46.636 -18.984  41.400  0.00  0.00     0.002 A 
ATOM     23  C   UNL d   1      46.646 -19.738  41.734  0.00  0.00     0.000 A 
ATOM     24  C   UNL d   1      46.375 -19.855  42.507  0.00  0.00     0.002 A 
ATOM     25  C   UNL d   1      46.095 -19.215  42.944  0.00  0.00     0.018 A 
ENDBRANCH   3  20
TORSDOF 2
ENDMDL
