MODEL 1
REMARK VINA RESULT:      -4.9      0.000      0.000
REMARK  6 active torsions:
REMARK  status: ('A' for Active; 'I' for Inactive)
REMARK    1  A    between atoms: N_5  and  C_1 
REMARK    2  A    between atoms: S_2  and  C_11 
REMARK    3  A    between atoms: N_12  and  S_2 
REMARK    4  A    between atoms: O_8  and  C_4 
REMARK    5  A    between atoms: C_9  and  O_8 
REMARK    6  A    between atoms: C_16  and  C_9 
ROOT
ATOM      1  C   UNL d   1      57.556  -0.064  30.284  0.00  0.00     0.300 C 
ATOM      2  O   UNL d   1      57.508   0.591  29.797  0.00  0.00    -0.259 OA
ENDROOT
BRANCH   1   3
ATOM      3  O   UNL d   1      57.940  -0.750  30.028  0.00  0.00    -0.271 OA
BRANCH   3   4
ATOM      4  C   UNL d   1      58.696  -0.712  29.703  0.00  0.00     0.132 A 
ATOM      5  C   UNL d   1      58.991  -1.340  29.256  0.00  0.00     0.207 A 
ATOM      6  C   UNL d   1      59.748  -1.301  28.930  0.00  0.00     0.303 A 
ATOM      7  N   UNL d   1      60.211  -0.634  29.050  0.00  0.00    -0.206 NA
ATOM      8  O   UNL d   1      60.038  -1.934  28.484  0.00  0.00    -0.263 OA
ATOM      9  C   UNL d   1      59.923  -0.009  29.492  0.00  0.00     0.087 A 
ATOM     10  C   UNL d   1      59.166  -0.048  29.818  0.00  0.00     0.046 A 
ATOM     11  C   UNL d   1      60.391   0.671  29.616  0.00  0.00     0.021 C 
BRANCH   5  12
ATOM     12  N   UNL d   1      58.519  -2.012  29.137  0.00  0.00    -0.107 N 
ATOM     13  O   UNL d   1      58.512  -2.609  29.708  0.00  0.00    -0.531 OA
ATOM     14  O   UNL d   1      58.063  -2.083  28.455  0.00  0.00    -0.531 OA
ENDBRANCH   5  12
ENDBRANCH   3   4
ENDBRANCH   1   3
BRANCH   1  15
ATOM     15  C   UNL d   1      57.216  -0.041  31.041  0.00  0.00     0.064 A 
ATOM     16  C   UNL d   1      56.985   0.671  31.358  0.00  0.00     0.006 A 
ATOM     17  C   UNL d   1      56.647   0.682  32.114  0.00  0.00     0.013 A 
ATOM     18  C   UNL d   1      56.552  -0.015  32.527  0.00  0.00     0.104 A 
ATOM     19  C   UNL d   1      56.784  -0.729  32.208  0.00  0.00     0.013 A 
ATOM     20  C   UNL d   1      57.121  -0.747  31.457  0.00  0.00     0.006 A 
BRANCH  18  21
ATOM     21  S   UNL d   1      56.213  -0.007  33.285  0.00  0.00     0.271 S 
ATOM     22  O   UNL d   1      56.049   0.114  34.078  0.00  0.00    -0.200 OA
ATOM     23  O   UNL d   1      56.913   0.430  33.355  0.00  0.00    -0.200 OA
BRANCH  21  24
ATOM     24  N   UNL d   1      55.507  -0.396  33.405  0.00  0.00    -0.226 N 
ATOM     25  C   UNL d   1      55.420  -1.175  33.176  0.00  0.00     0.111 C 
ATOM     26  C   UNL d   1      54.879   0.010  33.762  0.00  0.00     0.111 C 
ENDBRANCH  21  24
ENDBRANCH  18  21
ENDBRANCH   1  15
TORSDOF 6
ENDMDL
MODEL 2
REMARK VINA RESULT:      -2.5      1.590      4.952
REMARK  6 active torsions:
REMARK  status: ('A' for Active; 'I' for Inactive)
REMARK    1  A    between atoms: N_5  and  C_1 
REMARK    2  A    between atoms: S_2  and  C_11 
REMARK    3  A    between atoms: N_12  and  S_2 
REMARK    4  A    between atoms: O_8  and  C_4 
REMARK    5  A    between atoms: C_9  and  O_8 
REMARK    6  A    between atoms: C_16  and  C_9 
ROOT
ATOM      1  C   UNL d   1      56.973  -0.602  31.983  0.00  0.00     0.300 C 
ATOM      2  O   UNL d   1      56.961  -1.331  32.351  0.00  0.00    -0.259 OA
ENDROOT
BRANCH   1   3
ATOM      3  O   UNL d   1      56.553   0.036  32.300  0.00  0.00    -0.271 OA
BRANCH   3   4
ATOM      4  C   UNL d   1      56.608   0.218  33.102  0.00  0.00     0.132 A 
ATOM      5  C   UNL d   1      55.928   0.267  33.567  0.00  0.00     0.207 A 
ATOM      6  C   UNL d   1      55.984   0.449  34.369  0.00  0.00     0.303 A 
ATOM      7  N   UNL d   1      56.719   0.583  34.708  0.00  0.00    -0.206 NA
ATOM      8  O   UNL d   1      55.298   0.496  34.831  0.00  0.00    -0.263 OA
ATOM      9  C   UNL d   1      57.396   0.536  34.252  0.00  0.00     0.087 A 
ATOM     10  C   UNL d   1      57.341   0.354  33.449  0.00  0.00     0.046 A 
ATOM     11  C   UNL d   1      58.145   0.672  34.593  0.00  0.00     0.021 C 
BRANCH   5  12
ATOM     12  N   UNL d   1      55.187   0.130  33.220  0.00  0.00    -0.107 N 
ATOM     13  O   UNL d   1      54.770  -0.557  33.409  0.00  0.00    -0.531 OA
ATOM     14  O   UNL d   1      54.869   0.677  32.692  0.00  0.00    -0.531 OA
ENDBRANCH   5  12
ENDBRANCH   3   4
ENDBRANCH   1   3
BRANCH   1  15
ATOM     15  C   UNL d   1      57.410  -0.500  31.285  0.00  0.00     0.064 A 
ATOM     16  C   UNL d   1      57.506  -1.124  30.774  0.00  0.00     0.006 A 
ATOM     17  C   UNL d   1      57.945  -1.011  30.081  0.00  0.00     0.013 A 
ATOM     18  C   UNL d   1      58.272  -0.280  29.920  0.00  0.00     0.104 A 
ATOM     19  C   UNL d   1      58.175   0.346  30.435  0.00  0.00     0.013 A 
ATOM     20  C   UNL d   1      57.740   0.240  31.125  0.00  0.00     0.006 A 
BRANCH  18  21
ATOM     21  S   UNL d   1      58.712  -0.164  29.226  0.00  0.00     0.271 S 
ATOM     22  O   UNL d   1      58.958  -0.005  28.462  0.00  0.00    -0.200 OA
ATOM     23  O   UNL d   1      57.925  -0.013  29.014  0.00  0.00    -0.200 OA
BRANCH  21  24
ATOM     24  N   UNL d   1      59.520  -0.270  29.250  0.00  0.00    -0.226 N 
ATOM     25  C   UNL d   1      60.002   0.301  29.581  0.00  0.00     0.111 C 
ATOM     26  C   UNL d   1      59.844  -0.963  28.934  0.00  0.00     0.111 C 
ENDBRANCH  21  24
ENDBRANCH  18  21
ENDBRANCH   1  15
TORSDOF 6
ENDMDL
MODEL 3
REMARK VINA RESULT:      -2.0      1.557      5.360
REMARK  6 active torsions:
REMARK  status: ('A' for Active; 'I' for Inactive)
REMARK    1  A    between atoms: N_5  and  C_1 
REMARK    2  A    between atoms: S_2  and  C_11 
REMARK    3  A    between atoms: N_12  and  S_2 
REMARK    4  A    between atoms: O_8  and  C_4 
REMARK    5  A    between atoms: C_9  and  O_8 
REMARK    6  A    between atoms: C_16  and  C_9 
ROOT
ATOM      1  C   UNL d   1      56.318  -0.233  32.596  0.00  0.00     0.300 C 
ATOM      2  O   UNL d   1      55.740  -0.811  32.598  0.00  0.00    -0.259 OA
ENDROOT
BRANCH   1   3
ATOM      3  O   UNL d   1      56.447   0.236  33.265  0.00  0.00    -0.271 OA
BRANCH   3   4
ATOM      4  C   UNL d   1      55.836   0.382  33.799  0.00  0.00     0.132 A 
ATOM      5  C   UNL d   1      55.997   0.459  34.604  0.00  0.00     0.207 A 
ATOM      6  C   UNL d   1      55.386   0.605  35.139  0.00  0.00     0.303 A 
ATOM      7  N   UNL d   1      54.614   0.674  34.869  0.00  0.00    -0.206 NA
ATOM      8  O   UNL d   1      55.553   0.682  35.946  0.00  0.00    -0.263 OA
ATOM      9  C   UNL d   1      54.450   0.598  34.072  0.00  0.00     0.087 A 
ATOM     10  C   UNL d   1      55.061   0.452  33.537  0.00  0.00     0.046 A 
ATOM     11  C   UNL d   1      53.666   0.667  33.794  0.00  0.00     0.021 C 
BRANCH   5  12
ATOM     12  N   UNL d   1      56.779   0.389  34.873  0.00  0.00    -0.107 N 
ATOM     13  O   UNL d   1      57.396   0.681  34.409  0.00  0.00    -0.531 OA
ATOM     14  O   UNL d   1      56.937   0.031  35.598  0.00  0.00    -0.531 OA
ENDBRANCH   5  12
ENDBRANCH   3   4
ENDBRANCH   1   3
BRANCH   1  15
ATOM     15  C   UNL d   1      56.780  -0.116  31.916  0.00  0.00     0.064 A 
ATOM     16  C   UNL d   1      56.708   0.574  31.494  0.00  0.00     0.006 A 
ATOM     17  C   UNL d   1      57.174   0.680  30.818  0.00  0.00     0.013 A 
ATOM     18  C   UNL d   1      57.695   0.096  30.586  0.00  0.00     0.104 A 
ATOM     19  C   UNL d   1      57.766  -0.597  31.011  0.00  0.00     0.013 A 
ATOM     20  C   UNL d   1      57.305  -0.709  31.684  0.00  0.00     0.006 A 
BRANCH  18  21
ATOM     21  S   UNL d   1      58.163   0.199  29.908  0.00  0.00     0.271 S 
ATOM     22  O   UNL d   1      58.443   0.351  29.154  0.00  0.00    -0.200 OA
ATOM     23  O   UNL d   1      57.391   0.379  29.668  0.00  0.00    -0.200 OA
BRANCH  21  24
ATOM     24  N   UNL d   1      58.966   0.064  29.960  0.00  0.00    -0.226 N 
ATOM     25  C   UNL d   1      59.461   0.631  30.278  0.00  0.00     0.111 C 
ATOM     26  C   UNL d   1      59.271  -0.656  29.687  0.00  0.00     0.111 C 
ENDBRANCH  21  24
ENDBRANCH  18  21
ENDBRANCH   1  15
TORSDOF 6
ENDMDL
