MODEL 1
REMARK VINA RESULT:      37.3      0.000      0.000
REMARK  5 active torsions:
REMARK  status: ('A' for Active; 'I' for Inactive)
REMARK    1  A    between atoms: C_4  and  S_1 
REMARK    2  A    between atoms: N_5  and  S_1 
REMARK    3  A    between atoms: C_2  and  C_8 
REMARK       I    between atoms: N_3  and  C_2 
REMARK    4  A    between atoms: C_16  and  N_5 
REMARK    5  A    between atoms: C_17  and  N_5 
ROOT
ATOM      1  C   UNL d   1      58.180  49.346  50.450  0.00  0.00     0.104 A 
ATOM      2  C   UNL d   1      59.823  49.450  50.579  0.00  0.00     0.057 A 
ATOM      3  C   UNL d   1      58.663  49.089  49.827  0.00  0.00     0.013 A 
ATOM      4  C   UNL d   1      58.517  49.654  51.134  0.00  0.00     0.013 A 
ATOM      5  C   UNL d   1      59.481  49.140  49.892  0.00  0.00     0.005 A 
ATOM      6  C   UNL d   1      59.340  49.707  51.201  0.00  0.00     0.005 A 
ENDROOT
BRANCH   1   7
ATOM      7  S   UNL d   1      57.353  49.292  50.380  0.00  0.00     0.271 S 
ATOM      8  O   UNL d   1      57.159  49.542  51.213  0.00  0.00    -0.200 OA
ATOM      9  O   UNL d   1      57.484  49.020  49.485  0.00  0.00    -0.200 OA
BRANCH   7  10
ATOM     10  N   UNL d   1      56.537  49.239  50.312  0.00  0.00    -0.229 N 
BRANCH  10  11
ATOM     11  C   UNL d   1      56.206  48.848  49.662  0.00  0.00     0.092 C 
ATOM     12  C   UNL d   1      56.463  49.026  48.899  0.00  0.00     0.021 C 
ENDBRANCH  10  11
BRANCH  10  13
ATOM     13  C   UNL d   1      56.044  49.571  50.884  0.00  0.00     0.092 C 
ATOM     14  C   UNL d   1      56.124  49.340  51.673  0.00  0.00     0.021 C 
ENDBRANCH  10  13
ENDBRANCH   7  10
ENDBRANCH   1   7
BRANCH   2  15
ATOM     15  C   UNL d   1      60.648  49.499  50.638  0.00  0.00     0.265 C 
ATOM     16  N   UNL d   1      60.996  49.561  51.381  0.00  0.00    -0.272 N 
ATOM     17  C   UNL d   1      60.525  49.573  52.059  0.00  0.00     0.083 A 
ATOM     18  C   UNL d   1      61.816  49.610  51.447  0.00  0.00     0.083 A 
ATOM     19  C   UNL d   1      60.875  49.635  52.802  0.00  0.00     0.019 A 
ATOM     20  C   UNL d   1      61.693  49.684  52.868  0.00  0.00     0.003 A 
ATOM     21  C   UNL d   1      62.164  49.672  52.190  0.00  0.00     0.019 A 
ATOM     22  O   UNL d   1      61.115  49.486  49.958  0.00  0.00    -0.267 OA
ENDBRANCH   2  15
TORSDOF 5
ENDMDL
