MODEL 1
REMARK VINA RESULT:      55.1      0.000      0.000
REMARK  3 active torsions:
REMARK  status: ('A' for Active; 'I' for Inactive)
REMARK    1  A    between atoms: C_4  and  C_1 
REMARK    2  A    between atoms: C_5  and  C_6 
REMARK       I    between atoms: C_6  and  N_7 
REMARK    3  A    between atoms: N_7  and  C_8 
ROOT
ATOM      1  C   UNL d   1      46.143 -16.759  42.743  0.00  0.00     0.042 A 
ATOM      2  C   UNL d   1      45.657 -16.276  43.196  0.00  0.00     0.087 A 
ATOM      3  C   UNL d   1      46.644 -16.430  42.168  0.00  0.00     0.004 A 
ATOM      4  C   UNL d   1      45.665 -15.462  43.081  0.00  0.00     0.019 A 
ATOM      5  C   UNL d   1      46.646 -15.612  42.058  0.00  0.00     0.000 A 
ATOM      6  C   UNL d   1      46.156 -15.131  42.516  0.00  0.00     0.002 A 
ENDROOT
BRANCH   1   7
ATOM      7  C   UNL d   1      46.141 -17.577  42.853  0.00  0.00     0.112 A 
ATOM      8  N   UNL d   1      46.119 -18.022  43.536  0.00  0.00    -0.238 NA
ATOM      9  C   UNL d   1      46.128 -18.818  43.317  0.00  0.00     0.088 A 
ATOM     10  C   UNL d   1      46.114 -19.517  43.766  0.00  0.00     0.020 A 
ATOM     11  C   UNL d   1      46.154 -18.855  42.497  0.00  0.00     0.049 A 
ATOM     12  C   UNL d   1      46.127 -20.247  43.389  0.00  0.00     0.002 A 
ATOM     13  C   UNL d   1      46.154 -20.289  42.563  0.00  0.00     0.001 A 
ATOM     14  C   UNL d   1      46.168 -19.589  42.115  0.00  0.00     0.008 A 
ATOM     15  S   UNL d   1      46.163 -18.087  42.212  0.00  0.00    -0.066 SA
ENDBRANCH   1   7
BRANCH   2  16
ATOM     16  N   UNL d   1      45.161 -16.613  43.767  0.00  0.00    -0.206 NA
ATOM     17  C   UNL d   1      44.863 -16.141  44.387  0.00  0.00     0.304 C 
ATOM     18  O   UNL d   1      44.370 -16.477  44.955  0.00  0.00    -0.263 OA
BRANCH  17  19
ATOM     19  C   UNL d   1      45.058 -15.341  44.435  0.00  0.00     0.182 A 
ATOM     20  O   UNL d   1      44.623 -14.781  44.014  0.00  0.00    -0.296 OA
ATOM     21  C   UNL d   1      44.818 -13.981  44.062  0.00  0.00     0.150 A 
ATOM     22  C   UNL d   1      45.450 -13.741  44.532  0.00  0.00     0.149 A 
ATOM     23  O   UNL d   1      45.886 -14.302  44.953  0.00  0.00    -0.299 OA
ATOM     24  C   UNL d   1      45.690 -15.101  44.905  0.00  0.00     0.152 A 
ENDBRANCH  17  19
ENDBRANCH   2  16
TORSDOF 3
ENDMDL
MODEL 2
REMARK VINA RESULT:      56.7      2.774      4.033
REMARK  3 active torsions:
REMARK  status: ('A' for Active; 'I' for Inactive)
REMARK    1  A    between atoms: C_4  and  C_1 
REMARK    2  A    between atoms: C_5  and  C_6 
REMARK       I    between atoms: C_6  and  N_7 
REMARK    3  A    between atoms: N_7  and  C_8 
ROOT
ATOM      1  C   UNL d   1      46.497 -19.530  41.424  0.00  0.00     0.042 A 
ATOM      2  C   UNL d   1      46.588 -18.854  40.967  0.00  0.00     0.087 A 
ATOM      3  C   UNL d   1      46.440 -20.276  41.064  0.00  0.00     0.004 A 
ATOM      4  C   UNL d   1      46.622 -18.914  40.148  0.00  0.00     0.019 A 
ATOM      5  C   UNL d   1      46.475 -20.328  40.241  0.00  0.00     0.000 A 
ATOM      6  C   UNL d   1      46.566 -19.645  39.785  0.00  0.00     0.002 A 
ENDROOT
BRANCH   1   7
ATOM      7  C   UNL d   1      46.462 -19.478  42.247  0.00  0.00     0.112 A 
ATOM      8  N   UNL d   1      46.288 -18.846  42.733  0.00  0.00    -0.238 NA
ATOM      9  C   UNL d   1      46.335 -19.110  43.514  0.00  0.00     0.088 A 
ATOM     10  C   UNL d   1      46.217 -18.723  44.239  0.00  0.00     0.020 A 
ATOM     11  C   UNL d   1      46.539 -19.906  43.501  0.00  0.00     0.049 A 
ATOM     12  C   UNL d   1      46.304 -19.135  44.944  0.00  0.00     0.002 A 
ATOM     13  C   UNL d   1      46.509 -19.937  44.935  0.00  0.00     0.001 A 
ATOM     14  C   UNL d   1      46.627 -20.324  44.209  0.00  0.00     0.008 A 
ATOM     15  S   UNL d   1      46.617 -20.131  42.716  0.00  0.00    -0.066 SA
ENDBRANCH   1   7
BRANCH   2  16
ATOM     16  N   UNL d   1      46.644 -18.114  41.335  0.00  0.00    -0.206 NA
ATOM     17  C   UNL d   1      46.232 -17.461  41.018  0.00  0.00     0.304 C 
ATOM     18  O   UNL d   1      46.289 -16.726  41.384  0.00  0.00    -0.263 OA
BRANCH  17  19
ATOM     19  C   UNL d   1      45.771 -17.547  40.340  0.00  0.00     0.182 A 
ATOM     20  O   UNL d   1      46.126 -17.704  39.612  0.00  0.00    -0.296 OA
ATOM     21  C   UNL d   1      45.663 -17.790  38.934  0.00  0.00     0.150 A 
ATOM     22  C   UNL d   1      44.845 -17.719  38.984  0.00  0.00     0.149 A 
ATOM     23  O   UNL d   1      44.489 -17.562  39.713  0.00  0.00    -0.299 OA
ATOM     24  C   UNL d   1      44.953 -17.476  40.390  0.00  0.00     0.152 A 
ENDBRANCH  17  19
ENDBRANCH   2  16
TORSDOF 3
ENDMDL
