MODEL 1
REMARK VINA RESULT:      -0.2      0.000      0.000
REMARK  3 active torsions:
REMARK  status: ('A' for Active; 'I' for Inactive)
REMARK    1  A    between atoms: N_3  and  C_2 
REMARK       I    between atoms: C_4  and  N_3 
REMARK    2  A    between atoms: C_10  and  N_3 
REMARK    3  A    between atoms: C_12  and  C_4 
ROOT
ATOM      1  N   UNL d   1      58.377  -0.155  30.839  0.00  0.00    -0.274 N 
ATOM      2  C   UNL d   1      59.442   0.335  31.283  0.00  0.00     0.265 C 
ATOM      3  O   UNL d   1      59.341   0.679  31.999  0.00  0.00    -0.267 OA
ENDROOT
BRANCH   1   4
ATOM      4  C   UNL d   1      58.428  -0.505  30.135  0.00  0.00     0.079 A 
ATOM      5  C   UNL d   1      58.491  -1.279  30.008  0.00  0.00     0.116 A 
ATOM      6  S   UNL d   1      58.527  -1.393  29.232  0.00  0.00     0.213 S 
ATOM      7  C   UNL d   1      58.486  -0.689  28.886  0.00  0.00     0.100 A 
ATOM      8  O   UNL d   1      58.562  -1.507  28.457  0.00  0.00    -0.217 OA
ATOM      9  O   UNL d   1      58.569  -2.108  29.544  0.00  0.00    -0.217 OA
ATOM     10  C   UNL d   1      58.425  -0.145  29.441  0.00  0.00     0.030 A 
ENDBRANCH   1   4
BRANCH   1  11
ATOM     11  C   UNL d   1      57.668  -0.111  31.261  0.00  0.00     0.067 A 
ATOM     12  C   UNL d   1      57.326  -0.801  31.541  0.00  0.00     0.020 A 
ATOM     13  C   UNL d   1      56.602  -0.763  31.972  0.00  0.00     0.031 A 
ATOM     14  C   UNL d   1      56.244  -0.028  32.108  0.00  0.00     0.140 A 
ATOM     15  C   UNL d   1      56.593   0.663  31.825  0.00  0.00     0.031 A 
ATOM     16  F   UNL d   1      55.539   0.016  32.528  0.00  0.00    -0.204 F 
ATOM     17  C   UNL d   1      57.300   0.640  31.402  0.00  0.00     0.020 A 
ENDBRANCH   1  11
BRANCH   2  18
ATOM     18  C   UNL d   1      60.165   0.304  30.879  0.00  0.00     0.057 C 
ATOM     19  C   UNL d   1      60.255   0.682  30.136  0.00  0.00     0.005 C 
ATOM     20  C   UNL d   1      60.816  -0.113  31.218  0.00  0.00     0.005 C 
ENDBRANCH   2  18
TORSDOF 3
ENDMDL
MODEL 2
REMARK VINA RESULT:       1.5      0.782      1.099
REMARK  3 active torsions:
REMARK  status: ('A' for Active; 'I' for Inactive)
REMARK    1  A    between atoms: N_3  and  C_2 
REMARK       I    between atoms: C_4  and  N_3 
REMARK    2  A    between atoms: C_10  and  N_3 
REMARK    3  A    between atoms: C_12  and  C_4 
ROOT
ATOM      1  N   UNL d   1      57.825  -0.008  31.510  0.00  0.00    -0.274 N 
ATOM      2  C   UNL d   1      58.864   0.448  32.041  0.00  0.00     0.265 C 
ATOM      3  O   UNL d   1      58.739   0.681  32.797  0.00  0.00    -0.267 OA
ENDROOT
BRANCH   1   4
ATOM      4  C   UNL d   1      57.899  -0.251  30.764  0.00  0.00     0.079 A 
ATOM      5  C   UNL d   1      57.930  -0.999  30.522  0.00  0.00     0.116 A 
ATOM      6  S   UNL d   1      58.006  -0.996  29.741  0.00  0.00     0.213 S 
ATOM      7  C   UNL d   1      58.021  -0.247  29.506  0.00  0.00     0.100 A 
ATOM      8  O   UNL d   1      58.081  -0.994  28.960  0.00  0.00    -0.217 OA
ATOM      9  O   UNL d   1      57.994  -1.751  29.941  0.00  0.00    -0.217 OA
ATOM     10  C   UNL d   1      57.956   0.210  30.134  0.00  0.00     0.030 A 
ENDBRANCH   1   4
BRANCH   1  11
ATOM     11  C   UNL d   1      57.108  -0.050  31.919  0.00  0.00     0.067 A 
ATOM     12  C   UNL d   1      56.590   0.583  31.884  0.00  0.00     0.020 A 
ATOM     13  C   UNL d   1      55.856   0.545  32.300  0.00  0.00     0.031 A 
ATOM     14  C   UNL d   1      55.668  -0.132  32.739  0.00  0.00     0.140 A 
ATOM     15  C   UNL d   1      56.194  -0.766  32.771  0.00  0.00     0.031 A 
ATOM     16  F   UNL d   1      54.955  -0.174  33.146  0.00  0.00    -0.204 F 
ATOM     17  C   UNL d   1      56.914  -0.743  32.370  0.00  0.00     0.020 A 
ENDBRANCH   1  11
BRANCH   2  18
ATOM     18  C   UNL d   1      59.594   0.501  31.652  0.00  0.00     0.057 C 
ATOM     19  C   UNL d   1      59.629   0.682  30.834  0.00  0.00     0.005 C 
ATOM     20  C   UNL d   1      60.308   0.371  32.083  0.00  0.00     0.005 C 
ENDBRANCH   2  18
TORSDOF 3
ENDMDL
