MODEL 1
REMARK VINA RESULT:      -7.4      0.000      0.000
REMARK  4 active torsions:
REMARK  status: ('A' for Active; 'I' for Inactive)
REMARK    1  A    between atoms: N_6  and  C_1 
REMARK       I    between atoms: C_7  and  N_8 
REMARK    2  A    between atoms: C_9  and  C_7 
REMARK    3  A    between atoms: O_20  and  C_10 
REMARK    4  A    between atoms: O_19  and  C_11 
ROOT
ATOM      1  C   UNL d   1      50.824  34.153  52.765  0.00  0.00     0.180 A 
ATOM      2  N   UNL d   1      51.355  34.580  53.234  0.00  0.00    -0.220 NA
ATOM      3  S   UNL d   1      51.158  33.402  52.636  0.00  0.00    -0.046 SA
ATOM      4  C   UNL d   1      52.004  34.103  53.392  0.00  0.00     0.114 A 
ATOM      5  C   UNL d   1      51.877  33.378  53.020  0.00  0.00     0.074 A 
ATOM      6  C   UNL d   1      52.685  34.229  53.818  0.00  0.00     0.112 A 
ATOM      7  C   UNL d   1      52.432  32.789  53.079  0.00  0.00     0.102 A 
ATOM      8  C   UNL d   1      53.123  32.915  53.511  0.00  0.00     0.027 A 
ATOM      9  C   UNL d   1      53.250  33.640  53.883  0.00  0.00     0.028 A 
ENDROOT
BRANCH   1  10
ATOM     10  N   UNL d   1      50.104  34.430  52.485  0.00  0.00    -0.281 N 
ATOM     11  C   UNL d   1      49.849  34.212  51.730  0.00  0.00     0.101 A 
ATOM     12  C   UNL d   1      49.127  34.482  51.434  0.00  0.00     0.102 A 
ATOM     13  N   UNL d   1      48.661  34.977  51.909  0.00  0.00    -0.272 N 
ATOM     14  C   UNL d   1      47.933  35.252  51.615  0.00  0.00     0.240 C 
ATOM     15  C   UNL d   1      48.917  35.196  52.665  0.00  0.00     0.102 A 
ATOM     16  O   UNL d   1      47.680  35.036  50.867  0.00  0.00    -0.272 OA
ATOM     17  C   UNL d   1      49.637  34.919  52.945  0.00  0.00     0.101 A 
BRANCH  14  18
ATOM     18  C   UNL d   1      47.471  35.745  52.090  0.00  0.00     0.072 C 
ATOM     19  C   UNL d   1      46.879  35.405  52.545  0.00  0.00     0.009 C 
ATOM     20  C   UNL d   1      47.585  36.569  52.122  0.00  0.00     0.009 C 
ATOM     21  C   UNL d   1      47.028  36.269  52.553  0.00  0.00     0.009 C 
ENDBRANCH  14  18
ENDBRANCH   1  10
BRANCH   6  22
ATOM     22  O   UNL d   1      52.809  34.953  54.187  0.00  0.00    -0.327 OA
ATOM     23  C   UNL d   1      53.392  35.021  54.758  0.00  0.00     0.181 C 
ENDBRANCH   6  22
BRANCH   7  24
ATOM     24  O   UNL d   1      52.308  32.066  52.710  0.00  0.00    -0.328 OA
ATOM     25  C   UNL d   1      52.767  31.409  52.916  0.00  0.00     0.181 C 
ENDBRANCH   7  24
TORSDOF 4
ENDMDL
MODEL 2
REMARK VINA RESULT:      -7.4      0.559      1.683
REMARK  4 active torsions:
REMARK  status: ('A' for Active; 'I' for Inactive)
REMARK    1  A    between atoms: N_6  and  C_1 
REMARK       I    between atoms: C_7  and  N_8 
REMARK    2  A    between atoms: C_9  and  C_7 
REMARK    3  A    between atoms: O_20  and  C_10 
REMARK    4  A    between atoms: O_19  and  C_11 
ROOT
ATOM      1  C   UNL d   1      51.069  33.936  52.917  0.00  0.00     0.180 A 
ATOM      2  N   UNL d   1      51.357  33.187  52.717  0.00  0.00    -0.220 NA
ATOM      3  S   UNL d   1      51.621  34.284  53.433  0.00  0.00    -0.046 SA
ATOM      4  C   UNL d   1      52.074  33.074  53.102  0.00  0.00     0.114 A 
ATOM      5  C   UNL d   1      52.232  33.754  53.542  0.00  0.00     0.074 A 
ATOM      6  C   UNL d   1      52.597  32.452  53.111  0.00  0.00     0.112 A 
ATOM      7  C   UNL d   1      52.910  33.802  53.984  0.00  0.00     0.102 A 
ATOM      8  C   UNL d   1      53.442  33.172  53.995  0.00  0.00     0.027 A 
ATOM      9  C   UNL d   1      53.284  32.493  53.555  0.00  0.00     0.028 A 
ENDROOT
BRANCH   1  10
ATOM     10  N   UNL d   1      50.366  34.264  52.649  0.00  0.00    -0.281 N 
ATOM     11  C   UNL d   1      50.108  34.104  51.879  0.00  0.00     0.101 A 
ATOM     12  C   UNL d   1      49.403  34.427  51.595  0.00  0.00     0.102 A 
ATOM     13  N   UNL d   1      48.958  34.916  52.096  0.00  0.00    -0.272 N 
ATOM     14  C   UNL d   1      48.247  35.243  51.813  0.00  0.00     0.240 C 
ATOM     15  C   UNL d   1      49.217  35.076  52.865  0.00  0.00     0.102 A 
ATOM     16  O   UNL d   1      47.992  35.085  51.052  0.00  0.00    -0.272 OA
ATOM     17  C   UNL d   1      49.919  34.747  53.133  0.00  0.00     0.101 A 
BRANCH  14  18
ATOM     18  C   UNL d   1      47.805  35.730  52.314  0.00  0.00     0.072 C 
ATOM     19  C   UNL d   1      47.159  35.407  52.701  0.00  0.00     0.009 C 
ATOM     20  C   UNL d   1      47.994  36.531  52.438  0.00  0.00     0.009 C 
ATOM     21  C   UNL d   1      47.387  36.247  52.807  0.00  0.00     0.009 C 
ENDBRANCH  14  18
ENDBRANCH   1  10
BRANCH   6  22
ATOM     22  O   UNL d   1      52.438  31.776  52.672  0.00  0.00    -0.327 OA
ATOM     23  C   UNL d   1      52.849  31.085  52.829  0.00  0.00     0.181 C 
ENDBRANCH   6  22
BRANCH   7  24
ATOM     24  O   UNL d   1      53.069  34.478  54.423  0.00  0.00    -0.328 OA
ATOM     25  C   UNL d   1      53.659  34.469  55.002  0.00  0.00     0.181 C 
ENDBRANCH   7  24
TORSDOF 4
ENDMDL
MODEL 3
REMARK VINA RESULT:      -7.3      1.229      4.962
REMARK  4 active torsions:
REMARK  status: ('A' for Active; 'I' for Inactive)
REMARK    1  A    between atoms: N_6  and  C_1 
REMARK       I    between atoms: C_7  and  N_8 
REMARK    2  A    between atoms: C_9  and  C_7 
REMARK    3  A    between atoms: O_20  and  C_10 
REMARK    4  A    between atoms: O_19  and  C_11 
ROOT
ATOM      1  C   UNL d   1      50.341  34.494  52.844  0.00  0.00     0.180 A 
ATOM      2  N   UNL d   1      49.963  35.033  53.343  0.00  0.00    -0.220 NA
ATOM      3  S   UNL d   1      49.847  34.379  52.184  0.00  0.00    -0.046 SA
ATOM      4  C   UNL d   1      49.248  35.247  53.000  0.00  0.00     0.114 A 
ATOM      5  C   UNL d   1      49.182  34.841  52.285  0.00  0.00     0.074 A 
ATOM      6  C   UNL d   1      48.657  35.752  53.239  0.00  0.00     0.112 A 
ATOM      7  C   UNL d   1      48.526  34.944  51.819  0.00  0.00     0.102 A 
ATOM      8  C   UNL d   1      47.925  35.454  52.059  0.00  0.00     0.027 A 
ATOM      9  C   UNL d   1      47.991  35.861  52.774  0.00  0.00     0.028 A 
ENDROOT
BRANCH   1  10
ATOM     10  N   UNL d   1      51.070  34.144  52.983  0.00  0.00    -0.281 N 
ATOM     11  C   UNL d   1      51.761  34.587  52.885  0.00  0.00     0.101 A 
ATOM     12  C   UNL d   1      52.503  34.249  53.022  0.00  0.00     0.102 A 
ATOM     13  N   UNL d   1      52.540  33.455  53.259  0.00  0.00    -0.272 N 
ATOM     14  C   UNL d   1      53.286  33.111  53.398  0.00  0.00     0.240 C 
ATOM     15  C   UNL d   1      51.849  33.012  53.357  0.00  0.00     0.102 A 
ATOM     16  O   UNL d   1      53.970  33.549  53.301  0.00  0.00    -0.272 OA
ATOM     17  C   UNL d   1      51.120  33.362  53.218  0.00  0.00     0.101 A 
BRANCH  14  18
ATOM     18  C   UNL d   1      53.322  32.320  53.634  0.00  0.00     0.072 C 
ATOM     19  C   UNL d   1      53.469  32.155  54.423  0.00  0.00     0.009 C 
ATOM     20  C   UNL d   1      53.213  31.689  53.101  0.00  0.00     0.009 C 
ATOM     21  C   UNL d   1      53.350  31.517  53.834  0.00  0.00     0.009 C 
ENDBRANCH  14  18
ENDBRANCH   1  10
BRANCH   6  22
ATOM     22  O   UNL d   1      48.725  36.155  53.951  0.00  0.00    -0.327 OA
ATOM     23  C   UNL d   1      48.081  36.567  54.245  0.00  0.00     0.181 C 
ENDBRANCH   6  22
BRANCH   7  24
ATOM     24  O   UNL d   1      48.458  34.540  51.107  0.00  0.00    -0.328 OA
ATOM     25  C   UNL d   1      47.755  34.577  50.673  0.00  0.00     0.181 C 
ENDBRANCH   7  24
TORSDOF 4
ENDMDL
MODEL 4
REMARK VINA RESULT:      -7.0      1.328      5.208
REMARK  4 active torsions:
REMARK  status: ('A' for Active; 'I' for Inactive)
REMARK    1  A    between atoms: N_6  and  C_1 
REMARK       I    between atoms: C_7  and  N_8 
REMARK    2  A    between atoms: C_9  and  C_7 
REMARK    3  A    between atoms: O_20  and  C_10 
REMARK    4  A    between atoms: O_19  and  C_11 
ROOT
ATOM      1  C   UNL d   1      50.735  34.176  53.053  0.00  0.00     0.180 A 
ATOM      2  N   UNL d   1      50.328  34.110  52.337  0.00  0.00    -0.220 NA
ATOM      3  S   UNL d   1      50.321  34.723  53.524  0.00  0.00    -0.046 SA
ATOM      4  C   UNL d   1      49.674  34.606  52.364  0.00  0.00     0.114 A 
ATOM      5  C   UNL d   1      49.674  34.981  53.098  0.00  0.00     0.074 A 
ATOM      6  C   UNL d   1      49.085  34.764  51.825  0.00  0.00     0.112 A 
ATOM      7  C   UNL d   1      49.087  35.509  53.284  0.00  0.00     0.102 A 
ATOM      8  C   UNL d   1      48.489  35.671  52.740  0.00  0.00     0.027 A 
ATOM      9  C   UNL d   1      48.489  35.295  52.005  0.00  0.00     0.028 A 
ENDROOT
BRANCH   1  10
ATOM     10  N   UNL d   1      51.421  33.772  53.252  0.00  0.00    -0.281 N 
ATOM     11  C   UNL d   1      51.530  32.997  52.986  0.00  0.00     0.101 A 
ATOM     12  C   UNL d   1      52.215  32.577  53.177  0.00  0.00     0.102 A 
ATOM     13  N   UNL d   1      52.793  32.948  53.642  0.00  0.00    -0.272 N 
ATOM     14  C   UNL d   1      53.485  32.528  53.837  0.00  0.00     0.240 C 
ATOM     15  C   UNL d   1      52.684  33.724  53.908  0.00  0.00     0.102 A 
ATOM     16  O   UNL d   1      53.592  31.761  53.574  0.00  0.00    -0.272 OA
ATOM     17  C   UNL d   1      51.998  34.128  53.709  0.00  0.00     0.101 A 
BRANCH  14  18
ATOM     18  C   UNL d   1      54.059  32.900  54.299  0.00  0.00     0.072 C 
ATOM     19  C   UNL d   1      53.990  32.859  55.115  0.00  0.00     0.009 C 
ATOM     20  C   UNL d   1      54.702  33.312  53.967  0.00  0.00     0.009 C 
ATOM     21  C   UNL d   1      54.653  33.283  54.730  0.00  0.00     0.009 C 
ENDBRANCH  14  18
ENDBRANCH   1  10
BRANCH   6  22
ATOM     22  O   UNL d   1      49.087  34.389  51.094  0.00  0.00    -0.327 OA
ATOM     23  C   UNL d   1      48.388  34.321  50.673  0.00  0.00     0.181 C 
ENDBRANCH   6  22
BRANCH   7  24
ATOM     24  O   UNL d   1      49.086  35.884  54.015  0.00  0.00    -0.328 OA
ATOM     25  C   UNL d   1      48.481  36.414  54.209  0.00  0.00     0.181 C 
ENDBRANCH   7  24
TORSDOF 4
ENDMDL
MODEL 5
REMARK VINA RESULT:      -6.3      2.307      5.726
REMARK  4 active torsions:
REMARK  status: ('A' for Active; 'I' for Inactive)
REMARK    1  A    between atoms: N_6  and  C_1 
REMARK       I    between atoms: C_7  and  N_8 
REMARK    2  A    between atoms: C_9  and  C_7 
REMARK    3  A    between atoms: O_20  and  C_10 
REMARK    4  A    between atoms: O_19  and  C_11 
ROOT
ATOM      1  C   UNL d   1      52.695  32.403  53.463  0.00  0.00     0.180 A 
ATOM      2  N   UNL d   1      52.178  32.767  52.931  0.00  0.00    -0.220 NA
ATOM      3  S   UNL d   1      53.081  33.007  53.886  0.00  0.00    -0.046 SA
ATOM      4  C   UNL d   1      52.242  33.580  53.022  0.00  0.00     0.114 A 
ATOM      5  C   UNL d   1      52.800  33.723  53.612  0.00  0.00     0.074 A 
ATOM      6  C   UNL d   1      51.872  34.203  52.653  0.00  0.00     0.112 A 
ATOM      7  C   UNL d   1      52.981  34.484  53.825  0.00  0.00     0.102 A 
ATOM      8  C   UNL d   1      52.607  35.117  53.451  0.00  0.00     0.027 A 
ATOM      9  C   UNL d   1      52.049  34.975  52.861  0.00  0.00     0.028 A 
ENDROOT
BRANCH   1  10
ATOM     10  N   UNL d   1      52.800  31.593  53.549  0.00  0.00    -0.281 N 
ATOM     11  C   UNL d   1      52.551  31.083  52.948  0.00  0.00     0.101 A 
ATOM     12  C   UNL d   1      52.650  30.266  53.020  0.00  0.00     0.102 A 
ATOM     13  N   UNL d   1      53.004  29.967  53.707  0.00  0.00    -0.272 N 
ATOM     14  C   UNL d   1      53.106  29.144  53.783  0.00  0.00     0.240 C 
ATOM     15  C   UNL d   1      53.254  30.477  54.308  0.00  0.00     0.102 A 
ATOM     16  O   UNL d   1      52.859  28.639  53.188  0.00  0.00    -0.272 OA
ATOM     17  C   UNL d   1      53.149  31.287  54.222  0.00  0.00     0.101 A 
BRANCH  14  18
ATOM     18  C   UNL d   1      53.459  28.848  54.468  0.00  0.00     0.072 C 
ATOM     19  C   UNL d   1      54.251  28.637  54.439  0.00  0.00     0.009 C 
ATOM     20  C   UNL d   1      53.041  28.757  55.183  0.00  0.00     0.009 C 
ATOM     21  C   UNL d   1      53.779  28.555  55.174  0.00  0.00     0.009 C 
ENDBRANCH  14  18
ENDBRANCH   1  10
BRANCH   6  22
ATOM     22  O   UNL d   1      51.316  34.059  52.066  0.00  0.00    -0.327 OA
ATOM     23  C   UNL d   1      50.619  34.490  52.053  0.00  0.00     0.181 C 
ENDBRANCH   6  22
BRANCH   7  24
ATOM     24  O   UNL d   1      53.537  34.628  54.412  0.00  0.00    -0.328 OA
ATOM     25  C   UNL d   1      53.527  35.343  54.828  0.00  0.00     0.181 C 
ENDBRANCH   7  24
TORSDOF 4
ENDMDL
MODEL 6
REMARK VINA RESULT:      -6.2      1.407      5.039
REMARK  4 active torsions:
REMARK  status: ('A' for Active; 'I' for Inactive)
REMARK    1  A    between atoms: N_6  and  C_1 
REMARK       I    between atoms: C_7  and  N_8 
REMARK    2  A    between atoms: C_9  and  C_7 
REMARK    3  A    between atoms: O_20  and  C_10 
REMARK    4  A    between atoms: O_19  and  C_11 
ROOT
ATOM      1  C   UNL d   1      49.045  35.210  52.791  0.00  0.00     0.180 A 
ATOM      2  N   UNL d   1      48.764  35.655  53.429  0.00  0.00    -0.220 NA
ATOM      3  S   UNL d   1      48.453  35.215  52.206  0.00  0.00    -0.046 SA
ATOM      4  C   UNL d   1      48.014  35.931  53.242  0.00  0.00     0.114 A 
ATOM      5  C   UNL d   1      47.827  35.656  52.487  0.00  0.00     0.074 A 
ATOM      6  C   UNL d   1      47.482  36.389  53.653  0.00  0.00     0.112 A 
ATOM      7  C   UNL d   1      47.112  35.843  52.153  0.00  0.00     0.102 A 
ATOM      8  C   UNL d   1      46.571  36.308  52.567  0.00  0.00     0.027 A 
ATOM      9  C   UNL d   1      46.758  36.582  53.322  0.00  0.00     0.028 A 
ENDROOT
BRANCH   1  10
ATOM     10  N   UNL d   1      49.775  34.836  52.754  0.00  0.00    -0.281 N 
ATOM     11  C   UNL d   1      50.003  34.456  52.056  0.00  0.00     0.101 A 
ATOM     12  C   UNL d   1      50.734  34.075  52.002  0.00  0.00     0.102 A 
ATOM     13  N   UNL d   1      51.236  34.081  52.663  0.00  0.00    -0.272 N 
ATOM     14  C   UNL d   1      51.973  33.699  52.613  0.00  0.00     0.240 C 
ATOM     15  C   UNL d   1      51.007  34.461  53.361  0.00  0.00     0.102 A 
ATOM     16  O   UNL d   1      52.199  33.323  51.923  0.00  0.00    -0.272 OA
ATOM     17  C   UNL d   1      50.277  34.835  53.399  0.00  0.00     0.101 A 
BRANCH  14  18
ATOM     18  C   UNL d   1      52.471  33.706  53.272  0.00  0.00     0.072 C 
ATOM     19  C   UNL d   1      52.927  34.373  53.410  0.00  0.00     0.009 C 
ATOM     20  C   UNL d   1      52.526  33.062  53.798  0.00  0.00     0.009 C 
ATOM     21  C   UNL d   1      52.958  33.677  53.941  0.00  0.00     0.009 C 
ENDBRANCH  14  18
ENDBRANCH   1  10
BRANCH   6  22
ATOM     22  O   UNL d   1      47.670  36.662  54.404  0.00  0.00    -0.327 OA
ATOM     23  C   UNL d   1      47.086  36.709  54.976  0.00  0.00     0.181 C 
ENDBRANCH   6  22
BRANCH   7  24
ATOM     24  O   UNL d   1      46.923  35.570  51.401  0.00  0.00    -0.328 OA
ATOM     25  C   UNL d   1      46.148  35.629  51.120  0.00  0.00     0.181 C 
ENDBRANCH   7  24
TORSDOF 4
ENDMDL
MODEL 7
REMARK VINA RESULT:      -5.3      9.678     10.657
REMARK  4 active torsions:
REMARK  status: ('A' for Active; 'I' for Inactive)
REMARK    1  A    between atoms: N_6  and  C_1 
REMARK       I    between atoms: C_7  and  N_8 
REMARK    2  A    between atoms: C_9  and  C_7 
REMARK    3  A    between atoms: O_20  and  C_10 
REMARK    4  A    between atoms: O_19  and  C_11 
ROOT
ATOM      1  C   UNL d   1      44.794  28.319  57.894  0.00  0.00     0.180 A 
ATOM      2  N   UNL d   1      44.876  28.590  58.670  0.00  0.00    -0.220 NA
ATOM      3  S   UNL d   1      44.761  28.988  57.400  0.00  0.00    -0.046 SA
ATOM      4  C   UNL d   1      44.893  29.411  58.658  0.00  0.00     0.114 A 
ATOM      5  C   UNL d   1      44.822  29.651  57.872  0.00  0.00     0.074 A 
ATOM      6  C   UNL d   1      44.964  29.966  59.248  0.00  0.00     0.112 A 
ATOM      7  C   UNL d   1      44.822  30.441  57.687  0.00  0.00     0.102 A 
ATOM      8  C   UNL d   1      44.893  31.005  58.284  0.00  0.00     0.027 A 
ATOM      9  C   UNL d   1      44.964  30.765  59.070  0.00  0.00     0.028 A 
ENDROOT
BRANCH   1  10
ATOM     10  N   UNL d   1      44.754  27.532  57.665  0.00  0.00    -0.281 N 
ATOM     11  C   UNL d   1      44.550  26.955  58.221  0.00  0.00     0.101 A 
ATOM     12  C   UNL d   1      44.505  26.158  58.006  0.00  0.00     0.102 A 
ATOM     13  N   UNL d   1      44.669  25.948  57.220  0.00  0.00    -0.272 N 
ATOM     14  C   UNL d   1      44.625  25.146  56.999  0.00  0.00     0.240 C 
ATOM     15  C   UNL d   1      44.873  26.525  56.664  0.00  0.00     0.102 A 
ATOM     16  O   UNL d   1      44.423  24.576  57.549  0.00  0.00    -0.272 OA
ATOM     17  C   UNL d   1      44.914  27.313  56.893  0.00  0.00     0.101 A 
BRANCH  14  18
ATOM     18  C   UNL d   1      44.789  24.939  56.217  0.00  0.00     0.072 C 
ATOM     19  C   UNL d   1      44.314  25.248  55.624  0.00  0.00     0.009 C 
ATOM     20  C   UNL d   1      45.416  24.431  56.011  0.00  0.00     0.009 C 
ATOM     21  C   UNL d   1      44.983  24.710  55.445  0.00  0.00     0.009 C 
ENDBRANCH  14  18
ENDBRANCH   1  10
BRANCH   6  22
ATOM     22  O   UNL d   1      45.034  29.725  60.030  0.00  0.00    -0.327 OA
ATOM     23  C   UNL d   1      45.059  30.286  60.626  0.00  0.00     0.181 C 
ENDBRANCH   6  22
BRANCH   7  24
ATOM     24  O   UNL d   1      44.751  30.681  56.904  0.00  0.00    -0.328 OA
ATOM     25  C   UNL d   1      44.634  31.480  56.724  0.00  0.00     0.181 C 
ENDBRANCH   7  24
TORSDOF 4
ENDMDL
MODEL 8
REMARK VINA RESULT:      -5.2     10.701     11.694
REMARK  4 active torsions:
REMARK  status: ('A' for Active; 'I' for Inactive)
REMARK    1  A    between atoms: N_6  and  C_1 
REMARK       I    between atoms: C_7  and  N_8 
REMARK    2  A    between atoms: C_9  and  C_7 
REMARK    3  A    between atoms: O_20  and  C_10 
REMARK    4  A    between atoms: O_19  and  C_11 
ROOT
ATOM      1  C   UNL d   1      44.815  26.148  56.775  0.00  0.00     0.180 A 
ATOM      2  N   UNL d   1      44.888  26.913  56.472  0.00  0.00    -0.220 NA
ATOM      3  S   UNL d   1      44.803  26.210  57.605  0.00  0.00    -0.046 SA
ATOM      4  C   UNL d   1      44.921  27.439  57.101  0.00  0.00     0.114 A 
ATOM      5  C   UNL d   1      44.868  27.001  57.797  0.00  0.00     0.074 A 
ATOM      6  C   UNL d   1      44.990  28.249  57.134  0.00  0.00     0.112 A 
ATOM      7  C   UNL d   1      44.885  27.376  58.516  0.00  0.00     0.102 A 
ATOM      8  C   UNL d   1      44.956  28.197  58.552  0.00  0.00     0.027 A 
ATOM      9  C   UNL d   1      45.008  28.636  57.855  0.00  0.00     0.028 A 
ENDROOT
BRANCH   1  10
ATOM     10  N   UNL d   1      44.765  25.460  56.329  0.00  0.00    -0.281 N 
ATOM     11  C   UNL d   1      44.476  25.495  55.556  0.00  0.00     0.101 A 
ATOM     12  C   UNL d   1      44.419  24.812  55.095  0.00  0.00     0.102 A 
ATOM     13  N   UNL d   1      44.658  24.089  55.423  0.00  0.00    -0.272 N 
ATOM     14  C   UNL d   1      44.602  23.398  54.961  0.00  0.00     0.240 C 
ATOM     15  C   UNL d   1      44.948  24.054  56.197  0.00  0.00     0.102 A 
ATOM     16  O   UNL d   1      44.316  23.433  54.196  0.00  0.00    -0.272 OA
ATOM     17  C   UNL d   1      44.998  24.742  56.642  0.00  0.00     0.101 A 
BRANCH  14  18
ATOM     18  C   UNL d   1      44.841  22.679  55.290  0.00  0.00     0.072 C 
ATOM     19  C   UNL d   1      45.622  22.449  55.199  0.00  0.00     0.009 C 
ATOM     20  C   UNL d   1      44.318  22.184  55.708  0.00  0.00     0.009 C 
ATOM     21  C   UNL d   1      45.044  21.953  55.633  0.00  0.00     0.009 C 
ENDBRANCH  14  18
ENDBRANCH   1  10
BRANCH   6  22
ATOM     22  O   UNL d   1      45.042  28.684  56.439  0.00  0.00    -0.327 OA
ATOM     23  C   UNL d   1      44.961  29.499  56.465  0.00  0.00     0.181 C 
ENDBRANCH   6  22
BRANCH   7  24
ATOM     24  O   UNL d   1      44.833  26.940  59.211  0.00  0.00    -0.328 OA
ATOM     25  C   UNL d   1      44.663  27.318  59.926  0.00  0.00     0.181 C 
ENDBRANCH   7  24
TORSDOF 4
ENDMDL
MODEL 9
REMARK VINA RESULT:      -4.7      9.859     10.812
REMARK  4 active torsions:
REMARK  status: ('A' for Active; 'I' for Inactive)
REMARK    1  A    between atoms: N_6  and  C_1 
REMARK       I    between atoms: C_7  and  N_8 
REMARK    2  A    between atoms: C_9  and  C_7 
REMARK    3  A    between atoms: O_20  and  C_10 
REMARK    4  A    between atoms: O_19  and  C_11 
ROOT
ATOM      1  C   UNL d   1      44.721  30.071  59.249  0.00  0.00     0.180 A 
ATOM      2  N   UNL d   1      44.620  30.766  58.811  0.00  0.00    -0.220 NA
ATOM      3  S   UNL d   1      44.834  29.451  58.706  0.00  0.00    -0.046 SA
ATOM      4  C   UNL d   1      44.670  30.579  58.013  0.00  0.00     0.114 A 
ATOM      5  C   UNL d   1      44.802  29.767  57.954  0.00  0.00     0.074 A 
ATOM      6  C   UNL d   1      44.614  31.033  57.341  0.00  0.00     0.112 A 
ATOM      7  C   UNL d   1      44.876  29.420  57.225  0.00  0.00     0.102 A 
ATOM      8  C   UNL d   1      44.819  29.878  56.541  0.00  0.00     0.027 A 
ATOM      9  C   UNL d   1      44.688  30.690  56.601  0.00  0.00     0.028 A 
ENDROOT
BRANCH   1  10
ATOM     10  N   UNL d   1      44.709  30.017  60.068  0.00  0.00    -0.281 N 
ATOM     11  C   UNL d   1      44.694  30.707  60.522  0.00  0.00     0.101 A 
ATOM     12  C   UNL d   1      44.682  30.669  61.347  0.00  0.00     0.102 A 
ATOM     13  N   UNL d   1      44.685  29.924  61.711  0.00  0.00    -0.272 N 
ATOM     14  C   UNL d   1      44.673  29.881  62.543  0.00  0.00     0.240 C 
ATOM     15  C   UNL d   1      44.700  29.233  61.257  0.00  0.00     0.102 A 
ATOM     16  O   UNL d   1      44.658  30.564  62.993  0.00  0.00    -0.272 OA
ATOM     17  C   UNL d   1      44.712  29.288  60.438  0.00  0.00     0.101 A 
BRANCH  14  18
ATOM     18  C   UNL d   1      44.677  29.138  62.904  0.00  0.00     0.072 C 
ATOM     19  C   UNL d   1      45.049  28.518  62.517  0.00  0.00     0.009 C 
ATOM     20  C   UNL d   1      44.317  28.998  63.642  0.00  0.00     0.009 C 
ATOM     21  C   UNL d   1      44.660  28.408  63.295  0.00  0.00     0.009 C 
ENDBRANCH  14  18
ENDBRANCH   1  10
BRANCH   6  22
ATOM     22  O   UNL d   1      44.483  31.842  57.402  0.00  0.00    -0.327 OA
ATOM     23  C   UNL d   1      44.315  32.277  56.729  0.00  0.00     0.181 C 
ENDBRANCH   6  22
BRANCH   7  24
ATOM     24  O   UNL d   1      45.007  28.611  57.163  0.00  0.00    -0.328 OA
ATOM     25  C   UNL d   1      45.084  28.258  56.420  0.00  0.00     0.181 C 
ENDBRANCH   7  24
TORSDOF 4
ENDMDL
