MODEL 1
REMARK VINA RESULT:      -5.7      0.000      0.000
REMARK  4 active torsions:
REMARK  status: ('A' for Active; 'I' for Inactive)
REMARK    1  A    between atoms: C_2  and  C_1 
REMARK    2  A    between atoms: C_3  and  C_1 
REMARK    3  A    between atoms: C_9  and  C_1 
REMARK    4  A    between atoms: N_4  and  C_10 
ROOT
ATOM      1  C   UNL d   1     -39.817  14.567  18.757  0.00  0.00     0.012 C 
ENDROOT
BRANCH   1   2
ATOM      2  C   UNL d   1     -39.942  14.847  17.987  0.00  0.00     0.077 A 
ATOM      3  C   UNL d   1     -40.602  14.595  17.557  0.00  0.00     0.195 A 
ATOM      4  C   UNL d   1     -40.729  14.872  16.789  0.00  0.00     0.019 A 
ATOM      5  O   UNL d   1     -41.137  14.060  17.902  0.00  0.00    -0.287 OA
ATOM      6  C   UNL d   1     -40.190  15.408  16.447  0.00  0.00     0.043 A 
ATOM      7  C   UNL d   1     -39.535  15.654  16.883  0.00  0.00     0.019 A 
ATOM      8  C   UNL d   1     -39.820  15.914  15.924  0.00  0.00     0.009 C 
ATOM      9  C   UNL d   1     -40.784  15.258  15.900  0.00  0.00     0.009 C 
ATOM     10  C   UNL d   1     -39.401  15.383  17.648  0.00  0.00     0.195 A 
ATOM     11  O   UNL d   1     -38.734  15.641  18.077  0.00  0.00    -0.287 OA
ENDBRANCH   1   2
BRANCH   1  12
ATOM     12  C   UNL d   1     -40.201  14.710  19.471  0.00  0.00     0.077 A 
ATOM     13  C   UNL d   1     -40.035  15.388  19.907  0.00  0.00     0.195 A 
ATOM     14  C   UNL d   1     -40.406  15.544  20.614  0.00  0.00     0.019 A 
ATOM     15  O   UNL d   1     -39.481  15.921  19.620  0.00  0.00    -0.287 OA
ATOM     16  C   UNL d   1     -40.964  15.002  20.899  0.00  0.00     0.043 A 
ATOM     17  C   UNL d   1     -41.149  14.310  20.477  0.00  0.00     0.019 A 
ATOM     18  C   UNL d   1     -40.960  15.581  21.475  0.00  0.00     0.009 C 
ATOM     19  C   UNL d   1     -41.543  14.578  21.331  0.00  0.00     0.009 C 
ATOM     20  C   UNL d   1     -40.757  14.171  19.755  0.00  0.00     0.195 A 
ATOM     21  O   UNL d   1     -40.944  13.480  19.338  0.00  0.00    -0.287 OA
ENDBRANCH   1  12
BRANCH   1  22
ATOM     22  C   UNL d   1     -39.194  14.043  18.852  0.00  0.00     0.002 A 
ATOM     23  C   UNL d   1     -39.128  13.393  18.337  0.00  0.00     0.024 A 
ATOM     24  C   UNL d   1     -38.505  12.869  18.431  0.00  0.00     0.127 A 
ATOM     25  C   UNL d   1     -37.948  12.995  19.041  0.00  0.00     0.024 A 
ATOM     26  C   UNL d   1     -38.019  13.629  19.537  0.00  0.00     0.002 A 
ATOM     27  C   UNL d   1     -38.650  14.160  19.442  0.00  0.00     0.000 A 
BRANCH  24  28
ATOM     28  N   UNL d   1     -38.446  12.220  17.911  0.00  0.00    -0.114 N 
ATOM     29  O   UNL d   1     -37.956  12.253  17.258  0.00  0.00    -0.532 OA
ATOM     30  O   UNL d   1     -38.884  11.525  18.045  0.00  0.00    -0.532 OA
ENDBRANCH  24  28
ENDBRANCH   1  22
TORSDOF 4
ENDMDL
MODEL 2
REMARK VINA RESULT:      -5.5      2.147      4.484
REMARK  4 active torsions:
REMARK  status: ('A' for Active; 'I' for Inactive)
REMARK    1  A    between atoms: C_2  and  C_1 
REMARK    2  A    between atoms: C_3  and  C_1 
REMARK    3  A    between atoms: C_9  and  C_1 
REMARK    4  A    between atoms: N_4  and  C_10 
ROOT
ATOM      1  C   UNL d   1     -39.218  14.587  20.777  0.00  0.00     0.012 C 
ENDROOT
BRANCH   1   2
ATOM      2  C   UNL d   1     -38.882  14.495  21.529  0.00  0.00     0.077 A 
ATOM      3  C   UNL d   1     -38.683  15.160  21.979  0.00  0.00     0.195 A 
ATOM      4  C   UNL d   1     -38.348  15.071  22.729  0.00  0.00     0.019 A 
ATOM      5  O   UNL d   1     -38.823  15.920  21.671  0.00  0.00    -0.287 OA
ATOM      6  C   UNL d   1     -38.209  14.308  23.033  0.00  0.00     0.043 A 
ATOM      7  C   UNL d   1     -38.410  13.650  22.578  0.00  0.00     0.019 A 
ATOM      8  C   UNL d   1     -37.989  13.691  23.522  0.00  0.00     0.009 C 
ATOM      9  C   UNL d   1     -37.961  14.855  23.593  0.00  0.00     0.009 C 
ATOM     10  C   UNL d   1     -38.744  13.730  21.831  0.00  0.00     0.195 A 
ATOM     11  O   UNL d   1     -38.943  13.055  21.382  0.00  0.00    -0.287 OA
ENDBRANCH   1   2
BRANCH   1  12
ATOM     12  C   UNL d   1     -38.905  14.536  20.018  0.00  0.00     0.077 A 
ATOM     13  C   UNL d   1     -38.603  15.204  19.643  0.00  0.00     0.195 A 
ATOM     14  C   UNL d   1     -38.291  15.168  18.893  0.00  0.00     0.019 A 
ATOM     15  O   UNL d   1     -38.618  15.922  20.038  0.00  0.00    -0.287 OA
ATOM     16  C   UNL d   1     -38.279  14.440  18.500  0.00  0.00     0.043 A 
ATOM     17  C   UNL d   1     -38.578  13.752  18.857  0.00  0.00     0.019 A 
ATOM     18  C   UNL d   1     -37.940  14.947  17.956  0.00  0.00     0.009 C 
ATOM     19  C   UNL d   1     -38.186  13.804  17.962  0.00  0.00     0.009 C 
ATOM     20  C   UNL d   1     -38.893  13.810  19.625  0.00  0.00     0.195 A 
ATOM     21  O   UNL d   1     -39.190  13.121  19.977  0.00  0.00    -0.287 OA
ENDBRANCH   1  12
BRANCH   1  22
ATOM     22  C   UNL d   1     -40.017  14.764  20.761  0.00  0.00     0.002 A 
ATOM     23  C   UNL d   1     -40.572  14.151  20.858  0.00  0.00     0.024 A 
ATOM     24  C   UNL d   1     -41.371  14.328  20.842  0.00  0.00     0.127 A 
ATOM     25  C   UNL d   1     -41.617  15.118  20.728  0.00  0.00     0.024 A 
ATOM     26  C   UNL d   1     -41.074  15.708  20.635  0.00  0.00     0.002 A 
ATOM     27  C   UNL d   1     -40.263  15.529  20.651  0.00  0.00     0.000 A 
BRANCH  24  28
ATOM     28  N   UNL d   1     -41.920  13.708  20.940  0.00  0.00    -0.114 N 
ATOM     29  O   UNL d   1     -42.174  13.271  20.300  0.00  0.00    -0.532 OA
ATOM     30  O   UNL d   1     -42.221  13.521  21.694  0.00  0.00    -0.532 OA
ENDBRANCH  24  28
ENDBRANCH   1  22
TORSDOF 4
ENDMDL
MODEL 3
REMARK VINA RESULT:      -5.2      1.204      3.058
REMARK  4 active torsions:
REMARK  status: ('A' for Active; 'I' for Inactive)
REMARK    1  A    between atoms: C_2  and  C_1 
REMARK    2  A    between atoms: C_3  and  C_1 
REMARK    3  A    between atoms: C_9  and  C_1 
REMARK    4  A    between atoms: N_4  and  C_10 
ROOT
ATOM      1  C   UNL d   1     -39.288  14.675  18.105  0.00  0.00     0.012 C 
ENDROOT
BRANCH   1   2
ATOM      2  C   UNL d   1     -39.032  14.913  18.857  0.00  0.00     0.077 A 
ATOM      3  C   UNL d   1     -39.407  14.621  19.533  0.00  0.00     0.195 A 
ATOM      4  C   UNL d   1     -39.153  14.856  20.284  0.00  0.00     0.019 A 
ATOM      5  O   UNL d   1     -40.041  14.089  19.455  0.00  0.00    -0.287 OA
ATOM      6  C   UNL d   1     -38.517  15.389  20.359  0.00  0.00     0.043 A 
ATOM      7  C   UNL d   1     -38.149  15.675  19.679  0.00  0.00     0.019 A 
ATOM      8  C   UNL d   1     -37.942  15.879  20.671  0.00  0.00     0.009 C 
ATOM      9  C   UNL d   1     -38.778  15.195  21.112  0.00  0.00     0.009 C 
ATOM     10  C   UNL d   1     -38.395  15.446  18.928  0.00  0.00     0.195 A 
ATOM     11  O   UNL d   1     -38.013  15.744  18.249  0.00  0.00    -0.287 OA
ENDBRANCH   1   2
BRANCH   1  12
ATOM     12  C   UNL d   1     -39.921  14.908  17.633  0.00  0.00     0.077 A 
ATOM     13  C   UNL d   1     -40.666  14.574  17.737  0.00  0.00     0.195 A 
ATOM     14  C   UNL d   1     -41.301  14.794  17.279  0.00  0.00     0.019 A 
ATOM     15  O   UNL d   1     -40.769  14.004  18.318  0.00  0.00    -0.287 OA
ATOM     16  C   UNL d   1     -41.190  15.369  16.694  0.00  0.00     0.043 A 
ATOM     17  C   UNL d   1     -40.448  15.721  16.570  0.00  0.00     0.019 A 
ATOM     18  C   UNL d   1     -41.982  15.183  16.620  0.00  0.00     0.009 C 
ATOM     19  C   UNL d   1     -41.263  15.922  16.069  0.00  0.00     0.009 C 
ATOM     20  C   UNL d   1     -39.812  15.481  17.050  0.00  0.00     0.195 A 
ATOM     21  O   UNL d   1     -39.073  15.835  16.922  0.00  0.00    -0.287 OA
ENDBRANCH   1  12
BRANCH   1  22
ATOM     22  C   UNL d   1     -38.839  14.096  17.739  0.00  0.00     0.002 A 
ATOM     23  C   UNL d   1     -38.762  13.351  18.102  0.00  0.00     0.024 A 
ATOM     24  C   UNL d   1     -38.313  12.772  17.736  0.00  0.00     0.127 A 
ATOM     25  C   UNL d   1     -37.940  12.938  17.007  0.00  0.00     0.024 A 
ATOM     26  C   UNL d   1     -38.018  13.663  16.661  0.00  0.00     0.002 A 
ATOM     27  C   UNL d   1     -38.474  14.251  17.032  0.00  0.00     0.000 A 
BRANCH  24  28
ATOM     28  N   UNL d   1     -38.241  12.028  18.106  0.00  0.00    -0.114 N 
ATOM     29  O   UNL d   1     -38.111  11.354  17.664  0.00  0.00    -0.532 OA
ATOM     30  O   UNL d   1     -38.301  11.956  18.933  0.00  0.00    -0.532 OA
ENDBRANCH  24  28
ENDBRANCH   1  22
TORSDOF 4
ENDMDL
MODEL 4
REMARK VINA RESULT:      -5.1      7.730      9.842
REMARK  4 active torsions:
REMARK  status: ('A' for Active; 'I' for Inactive)
REMARK    1  A    between atoms: C_2  and  C_1 
REMARK    2  A    between atoms: C_3  and  C_1 
REMARK    3  A    between atoms: C_9  and  C_1 
REMARK    4  A    between atoms: N_4  and  C_10 
ROOT
ATOM      1  C   UNL d   1     -48.504  13.279  22.456  0.00  0.00     0.012 C 
ENDROOT
BRANCH   1   2
ATOM      2  C   UNL d   1     -47.704  13.496  22.434  0.00  0.00     0.077 A 
ATOM      3  C   UNL d   1     -47.380  13.948  23.046  0.00  0.00     0.195 A 
ATOM      4  C   UNL d   1     -46.583  14.165  23.026  0.00  0.00     0.019 A 
ATOM      5  O   UNL d   1     -47.861  14.184  23.681  0.00  0.00    -0.287 OA
ATOM      6  C   UNL d   1     -46.103  13.926  22.387  0.00  0.00     0.043 A 
ATOM      7  C   UNL d   1     -46.434  13.475  21.781  0.00  0.00     0.019 A 
ATOM      8  C   UNL d   1     -45.464  13.816  21.890  0.00  0.00     0.009 C 
ATOM      9  C   UNL d   1     -45.640  14.363  22.905  0.00  0.00     0.009 C 
ATOM     10  C   UNL d   1     -47.227  13.255  21.793  0.00  0.00     0.195 A 
ATOM     11  O   UNL d   1     -47.548  12.799  21.173  0.00  0.00    -0.287 OA
ENDBRANCH   1   2
BRANCH   1  12
ATOM     12  C   UNL d   1     -49.183  13.628  22.148  0.00  0.00     0.077 A 
ATOM     13  C   UNL d   1     -49.565  14.232  22.556  0.00  0.00     0.195 A 
ATOM     14  C   UNL d   1     -50.238  14.586  22.264  0.00  0.00     0.019 A 
ATOM     15  O   UNL d   1     -49.259  14.483  23.274  0.00  0.00    -0.287 OA
ATOM     16  C   UNL d   1     -50.541  14.327  21.539  0.00  0.00     0.043 A 
ATOM     17  C   UNL d   1     -50.173  13.719  21.109  0.00  0.00     0.019 A 
ATOM     18  C   UNL d   1     -51.064  14.916  21.757  0.00  0.00     0.009 C 
ATOM     19  C   UNL d   1     -50.981  14.199  20.838  0.00  0.00     0.009 C 
ATOM     20  C   UNL d   1     -49.486  13.371  21.425  0.00  0.00     0.195 A 
ATOM     21  O   UNL d   1     -49.123  12.765  20.992  0.00  0.00    -0.287 OA
ENDBRANCH   1  12
BRANCH   1  22
ATOM     22  C   UNL d   1     -48.677  12.587  22.856  0.00  0.00     0.002 A 
ATOM     23  C   UNL d   1     -48.146  11.947  22.813  0.00  0.00     0.024 A 
ATOM     24  C   UNL d   1     -48.320  11.254  23.214  0.00  0.00     0.127 A 
ATOM     25  C   UNL d   1     -49.024  11.200  23.658  0.00  0.00     0.024 A 
ATOM     26  C   UNL d   1     -49.536  11.824  23.697  0.00  0.00     0.002 A 
ATOM     27  C   UNL d   1     -49.359  12.527  23.290  0.00  0.00     0.000 A 
BRANCH  24  28
ATOM     28  N   UNL d   1     -47.782  10.618  23.164  0.00  0.00    -0.114 N 
ATOM     29  O   UNL d   1     -47.869  10.042  22.593  0.00  0.00    -0.532 OA
ATOM     30  O   UNL d   1     -47.145  10.557  23.697  0.00  0.00    -0.532 OA
ENDBRANCH  24  28
ENDBRANCH   1  22
TORSDOF 4
ENDMDL
MODEL 5
REMARK VINA RESULT:      -4.8      7.259      9.439
REMARK  4 active torsions:
REMARK  status: ('A' for Active; 'I' for Inactive)
REMARK    1  A    between atoms: C_2  and  C_1 
REMARK    2  A    between atoms: C_3  and  C_1 
REMARK    3  A    between atoms: C_9  and  C_1 
REMARK    4  A    between atoms: N_4  and  C_10 
ROOT
ATOM      1  C   UNL d   1     -47.634  13.281  22.486  0.00  0.00     0.012 C 
ENDROOT
BRANCH   1   2
ATOM      2  C   UNL d   1     -48.196  13.881  22.379  0.00  0.00     0.077 A 
ATOM      3  C   UNL d   1     -48.625  13.925  21.673  0.00  0.00     0.195 A 
ATOM      4  C   UNL d   1     -49.185  14.522  21.564  0.00  0.00     0.019 A 
ATOM      5  O   UNL d   1     -48.489  13.365  21.074  0.00  0.00    -0.287 OA
ATOM      6  C   UNL d   1     -49.319  15.082  22.167  0.00  0.00     0.043 A 
ATOM      7  C   UNL d   1     -48.887  15.030  22.867  0.00  0.00     0.019 A 
ATOM      8  C   UNL d   1     -49.612  15.714  22.593  0.00  0.00     0.009 C 
ATOM      9  C   UNL d   1     -49.816  15.259  21.539  0.00  0.00     0.009 C 
ATOM     10  C   UNL d   1     -48.327  14.439  22.984  0.00  0.00     0.195 A 
ATOM     11  O   UNL d   1     -47.897  14.399  23.698  0.00  0.00    -0.287 OA
ENDBRANCH   1   2
BRANCH   1  12
ATOM     12  C   UNL d   1     -46.840  13.217  22.277  0.00  0.00     0.077 A 
ATOM     13  C   UNL d   1     -46.252  13.517  22.769  0.00  0.00     0.195 A 
ATOM     14  C   UNL d   1     -45.464  13.462  22.576  0.00  0.00     0.019 A 
ATOM     15  O   UNL d   1     -46.468  13.882  23.471  0.00  0.00    -0.287 OA
ATOM     16  C   UNL d   1     -45.253  13.093  21.865  0.00  0.00     0.043 A 
ATOM     17  C   UNL d   1     -45.828  12.782  21.352  0.00  0.00     0.019 A 
ATOM     18  C   UNL d   1     -44.531  13.308  22.182  0.00  0.00     0.009 C 
ATOM     19  C   UNL d   1     -44.862  12.761  21.203  0.00  0.00     0.009 C 
ATOM     20  C   UNL d   1     -46.629  12.850  21.570  0.00  0.00     0.195 A 
ATOM     21  O   UNL d   1     -47.199  12.538  21.055  0.00  0.00    -0.287 OA
ENDBRANCH   1  12
BRANCH   1  22
ATOM     22  C   UNL d   1     -47.896  12.609  22.874  0.00  0.00     0.002 A 
ATOM     23  C   UNL d   1     -48.699  12.396  22.822  0.00  0.00     0.024 A 
ATOM     24  C   UNL d   1     -48.962  11.724  23.210  0.00  0.00     0.127 A 
ATOM     25  C   UNL d   1     -48.421  11.265  23.651  0.00  0.00     0.024 A 
ATOM     26  C   UNL d   1     -47.644  11.477  23.698  0.00  0.00     0.002 A 
ATOM     27  C   UNL d   1     -47.377  12.158  23.304  0.00  0.00     0.000 A 
BRANCH  24  28
ATOM     28  N   UNL d   1     -49.768  11.518  23.152  0.00  0.00    -0.114 N 
ATOM     29  O   UNL d   1     -50.030  11.023  22.559  0.00  0.00    -0.532 OA
ATOM     30  O   UNL d   1     -50.323  11.813  23.698  0.00  0.00    -0.532 OA
ENDBRANCH  24  28
ENDBRANCH   1  22
TORSDOF 4
ENDMDL
MODEL 6
REMARK VINA RESULT:      -4.8      7.723      9.973
REMARK  4 active torsions:
REMARK  status: ('A' for Active; 'I' for Inactive)
REMARK    1  A    between atoms: C_2  and  C_1 
REMARK    2  A    between atoms: C_3  and  C_1 
REMARK    3  A    between atoms: C_9  and  C_1 
REMARK    4  A    between atoms: N_4  and  C_10 
ROOT
ATOM      1  C   UNL d   1     -48.156  13.505  22.266  0.00  0.00     0.012 C 
ENDROOT
BRANCH   1   2
ATOM      2  C   UNL d   1     -47.351  13.312  22.291  0.00  0.00     0.077 A 
ATOM      3  C   UNL d   1     -46.932  13.368  23.002  0.00  0.00     0.195 A 
ATOM      4  C   UNL d   1     -46.129  13.176  23.028  0.00  0.00     0.019 A 
ATOM      5  O   UNL d   1     -47.325  13.619  23.691  0.00  0.00    -0.287 OA
ATOM      6  C   UNL d   1     -45.739  12.926  22.336  0.00  0.00     0.043 A 
ATOM      7  C   UNL d   1     -46.164  12.873  21.631  0.00  0.00     0.019 A 
ATOM      8  C   UNL d   1     -45.167  12.668  21.813  0.00  0.00     0.009 C 
ATOM      9  C   UNL d   1     -45.194  12.928  22.949  0.00  0.00     0.009 C 
ATOM     10  C   UNL d   1     -46.963  13.062  21.596  0.00  0.00     0.195 A 
ATOM     11  O   UNL d   1     -47.381  13.003  20.876  0.00  0.00    -0.287 OA
ENDBRANCH   1   2
BRANCH   1  12
ATOM     12  C   UNL d   1     -48.839  13.046  22.270  0.00  0.00     0.077 A 
ATOM     13  C   UNL d   1     -49.248  12.898  21.572  0.00  0.00     0.195 A 
ATOM     14  C   UNL d   1     -49.925  12.446  21.560  0.00  0.00     0.019 A 
ATOM     15  O   UNL d   1     -48.966  13.215  20.870  0.00  0.00    -0.287 OA
ATOM     16  C   UNL d   1     -50.205  12.129  22.272  0.00  0.00     0.043 A 
ATOM     17  C   UNL d   1     -49.809  12.264  22.990  0.00  0.00     0.019 A 
ATOM     18  C   UNL d   1     -50.750  11.862  21.725  0.00  0.00     0.009 C 
ATOM     19  C   UNL d   1     -50.625  11.736  22.880  0.00  0.00     0.009 C 
ATOM     20  C   UNL d   1     -49.119  12.730  22.979  0.00  0.00     0.195 A 
ATOM     21  O   UNL d   1     -48.728  12.862  23.698  0.00  0.00    -0.287 OA
ENDBRANCH   1  12
BRANCH   1  22
ATOM     22  C   UNL d   1     -48.333  14.304  22.232  0.00  0.00     0.002 A 
ATOM     23  C   UNL d   1     -49.028  14.584  22.595  0.00  0.00     0.024 A 
ATOM     24  C   UNL d   1     -49.204  15.383  22.560  0.00  0.00     0.127 A 
ATOM     25  C   UNL d   1     -48.686  15.903  22.162  0.00  0.00     0.024 A 
ATOM     26  C   UNL d   1     -48.014  15.626  21.812  0.00  0.00     0.002 A 
ATOM     27  C   UNL d   1     -47.835  14.815  21.847  0.00  0.00     0.000 A 
BRANCH  24  28
ATOM     28  N   UNL d   1     -49.902  15.654  22.927  0.00  0.00    -0.114 N 
ATOM     29  O   UNL d   1     -49.891  15.922  23.698  0.00  0.00    -0.532 OA
ATOM     30  O   UNL d   1     -50.626  15.659  22.515  0.00  0.00    -0.532 OA
ENDBRANCH  24  28
ENDBRANCH   1  22
TORSDOF 4
ENDMDL
MODEL 7
REMARK VINA RESULT:      -4.3      7.271      9.401
REMARK  4 active torsions:
REMARK  status: ('A' for Active; 'I' for Inactive)
REMARK    1  A    between atoms: C_2  and  C_1 
REMARK    2  A    between atoms: C_3  and  C_1 
REMARK    3  A    between atoms: C_9  and  C_1 
REMARK    4  A    between atoms: N_4  and  C_10 
ROOT
ATOM      1  C   UNL d   1     -47.609  13.234  22.494  0.00  0.00     0.012 C 
ENDROOT
BRANCH   1   2
ATOM      2  C   UNL d   1     -46.812  13.169  22.274  0.00  0.00     0.077 A 
ATOM      3  C   UNL d   1     -46.610  12.868  21.531  0.00  0.00     0.195 A 
ATOM      4  C   UNL d   1     -45.816  12.803  21.310  0.00  0.00     0.019 A 
ATOM      5  O   UNL d   1     -47.210  12.632  21.006  0.00  0.00    -0.287 OA
ATOM      6  C   UNL d   1     -45.218  13.041  21.839  0.00  0.00     0.043 A 
ATOM      7  C   UNL d   1     -45.428  13.340  22.578  0.00  0.00     0.019 A 
ATOM      8  C   UNL d   1     -44.488  13.201  22.170  0.00  0.00     0.009 C 
ATOM      9  C   UNL d   1     -44.859  12.769  21.152  0.00  0.00     0.009 C 
ATOM     10  C   UNL d   1     -46.215  13.408  22.805  0.00  0.00     0.195 A 
ATOM     11  O   UNL d   1     -46.413  13.712  23.557  0.00  0.00    -0.287 OA
ENDBRANCH   1   2
BRANCH   1  12
ATOM     12  C   UNL d   1     -48.162  13.837  22.409  0.00  0.00     0.077 A 
ATOM     13  C   UNL d   1     -48.629  13.885  21.733  0.00  0.00     0.195 A 
ATOM     14  C   UNL d   1     -49.180  14.476  21.635  0.00  0.00     0.019 A 
ATOM     15  O   UNL d   1     -48.535  13.323  21.144  0.00  0.00    -0.287 OA
ATOM     16  C   UNL d   1     -49.270  15.040  22.234  0.00  0.00     0.043 A 
ATOM     17  C   UNL d   1     -48.810  15.013  22.925  0.00  0.00     0.019 A 
ATOM     18  C   UNL d   1     -49.818  15.276  21.676  0.00  0.00     0.009 C 
ATOM     19  C   UNL d   1     -49.493  15.682  22.723  0.00  0.00     0.009 C 
ATOM     20  C   UNL d   1     -48.252  14.400  23.005  0.00  0.00     0.195 A 
ATOM     21  O   UNL d   1     -47.796  14.377  23.697  0.00  0.00    -0.287 OA
ENDBRANCH   1  12
BRANCH   1  22
ATOM     22  C   UNL d   1     -47.931  12.582  22.870  0.00  0.00     0.002 A 
ATOM     23  C   UNL d   1     -48.745  12.427  22.790  0.00  0.00     0.024 A 
ATOM     24  C   UNL d   1     -49.067  11.775  23.167  0.00  0.00     0.127 A 
ATOM     25  C   UNL d   1     -48.577  11.278  23.624  0.00  0.00     0.024 A 
ATOM     26  C   UNL d   1     -47.788  11.434  23.698  0.00  0.00     0.002 A 
ATOM     27  C   UNL d   1     -47.460  12.095  23.316  0.00  0.00     0.000 A 
BRANCH  24  28
ATOM     28  N   UNL d   1     -49.884  11.627  23.081  0.00  0.00    -0.114 N 
ATOM     29  O   UNL d   1     -50.425  11.976  23.583  0.00  0.00    -0.532 OA
ATOM     30  O   UNL d   1     -50.165  11.121  22.483  0.00  0.00    -0.532 OA
ENDBRANCH  24  28
ENDBRANCH   1  22
TORSDOF 4
ENDMDL
MODEL 8
REMARK VINA RESULT:      -4.2      1.495      1.958
REMARK  4 active torsions:
REMARK  status: ('A' for Active; 'I' for Inactive)
REMARK    1  A    between atoms: C_2  and  C_1 
REMARK    2  A    between atoms: C_3  and  C_1 
REMARK    3  A    between atoms: C_9  and  C_1 
REMARK    4  A    between atoms: N_4  and  C_10 
ROOT
ATOM      1  C   UNL d   1     -39.401  14.517  19.372  0.00  0.00     0.012 C 
ENDROOT
BRANCH   1   2
ATOM      2  C   UNL d   1     -39.121  14.729  18.621  0.00  0.00     0.077 A 
ATOM      3  C   UNL d   1     -39.378  14.317  17.951  0.00  0.00     0.195 A 
ATOM      4  C   UNL d   1     -39.100  14.527  17.202  0.00  0.00     0.019 A 
ATOM      5  O   UNL d   1     -39.919  13.692  18.036  0.00  0.00    -0.287 OA
ATOM      6  C   UNL d   1     -38.558  15.155  17.121  0.00  0.00     0.043 A 
ATOM      7  C   UNL d   1     -38.307  15.560  17.794  0.00  0.00     0.019 A 
ATOM      8  C   UNL d   1     -38.047  15.709  16.804  0.00  0.00     0.009 C 
ATOM      9  C   UNL d   1     -38.713  14.853  16.374  0.00  0.00     0.009 C 
ATOM     10  C   UNL d   1     -38.579  15.358  18.543  0.00  0.00     0.195 A 
ATOM     11  O   UNL d   1     -38.316  15.776  19.216  0.00  0.00    -0.287 OA
ENDBRANCH   1   2
BRANCH   1  12
ATOM     12  C   UNL d   1     -40.087  14.710  19.785  0.00  0.00     0.077 A 
ATOM     13  C   UNL d   1     -40.134  15.411  20.214  0.00  0.00     0.195 A 
ATOM     14  C   UNL d   1     -40.804  15.615  20.627  0.00  0.00     0.019 A 
ATOM     15  O   UNL d   1     -39.488  15.915  20.224  0.00  0.00    -0.287 OA
ATOM     16  C   UNL d   1     -41.453  15.101  20.613  0.00  0.00     0.043 A 
ATOM     17  C   UNL d   1     -41.429  14.388  20.187  0.00  0.00     0.019 A 
ATOM     18  C   UNL d   1     -41.715  15.714  21.085  0.00  0.00     0.009 C 
ATOM     19  C   UNL d   1     -42.189  14.713  20.710  0.00  0.00     0.009 C 
ATOM     20  C   UNL d   1     -40.734  14.199  19.771  0.00  0.00     0.195 A 
ATOM     21  O   UNL d   1     -40.715  13.486  19.348  0.00  0.00    -0.287 OA
ENDBRANCH   1  12
BRANCH   1  22
ATOM     22  C   UNL d   1     -38.920  14.018  19.807  0.00  0.00     0.002 A 
ATOM     23  C   UNL d   1     -38.878  14.111  20.633  0.00  0.00     0.024 A 
ATOM     24  C   UNL d   1     -38.396  13.612  21.068  0.00  0.00     0.127 A 
ATOM     25  C   UNL d   1     -37.955  13.019  20.678  0.00  0.00     0.024 A 
ATOM     26  C   UNL d   1     -38.000  12.934  19.876  0.00  0.00     0.002 A 
ATOM     27  C   UNL d   1     -38.489  13.441  19.434  0.00  0.00     0.000 A 
BRANCH  24  28
ATOM     28  N   UNL d   1     -38.360  13.712  21.896  0.00  0.00    -0.114 N 
ATOM     29  O   UNL d   1     -37.949  14.336  22.222  0.00  0.00    -0.532 OA
ATOM     30  O   UNL d   1     -38.742  13.177  22.407  0.00  0.00    -0.532 OA
ENDBRANCH  24  28
ENDBRANCH   1  22
TORSDOF 4
ENDMDL
MODEL 9
REMARK VINA RESULT:      -3.9      1.751      3.579
REMARK  4 active torsions:
REMARK  status: ('A' for Active; 'I' for Inactive)
REMARK    1  A    between atoms: C_2  and  C_1 
REMARK    2  A    between atoms: C_3  and  C_1 
REMARK    3  A    between atoms: C_9  and  C_1 
REMARK    4  A    between atoms: N_4  and  C_10 
ROOT
ATOM      1  C   UNL d   1     -40.599  14.587  20.811  0.00  0.00     0.012 C 
ENDROOT
BRANCH   1   2
ATOM      2  C   UNL d   1     -41.293  14.159  20.960  0.00  0.00     0.077 A 
ATOM      3  C   UNL d   1     -42.015  14.555  21.037  0.00  0.00     0.195 A 
ATOM      4  C   UNL d   1     -42.708  14.129  21.186  0.00  0.00     0.019 A 
ATOM      5  O   UNL d   1     -42.041  15.382  20.963  0.00  0.00    -0.287 OA
ATOM      6  C   UNL d   1     -42.679  13.300  21.260  0.00  0.00     0.043 A 
ATOM      7  C   UNL d   1     -41.954  12.914  21.182  0.00  0.00     0.019 A 
ATOM      8  C   UNL d   1     -42.892  12.518  21.367  0.00  0.00     0.009 C 
ATOM      9  C   UNL d   1     -43.458  13.538  21.360  0.00  0.00     0.009 C 
ATOM     10  C   UNL d   1     -41.260  13.329  21.034  0.00  0.00     0.195 A 
ATOM     11  O   UNL d   1     -40.534  12.925  20.958  0.00  0.00    -0.287 OA
ENDBRANCH   1   2
BRANCH   1  12
ATOM     12  C   UNL d   1     -39.966  14.805  21.289  0.00  0.00     0.077 A 
ATOM     13  C   UNL d   1     -40.011  15.474  21.766  0.00  0.00     0.195 A 
ATOM     14  C   UNL d   1     -39.393  15.702  22.243  0.00  0.00     0.019 A 
ATOM     15  O   UNL d   1     -40.698  15.922  21.759  0.00  0.00    -0.287 OA
ATOM     16  C   UNL d   1     -38.702  15.245  22.245  0.00  0.00     0.043 A 
ATOM     17  C   UNL d   1     -38.632  14.566  21.772  0.00  0.00     0.019 A 
ATOM     18  C   UNL d   1     -38.529  15.842  22.777  0.00  0.00     0.009 C 
ATOM     19  C   UNL d   1     -37.944  14.914  22.374  0.00  0.00     0.009 C 
ATOM     20  C   UNL d   1     -39.277  14.351  21.292  0.00  0.00     0.195 A 
ATOM     21  O   UNL d   1     -39.202  13.672  20.822  0.00  0.00    -0.287 OA
ENDBRANCH   1  12
BRANCH   1  22
ATOM     22  C   UNL d   1     -40.503  14.857  20.044  0.00  0.00     0.002 A 
ATOM     23  C   UNL d   1     -40.312  14.315  19.442  0.00  0.00     0.024 A 
ATOM     24  C   UNL d   1     -40.216  14.585  18.675  0.00  0.00     0.127 A 
ATOM     25  C   UNL d   1     -40.310  15.398  18.508  0.00  0.00     0.024 A 
ATOM     26  C   UNL d   1     -40.495  15.919  19.097  0.00  0.00     0.002 A 
ATOM     27  C   UNL d   1     -40.592  15.645  19.875  0.00  0.00     0.000 A 
BRANCH  24  28
ATOM     28  N   UNL d   1     -40.025  14.034  18.078  0.00  0.00    -0.114 N 
ATOM     29  O   UNL d   1     -39.251  13.809  17.951  0.00  0.00    -0.532 OA
ATOM     30  O   UNL d   1     -40.620  13.702  17.599  0.00  0.00    -0.532 OA
ENDBRANCH  24  28
ENDBRANCH   1  22
TORSDOF 4
ENDMDL
