MODEL 1
REMARK VINA RESULT:      14.0      0.000      0.000
REMARK  4 active torsions:
REMARK  status: ('A' for Active; 'I' for Inactive)
REMARK    1  A    between atoms: C_2  and  S_1 
REMARK    2  A    between atoms: C_15  and  S_1 
REMARK    3  A    between atoms: C_5  and  C_3 
REMARK    4  A    between atoms: C_16  and  C_5 
ROOT
ATOM      1  C   UNL d   1      57.077  -0.422  32.259  0.00  0.00     0.094 A 
ATOM      2  C   UNL d   1      57.303   0.222  32.725  0.00  0.00     0.069 A 
ATOM      3  C   UNL d   1      57.499  -0.604  31.575  0.00  0.00     0.031 A 
ATOM      4  C   UNL d   1      58.146  -0.144  31.355  0.00  0.00     0.084 A 
ATOM      5  C   UNL d   1      57.272  -1.246  31.112  0.00  0.00     0.029 A 
ATOM      6  N   UNL d   1      58.373   0.499  31.819  0.00  0.00    -0.244 NA
ATOM      7  C   UNL d   1      57.950   0.682  32.505  0.00  0.00     0.103 A 
ATOM      8  C   UNL d   1      58.569  -0.325  30.671  0.00  0.00     0.046 A 
ATOM      9  C   UNL d   1      57.694  -1.427  30.428  0.00  0.00     0.123 A 
ATOM     10  C   UNL d   1      58.342  -0.967  30.209  0.00  0.00     0.124 A 
ATOM     11  O   UNL d   1      57.467  -2.068  29.966  0.00  0.00    -0.301 OA
ATOM     12  O   UNL d   1      58.764  -1.148  29.525  0.00  0.00    -0.301 OA
ATOM     13  C   UNL d   1      57.891  -2.254  29.275  0.00  0.00     0.149 A 
ATOM     14  C   UNL d   1      58.538  -1.794  29.055  0.00  0.00     0.149 A 
ENDROOT
BRANCH   1  15
ATOM     15  S   UNL d   1      56.430  -0.888  32.472  0.00  0.00     0.210 S 
ATOM     16  O   UNL d   1      56.949  -1.470  32.742  0.00  0.00    -0.217 OA
ATOM     17  O   UNL d   1      55.911  -0.306  32.202  0.00  0.00    -0.217 OA
BRANCH  15  18
ATOM     18  C   UNL d   1      55.794  -1.366  32.691  0.00  0.00     0.088 A 
ATOM     19  C   UNL d   1      55.048  -1.241  32.365  0.00  0.00     0.011 A 
ATOM     20  C   UNL d   1      54.414  -1.726  32.590  0.00  0.00     0.001 A 
ATOM     21  C   UNL d   1      54.531  -2.330  33.137  0.00  0.00     0.000 A 
ATOM     22  C   UNL d   1      55.273  -2.457  33.462  0.00  0.00     0.001 A 
ATOM     23  C   UNL d   1      55.911  -1.971  33.238  0.00  0.00     0.011 A 
ENDBRANCH  15  18
ENDBRANCH   1  15
BRANCH   2  24
ATOM     24  C   UNL d   1      56.880   0.408  33.415  0.00  0.00     0.198 C 
ATOM     25  O   UNL d   1      56.063   0.524  33.381  0.00  0.00    -0.286 OA
BRANCH  24  26
ATOM     26  C   UNL d   1      57.277   0.476  34.135  0.00  0.00     0.039 A 
ATOM     27  C   UNL d   1      58.106   0.431  34.165  0.00  0.00     0.003 A 
ATOM     28  C   UNL d   1      58.505   0.499  34.884  0.00  0.00     0.000 A 
ATOM     29  C   UNL d   1      58.083   0.613  35.584  0.00  0.00     0.000 A 
ATOM     30  C   UNL d   1      57.246   0.658  35.554  0.00  0.00     0.000 A 
ATOM     31  C   UNL d   1      58.472   0.681  36.303  0.00  0.00     0.000 C 
ATOM     32  C   UNL d   1      56.845   0.591  34.838  0.00  0.00     0.003 A 
ENDBRANCH  24  26
ENDBRANCH   2  24
TORSDOF 4
ENDMDL
