MODEL 1
REMARK VINA RESULT:      -3.8      0.000      0.000
REMARK  5 active torsions:
REMARK  status: ('A' for Active; 'I' for Inactive)
REMARK    1  A    between atoms: C_2  and  C_1 
REMARK       I    between atoms: N_3  and  C_1 
REMARK    2  A    between atoms: C_6  and  N_4 
REMARK    3  A    between atoms: O_19  and  C_5 
REMARK    4  A    between atoms: O_22  and  C_7 
REMARK    5  A    between atoms: O_23  and  C_8 
ROOT
ATOM      1  C   UNL d   1      58.163  -0.001  29.509  0.00  0.00     0.265 C 
ATOM      2  N   UNL d   1      57.779   0.070  30.233  0.00  0.00    -0.269 N 
ATOM      3  N   UNL d   1      57.007   0.211  31.688  0.00  0.00    -0.301 N 
ATOM      4  C   UNL d   1      57.160   0.606  30.320  0.00  0.00     0.102 A 
ATOM      5  C   UNL d   1      58.010  -0.396  30.878  0.00  0.00     0.102 A 
ATOM      6  C   UNL d   1      57.626  -0.325  31.600  0.00  0.00     0.100 A 
ATOM      7  C   UNL d   1      56.772   0.678  31.051  0.00  0.00     0.100 A 
ATOM      8  O   UNL d   1      57.930   0.465  28.870  0.00  0.00    -0.267 OA
ENDROOT
BRANCH   1   9
ATOM      9  C   UNL d   1      58.781  -0.537  29.422  0.00  0.00     0.061 A 
ATOM     10  C   UNL d   1      58.632  -1.303  29.131  0.00  0.00     0.031 A 
ATOM     11  C   UNL d   1      59.255  -1.840  29.044  0.00  0.00     0.118 A 
ATOM     12  C   UNL d   1      60.022  -1.617  29.245  0.00  0.00     0.138 A 
ATOM     13  C   UNL d   1      60.170  -0.858  29.533  0.00  0.00     0.118 A 
ATOM     14  C   UNL d   1      59.552  -0.315  29.623  0.00  0.00     0.031 A 
BRANCH  11  15
ATOM     15  O   UNL d   1      59.104  -2.597  28.756  0.00  0.00    -0.326 OA
ATOM     16  C   UNL d   1      58.377  -2.959  28.898  0.00  0.00     0.181 C 
ENDBRANCH  11  15
BRANCH  12  17
ATOM     17  O   UNL d   1      60.641  -2.152  29.158  0.00  0.00    -0.324 OA
ATOM     18  C   UNL d   1      61.072  -2.174  28.455  0.00  0.00     0.182 C 
ENDBRANCH  12  17
BRANCH  13  19
ATOM     19  O   UNL d   1      60.946  -0.629  29.738  0.00  0.00    -0.326 OA
ATOM     20  C   UNL d   1      61.097   0.153  29.948  0.00  0.00     0.181 C 
ENDBRANCH  13  19
ENDBRANCH   1   9
BRANCH   3  21
ATOM     21  C   UNL d   1      56.621   0.282  32.416  0.00  0.00     0.064 A 
ATOM     22  C   UNL d   1      57.042   0.517  33.079  0.00  0.00     0.016 A 
ATOM     23  C   UNL d   1      56.664   0.588  33.802  0.00  0.00     0.001 A 
ATOM     24  C   UNL d   1      57.847   0.682  33.014  0.00  0.00     0.002 C 
ATOM     25  C   UNL d   1      55.851   0.420  33.865  0.00  0.00     0.000 A 
ATOM     26  C   UNL d   1      55.430   0.183  33.193  0.00  0.00     0.002 A 
ATOM     27  C   UNL d   1      55.466   0.490  34.588  0.00  0.00     0.000 C 
ATOM     28  C   UNL d   1      55.815   0.113  32.468  0.00  0.00     0.018 A 
ENDBRANCH   3  21
TORSDOF 5
ENDMDL
