MODEL 1
REMARK VINA RESULT:      -9.8      0.000      0.000
REMARK  3 active torsions:
REMARK  status: ('A' for Active; 'I' for Inactive)
REMARK    1  A    between atoms: N_3  and  C_1 
REMARK    2  A    between atoms: C_8  and  N_2 
REMARK       I    between atoms: C_4  and  N_3 
REMARK    3  A    between atoms: C_7  and  C_4 
ROOT
ATOM      1  C   UNL d   1      53.020  33.394  53.896  0.00  0.00     0.185 A 
ATOM      2  N   UNL d   1      52.575  34.083  53.722  0.00  0.00    -0.254 N 
ATOM      3  S   UNL d   1      53.639  33.615  54.384  0.00  0.00    -0.044 SA
ATOM      4  C   UNL d   1      52.929  34.705  54.107  0.00  0.00     0.273 A 
ATOM      5  C   UNL d   1      53.585  34.421  54.515  0.00  0.00     0.099 A 
ATOM      6  O   UNL d   1      52.670  35.490  54.087  0.00  0.00    -0.266 OA
ENDROOT
BRANCH   1   7
ATOM      7  N   UNL d   1      52.863  32.627  53.622  0.00  0.00    -0.182 NA
ATOM      8  C   UNL d   1      53.429  32.040  53.691  0.00  0.00     0.304 C 
ATOM      9  O   UNL d   1      54.164  32.211  54.035  0.00  0.00    -0.263 OA
BRANCH   8  10
ATOM     10  C   UNL d   1      53.276  31.272  53.418  0.00  0.00     0.158 A 
ATOM     11  O   UNL d   1      52.956  31.084  52.686  0.00  0.00    -0.300 OA
ATOM     12  C   UNL d   1      52.899  30.261  52.647  0.00  0.00     0.123 A 
ATOM     13  C   UNL d   1      53.183  29.951  53.352  0.00  0.00     0.029 A 
ATOM     14  C   UNL d   1      53.417  30.564  53.833  0.00  0.00     0.032 A 
ENDBRANCH   8  10
ENDBRANCH   1   7
BRANCH   2  15
ATOM     15  C   UNL d   1      51.899  34.112  53.246  0.00  0.00     0.069 A 
ATOM     16  C   UNL d   1      51.985  34.297  52.448  0.00  0.00     0.018 A 
ATOM     17  C   UNL d   1      51.311  34.328  51.963  0.00  0.00     0.002 A 
ATOM     18  C   UNL d   1      50.562  34.173  52.285  0.00  0.00     0.000 A 
ATOM     19  C   UNL d   1      50.485  33.988  53.086  0.00  0.00     0.002 A 
ATOM     20  C   UNL d   1      51.153  33.957  53.564  0.00  0.00     0.018 A 
ENDBRANCH   2  15
TORSDOF 3
ENDMDL
MODEL 2
REMARK VINA RESULT:      -9.5      1.107      2.533
REMARK  3 active torsions:
REMARK  status: ('A' for Active; 'I' for Inactive)
REMARK    1  A    between atoms: N_3  and  C_1 
REMARK    2  A    between atoms: C_8  and  N_2 
REMARK       I    between atoms: C_4  and  N_3 
REMARK    3  A    between atoms: C_7  and  C_4 
ROOT
ATOM      1  C   UNL d   1      52.813  33.017  53.421  0.00  0.00     0.185 A 
ATOM      2  N   UNL d   1      53.197  33.690  53.741  0.00  0.00    -0.254 N 
ATOM      3  S   UNL d   1      52.215  33.283  52.929  0.00  0.00    -0.044 SA
ATOM      4  C   UNL d   1      52.826  34.348  53.439  0.00  0.00     0.273 A 
ATOM      5  C   UNL d   1      52.222  34.101  52.938  0.00  0.00     0.099 A 
ATOM      6  O   UNL d   1      53.028  35.131  53.610  0.00  0.00    -0.266 OA
ENDROOT
BRANCH   1   7
ATOM      7  N   UNL d   1      53.004  32.225  53.575  0.00  0.00    -0.182 NA
ATOM      8  C   UNL d   1      52.759  31.634  53.064  0.00  0.00     0.304 C 
ATOM      9  O   UNL d   1      52.317  31.827  52.389  0.00  0.00    -0.263 OA
BRANCH   8  10
ATOM     10  C   UNL d   1      52.948  30.841  53.215  0.00  0.00     0.158 A 
ATOM     11  O   UNL d   1      53.696  30.559  53.401  0.00  0.00    -0.300 OA
ATOM     12  C   UNL d   1      53.631  29.742  53.505  0.00  0.00     0.123 A 
ATOM     13  C   UNL d   1      52.849  29.530  53.383  0.00  0.00     0.029 A 
ATOM     14  C   UNL d   1      52.420  30.197  53.204  0.00  0.00     0.032 A 
ENDBRANCH   8  10
ENDBRANCH   1   7
BRANCH   2  15
ATOM     15  C   UNL d   1      53.834  33.676  54.268  0.00  0.00     0.069 A 
ATOM     16  C   UNL d   1      53.680  33.636  55.076  0.00  0.00     0.018 A 
ATOM     17  C   UNL d   1      54.315  33.621  55.612  0.00  0.00     0.002 A 
ATOM     18  C   UNL d   1      55.095  33.646  55.328  0.00  0.00     0.000 A 
ATOM     19  C   UNL d   1      55.241  33.686  54.517  0.00  0.00     0.002 A 
ATOM     20  C   UNL d   1      54.611  33.700  53.989  0.00  0.00     0.018 A 
ENDBRANCH   2  15
TORSDOF 3
ENDMDL
MODEL 3
REMARK VINA RESULT:      -9.0      1.469      3.705
REMARK  3 active torsions:
REMARK  status: ('A' for Active; 'I' for Inactive)
REMARK    1  A    between atoms: N_3  and  C_1 
REMARK    2  A    between atoms: C_8  and  N_2 
REMARK       I    between atoms: C_4  and  N_3 
REMARK    3  A    between atoms: C_7  and  C_4 
ROOT
ATOM      1  C   UNL d   1      52.805  31.890  53.206  0.00  0.00     0.185 A 
ATOM      2  N   UNL d   1      53.507  31.735  53.637  0.00  0.00    -0.254 N 
ATOM      3  S   UNL d   1      52.533  31.177  52.910  0.00  0.00    -0.044 SA
ATOM      4  C   UNL d   1      53.647  30.935  53.596  0.00  0.00     0.273 A 
ATOM      5  C   UNL d   1      53.049  30.588  53.148  0.00  0.00     0.099 A 
ATOM      6  O   UNL d   1      54.284  30.542  53.946  0.00  0.00    -0.266 OA
ENDROOT
BRANCH   1   7
ATOM      7  N   UNL d   1      52.450  32.632  53.098  0.00  0.00    -0.182 NA
ATOM      8  C   UNL d   1      51.645  32.688  52.960  0.00  0.00     0.304 C 
ATOM      9  O   UNL d   1      51.181  32.001  52.927  0.00  0.00    -0.263 OA
BRANCH   8  10
ATOM     10  C   UNL d   1      51.286  33.428  52.851  0.00  0.00     0.158 A 
ATOM     11  O   UNL d   1      51.468  33.959  52.254  0.00  0.00    -0.300 OA
ATOM     12  C   UNL d   1      50.981  34.619  52.355  0.00  0.00     0.123 A 
ATOM     13  C   UNL d   1      50.506  34.488  53.011  0.00  0.00     0.029 A 
ATOM     14  C   UNL d   1      50.685  33.759  53.324  0.00  0.00     0.032 A 
ENDBRANCH   8  10
ENDBRANCH   1   7
BRANCH   2  15
ATOM     15  C   UNL d   1      53.965  32.301  54.030  0.00  0.00     0.069 A 
ATOM     16  C   UNL d   1      54.537  32.712  53.604  0.00  0.00     0.018 A 
ATOM     17  C   UNL d   1      55.002  33.282  53.992  0.00  0.00     0.002 A 
ATOM     18  C   UNL d   1      54.885  33.430  54.800  0.00  0.00     0.000 A 
ATOM     19  C   UNL d   1      54.309  33.014  55.219  0.00  0.00     0.002 A 
ATOM     20  C   UNL d   1      53.851  32.451  54.834  0.00  0.00     0.018 A 
ENDBRANCH   2  15
TORSDOF 3
ENDMDL
MODEL 4
REMARK VINA RESULT:      -8.8      1.161      3.384
REMARK  3 active torsions:
REMARK  status: ('A' for Active; 'I' for Inactive)
REMARK    1  A    between atoms: N_3  and  C_1 
REMARK    2  A    between atoms: C_8  and  N_2 
REMARK       I    between atoms: C_4  and  N_3 
REMARK    3  A    between atoms: C_7  and  C_4 
ROOT
ATOM      1  C   UNL d   1      53.192  33.864  54.208  0.00  0.00     0.185 A 
ATOM      2  N   UNL d   1      53.753  33.277  54.416  0.00  0.00    -0.254 N 
ATOM      3  S   UNL d   1      53.365  34.537  54.640  0.00  0.00    -0.044 SA
ATOM      4  C   UNL d   1      54.255  33.604  54.966  0.00  0.00     0.273 A 
ATOM      5  C   UNL d   1      54.019  34.380  55.107  0.00  0.00     0.099 A 
ATOM      6  O   UNL d   1      54.892  33.216  55.321  0.00  0.00    -0.266 OA
ENDROOT
BRANCH   1   7
ATOM      7  N   UNL d   1      52.572  33.777  53.664  0.00  0.00    -0.182 NA
ATOM      8  C   UNL d   1      52.124  34.426  53.443  0.00  0.00     0.304 C 
ATOM      9  O   UNL d   1      52.289  35.173  53.763  0.00  0.00    -0.263 OA
BRANCH   8  10
ATOM     10  C   UNL d   1      51.503  34.344  52.899  0.00  0.00     0.158 A 
ATOM     11  O   UNL d   1      51.589  34.300  52.085  0.00  0.00    -0.300 OA
ATOM     12  C   UNL d   1      50.833  34.220  51.761  0.00  0.00     0.123 A 
ATOM     13  C   UNL d   1      50.291  34.216  52.377  0.00  0.00     0.029 A 
ATOM     14  C   UNL d   1      50.691  34.292  53.081  0.00  0.00     0.032 A 
ENDBRANCH   8  10
ENDBRANCH   1   7
BRANCH   2  15
ATOM     15  C   UNL d   1      53.783  32.509  54.109  0.00  0.00     0.069 A 
ATOM     16  C   UNL d   1      53.383  31.909  54.508  0.00  0.00     0.018 A 
ATOM     17  C   UNL d   1      53.408  31.134  54.206  0.00  0.00     0.002 A 
ATOM     18  C   UNL d   1      53.833  30.975  53.511  0.00  0.00     0.000 A 
ATOM     19  C   UNL d   1      54.230  31.582  53.118  0.00  0.00     0.002 A 
ATOM     20  C   UNL d   1      54.204  32.347  53.418  0.00  0.00     0.018 A 
ENDBRANCH   2  15
TORSDOF 3
ENDMDL
MODEL 5
REMARK VINA RESULT:      -7.3      1.381      2.855
REMARK  3 active torsions:
REMARK  status: ('A' for Active; 'I' for Inactive)
REMARK    1  A    between atoms: N_3  and  C_1 
REMARK    2  A    between atoms: C_8  and  N_2 
REMARK       I    between atoms: C_4  and  N_3 
REMARK    3  A    between atoms: C_7  and  C_4 
ROOT
ATOM      1  C   UNL d   1      53.226  32.157  53.470  0.00  0.00     0.185 A 
ATOM      2  N   UNL d   1      52.487  32.263  53.088  0.00  0.00    -0.254 N 
ATOM      3  S   UNL d   1      53.413  31.361  53.432  0.00  0.00    -0.044 SA
ATOM      4  C   UNL d   1      52.242  31.533  52.826  0.00  0.00     0.273 A 
ATOM      5  C   UNL d   1      52.810  30.975  53.036  0.00  0.00     0.099 A 
ATOM      6  O   UNL d   1      51.539  31.383  52.418  0.00  0.00    -0.266 OA
ENDROOT
BRANCH   1   7
ATOM      7  N   UNL d   1      53.684  32.752  53.823  0.00  0.00    -0.182 NA
ATOM      8  C   UNL d   1      54.167  32.576  54.461  0.00  0.00     0.304 C 
ATOM      9  O   UNL d   1      54.200  31.802  54.756  0.00  0.00    -0.263 OA
BRANCH   8  10
ATOM     10  C   UNL d   1      54.626  33.168  54.817  0.00  0.00     0.158 A 
ATOM     11  O   UNL d   1      55.262  33.550  54.465  0.00  0.00    -0.300 OA
ATOM     12  C   UNL d   1      55.555  34.094  55.014  0.00  0.00     0.123 A 
ATOM     13  C   UNL d   1      55.099  34.042  55.694  0.00  0.00     0.029 A 
ATOM     14  C   UNL d   1      54.526  33.476  55.584  0.00  0.00     0.032 A 
ENDBRANCH   8  10
ENDBRANCH   1   7
BRANCH   2  15
ATOM     15  C   UNL d   1      52.090  32.983  52.999  0.00  0.00     0.069 A 
ATOM     16  C   UNL d   1      51.446  33.142  53.487  0.00  0.00     0.018 A 
ATOM     17  C   UNL d   1      51.041  33.864  53.403  0.00  0.00     0.002 A 
ATOM     18  C   UNL d   1      51.290  34.413  52.832  0.00  0.00     0.000 A 
ATOM     19  C   UNL d   1      51.936  34.245  52.348  0.00  0.00     0.002 A 
ATOM     20  C   UNL d   1      52.335  33.531  52.432  0.00  0.00     0.018 A 
ENDBRANCH   2  15
TORSDOF 3
ENDMDL
