MODEL 1
REMARK VINA RESULT:      -4.9      0.000      0.000
REMARK  5 active torsions:
REMARK  status: ('A' for Active; 'I' for Inactive)
REMARK    1  A    between atoms: C_11  and  N_2 
REMARK    2  A    between atoms: C_5  and  C_3 
REMARK    3  A    between atoms: C_7  and  C_5 
REMARK    4  A    between atoms: C_8  and  C_7 
REMARK    5  A    between atoms: C_10  and  C_8 
ROOT
ATOM      1  C   UNL d   1     -41.669-122.412 -51.195  0.00  0.00     0.006 C 
ENDROOT
BRANCH   1   2
ATOM      2  C   UNL d   1     -41.666-122.847 -50.496  0.00  0.00     0.039 A 
ATOM      3  C   UNL d   1     -41.123-123.372 -50.171  0.00  0.00     0.122 A 
ATOM      4  N   UNL d   1     -41.422-123.637 -49.454  0.00  0.00    -0.164 NA
ATOM      5  N   UNL d   1     -42.148-123.281 -49.332  0.00  0.00    -0.228 N 
ATOM      6  C   UNL d   1     -42.303-122.788 -49.978  0.00  0.00     0.085 A 
ATOM      7  C   UNL d   1     -42.984-122.321 -50.079  0.00  0.00     0.021 C 
BRANCH   5   8
ATOM      8  C   UNL d   1     -42.635-123.397 -48.678  0.00  0.00     0.101 C 
ATOM      9  C   UNL d   1     -42.353-123.807 -48.018  0.00  0.00     0.022 C 
ENDBRANCH   5   8
ENDBRANCH   1   2
BRANCH   1  10
ATOM     10  C   UNL d   1     -41.313-122.720 -51.873  0.00  0.00     0.042 C 
BRANCH  10  11
ATOM     11  C   UNL d   1     -41.261-122.261 -52.562  0.00  0.00     0.196 C 
ATOM     12  O   UNL d   1     -41.133-121.450 -52.510  0.00  0.00    -0.287 OA
BRANCH  11  13
ATOM     13  C   UNL d   1     -41.338-122.621 -53.308  0.00  0.00     0.039 A 
ATOM     14  C   UNL d   1     -41.601-122.175 -53.955  0.00  0.00     0.003 A 
ATOM     15  C   UNL d   1     -41.679-122.527 -54.694  0.00  0.00     0.000 A 
ATOM     16  C   UNL d   1     -41.495-123.327 -54.794  0.00  0.00     0.000 A 
ATOM     17  C   UNL d   1     -41.234-123.770 -54.149  0.00  0.00     0.000 A 
ATOM     18  C   UNL d   1     -41.157-123.416 -53.410  0.00  0.00     0.003 A 
ENDBRANCH  11  13
ENDBRANCH  10  11
ENDBRANCH   1  10
TORSDOF 5
ENDMDL
MODEL 2
REMARK VINA RESULT:      -4.3      1.618      4.340
REMARK  5 active torsions:
REMARK  status: ('A' for Active; 'I' for Inactive)
REMARK    1  A    between atoms: C_11  and  N_2 
REMARK    2  A    between atoms: C_5  and  C_3 
REMARK    3  A    between atoms: C_7  and  C_5 
REMARK    4  A    between atoms: C_8  and  C_7 
REMARK    5  A    between atoms: C_10  and  C_8 
ROOT
ATOM      1  C   UNL d   1     -41.292-122.477 -51.838  0.00  0.00     0.006 C 
ENDROOT
BRANCH   1   2
ATOM      2  C   UNL d   1     -41.284-122.857 -52.568  0.00  0.00     0.039 A 
ATOM      3  C   UNL d   1     -41.123-123.633 -52.788  0.00  0.00     0.122 A 
ATOM      4  N   UNL d   1     -41.203-123.688 -53.603  0.00  0.00    -0.164 NA
ATOM      5  N   UNL d   1     -41.414-122.953 -53.891  0.00  0.00    -0.228 N 
ATOM      6  C   UNL d   1     -41.465-122.432 -53.249  0.00  0.00     0.085 A 
ATOM      7  C   UNL d   1     -41.664-121.627 -53.293  0.00  0.00     0.021 C 
BRANCH   5   8
ATOM      8  C   UNL d   1     -41.550-122.767 -54.682  0.00  0.00     0.101 C 
ATOM      9  C   UNL d   1     -41.475-123.350 -55.263  0.00  0.00     0.022 C 
ENDBRANCH   5   8
ENDBRANCH   1   2
BRANCH   1  10
ATOM     10  C   UNL d   1     -41.474-122.902 -51.154  0.00  0.00     0.042 C 
BRANCH  10  11
ATOM     11  C   UNL d   1     -41.511-122.517 -50.420  0.00  0.00     0.196 C 
ATOM     12  O   UNL d   1     -41.186-121.766 -50.331  0.00  0.00    -0.287 OA
BRANCH  11  13
ATOM     13  C   UNL d   1     -41.879-122.889 -49.773  0.00  0.00     0.039 A 
ATOM     14  C   UNL d   1     -41.452-123.429 -49.313  0.00  0.00     0.003 A 
ATOM     15  C   UNL d   1     -41.811-123.800 -48.672  0.00  0.00     0.000 A 
ATOM     16  C   UNL d   1     -42.599-123.634 -48.486  0.00  0.00     0.000 A 
ATOM     17  C   UNL d   1     -43.023-123.096 -48.946  0.00  0.00     0.000 A 
ATOM     18  C   UNL d   1     -42.662-122.726 -49.586  0.00  0.00     0.003 A 
ENDBRANCH  11  13
ENDBRANCH  10  11
ENDBRANCH   1  10
TORSDOF 5
ENDMDL
MODEL 3
REMARK VINA RESULT:      -2.2      2.071      4.586
REMARK  5 active torsions:
REMARK  status: ('A' for Active; 'I' for Inactive)
REMARK    1  A    between atoms: C_11  and  N_2 
REMARK    2  A    between atoms: C_5  and  C_3 
REMARK    3  A    between atoms: C_7  and  C_5 
REMARK    4  A    between atoms: C_8  and  C_7 
REMARK    5  A    between atoms: C_10  and  C_8 
ROOT
ATOM      1  C   UNL d   1     -41.866-122.816 -52.984  0.00  0.00     0.006 C 
ENDROOT
BRANCH   1   2
ATOM      2  C   UNL d   1     -42.023-122.274 -53.583  0.00  0.00     0.039 A 
ATOM      3  C   UNL d   1     -42.173-121.465 -53.573  0.00  0.00     0.122 A 
ATOM      4  N   UNL d   1     -42.291-121.219 -54.348  0.00  0.00    -0.164 NA
ATOM      5  N   UNL d   1     -42.215-121.868 -54.838  0.00  0.00    -0.228 N 
ATOM      6  C   UNL d   1     -42.048-122.527 -54.366  0.00  0.00     0.085 A 
ATOM      7  C   UNL d   1     -41.928-123.303 -54.640  0.00  0.00     0.021 C 
BRANCH   5   8
ATOM      8  C   UNL d   1     -42.291-121.863 -55.658  0.00  0.00     0.101 C 
ATOM      9  C   UNL d   1     -41.632-121.719 -56.135  0.00  0.00     0.022 C 
ENDBRANCH   5   8
ENDBRANCH   1   2
BRANCH   1  10
ATOM     10  C   UNL d   1     -41.785-122.558 -52.205  0.00  0.00     0.042 C 
BRANCH  10  11
ATOM     11  C   UNL d   1     -41.526-123.082 -51.616  0.00  0.00     0.196 C 
ATOM     12  O   UNL d   1     -41.124-123.770 -51.823  0.00  0.00    -0.287 OA
BRANCH  11  13
ATOM     13  C   UNL d   1     -41.672-122.912 -50.815  0.00  0.00     0.039 A 
ATOM     14  C   UNL d   1     -41.122-123.141 -50.239  0.00  0.00     0.003 A 
ATOM     15  C   UNL d   1     -41.263-122.975 -49.445  0.00  0.00     0.000 A 
ATOM     16  C   UNL d   1     -41.952-122.580 -49.221  0.00  0.00     0.000 A 
ATOM     17  C   UNL d   1     -42.499-122.352 -49.796  0.00  0.00     0.000 A 
ATOM     18  C   UNL d   1     -42.357-122.519 -50.589  0.00  0.00     0.003 A 
ENDBRANCH  11  13
ENDBRANCH  10  11
ENDBRANCH   1  10
TORSDOF 5
ENDMDL
