MODEL 1
REMARK VINA RESULT:      -5.1      0.000      0.000
REMARK  4 active torsions:
REMARK  status: ('A' for Active; 'I' for Inactive)
REMARK    1  A    between atoms: C_6  and  C_1 
REMARK    2  A    between atoms: C_3  and  C_15 
REMARK    3  A    between atoms: O_11  and  C_6 
REMARK    4  A    between atoms: C_15  and  O_11 
ROOT
ATOM      1  C   UNL d   1     -41.740-122.696 -52.222  0.00  0.00     0.127 A 
ATOM      2  C   UNL d   1     -41.350-123.409 -52.271  0.00  0.00     0.305 A 
ATOM      3  C   UNL d   1     -41.960-122.297 -52.917  0.00  0.00     0.013 A 
ATOM      4  C   UNL d   1     -41.766-122.656 -53.643  0.00  0.00     0.023 A 
ATOM      5  O   UNL d   1     -41.157-123.766 -52.973  0.00  0.00    -0.273 OA
ATOM      6  C   UNL d   1     -41.377-123.365 -53.692  0.00  0.00     0.103 A 
ATOM      7  C   UNL d   1     -41.984-122.260 -54.360  0.00  0.00     0.002 A 
ATOM      8  O   UNL d   1     -41.130-123.808 -51.533  0.00  0.00    -0.259 OA
ATOM      9  C   UNL d   1     -41.179-123.732 -54.422  0.00  0.00     0.025 A 
ATOM     10  C   UNL d   1     -41.789-122.620 -55.087  0.00  0.00     0.000 A 
ATOM     11  C   UNL d   1     -41.396-123.337 -55.114  0.00  0.00     0.002 A 
ATOM     12  C   UNL d   1     -42.377-121.541 -54.358  0.00  0.00     0.000 A 
ATOM     13  C   UNL d   1     -41.984-122.266 -55.783  0.00  0.00     0.000 A 
ATOM     14  C   UNL d   1     -42.582-121.171 -55.083  0.00  0.00     0.000 A 
ATOM     15  C   UNL d   1     -42.388-121.529 -55.791  0.00  0.00     0.000 A 
ENDROOT
BRANCH   1  16
ATOM     16  C   UNL d   1     -41.927-122.351 -51.433  0.00  0.00     0.305 C 
ATOM     17  O   UNL d   1     -41.891-121.530 -51.368  0.00  0.00    -0.259 OA
BRANCH  16  18
ATOM     18  O   UNL d   1     -42.128-122.817 -50.787  0.00  0.00    -0.271 OA
BRANCH  18  19
ATOM     19  C   UNL d   1     -42.504-122.462 -50.139  0.00  0.00     0.127 C 
ATOM     20  C   UNL d   1     -43.014-121.815 -50.274  0.00  0.00     0.029 C 
BRANCH  19  21
ATOM     21  C   UNL d   1     -42.400-122.719 -49.364  0.00  0.00     0.134 A 
ATOM     22  N   UNL d   1     -41.732-122.690 -48.904  0.00  0.00    -0.236 NA
ATOM     23  C   UNL d   1     -41.949-123.032 -48.162  0.00  0.00     0.088 A 
ATOM     24  C   UNL d   1     -41.517-123.157 -47.479  0.00  0.00     0.020 A 
ATOM     25  C   UNL d   1     -42.676-123.244 -48.181  0.00  0.00     0.049 A 
ATOM     26  C   UNL d   1     -41.842-123.515 -46.778  0.00  0.00     0.002 A 
ATOM     27  C   UNL d   1     -42.602-123.725 -46.829  0.00  0.00     0.001 A 
ATOM     28  C   UNL d   1     -43.038-123.599 -47.517  0.00  0.00     0.008 A 
ATOM     29  S   UNL d   1     -43.005-123.068 -48.918  0.00  0.00    -0.065 SA
ENDBRANCH  19  21
ENDBRANCH  18  19
ENDBRANCH  16  18
ENDBRANCH   1  16
TORSDOF 4
ENDMDL
MODEL 2
REMARK VINA RESULT:      -4.2      1.506      5.891
REMARK  4 active torsions:
REMARK  status: ('A' for Active; 'I' for Inactive)
REMARK    1  A    between atoms: C_6  and  C_1 
REMARK    2  A    between atoms: C_3  and  C_15 
REMARK    3  A    between atoms: O_11  and  C_6 
REMARK    4  A    between atoms: C_15  and  O_11 
ROOT
ATOM      1  C   UNL d   1     -42.346-123.271 -50.377  0.00  0.00     0.127 A 
ATOM      2  C   UNL d   1     -43.082-123.620 -50.422  0.00  0.00     0.305 A 
ATOM      3  C   UNL d   1     -42.020-123.089 -49.635  0.00  0.00     0.013 A 
ATOM      4  C   UNL d   1     -42.473-123.278 -48.961  0.00  0.00     0.023 A 
ATOM      5  O   UNL d   1     -43.528-123.807 -49.772  0.00  0.00    -0.273 OA
ATOM      6  C   UNL d   1     -43.203-123.625 -49.005  0.00  0.00     0.103 A 
ATOM      7  C   UNL d   1     -42.153-123.099 -48.197  0.00  0.00     0.002 A 
ATOM      8  O   UNL d   1     -43.403-123.801 -51.208  0.00  0.00    -0.259 OA
ATOM      9  C   UNL d   1     -43.664-123.817 -48.328  0.00  0.00     0.025 A 
ATOM     10  C   UNL d   1     -42.605-123.288 -47.523  0.00  0.00     0.000 A 
ATOM     11  C   UNL d   1     -43.342-123.638 -47.590  0.00  0.00     0.002 A 
ATOM     12  C   UNL d   1     -41.417-122.748 -48.104  0.00  0.00     0.000 A 
ATOM     13  C   UNL d   1     -42.326-123.128 -46.785  0.00  0.00     0.000 A 
ATOM     14  C   UNL d   1     -41.124-122.581 -47.336  0.00  0.00     0.000 A 
ATOM     15  C   UNL d   1     -41.573-122.769 -46.680  0.00  0.00     0.000 A 
ENDROOT
BRANCH   1  16
ATOM     16  C   UNL d   1     -41.901-123.088 -51.115  0.00  0.00     0.305 C 
ATOM     17  O   UNL d   1     -41.125-123.362 -51.158  0.00  0.00    -0.259 OA
BRANCH  16  18
ATOM     18  O   UNL d   1     -42.235-122.666 -51.736  0.00  0.00    -0.271 OA
BRANCH  18  19
ATOM     19  C   UNL d   1     -41.742-122.213 -52.224  0.00  0.00     0.127 C 
ATOM     20  C   UNL d   1     -41.123-121.776 -51.875  0.00  0.00     0.029 C 
BRANCH  19  21
ATOM     21  C   UNL d   1     -41.833-122.173 -53.040  0.00  0.00     0.134 A 
ATOM     22  N   UNL d   1     -42.358-121.730 -53.473  0.00  0.00    -0.236 NA
ATOM     23  C   UNL d   1     -42.199-121.912 -54.283  0.00  0.00     0.088 A 
ATOM     24  C   UNL d   1     -42.543-121.642 -54.974  0.00  0.00     0.020 A 
ATOM     25  C   UNL d   1     -41.635-122.416 -54.326  0.00  0.00     0.049 A 
ATOM     26  C   UNL d   1     -42.301-121.897 -55.749  0.00  0.00     0.002 A 
ATOM     27  C   UNL d   1     -41.710-122.422 -55.761  0.00  0.00     0.001 A 
ATOM     28  C   UNL d   1     -41.363-122.695 -55.065  0.00  0.00     0.008 A 
ATOM     29  S   UNL d   1     -41.369-122.612 -53.569  0.00  0.00    -0.065 SA
ENDBRANCH  19  21
ENDBRANCH  18  19
ENDBRANCH  16  18
ENDBRANCH   1  16
TORSDOF 4
ENDMDL
