MODEL 1
REMARK VINA RESULT:       1.4      0.000      0.000
REMARK  9 active torsions:
REMARK  status: ('A' for Active; 'I' for Inactive)
REMARK    1  A    between atoms: N_4  and  C_1 
REMARK    2  A    between atoms: C_12  and  C_3 
REMARK       I    between atoms: C_11  and  N_4 
REMARK       I    between atoms: C_6  and  N_5 
REMARK    3  A    between atoms: O_27  and  C_6 
REMARK       I    between atoms: N_7  and  C_10 
REMARK    4  A    between atoms: C_10  and  C_28 
REMARK    5  A    between atoms: C_29  and  C_11 
REMARK    6  A    between atoms: C_25  and  C_18 
REMARK    7  A    between atoms: S_26  and  C_29 
REMARK    8  A    between atoms: C_28  and  S_26 
REMARK    9  A    between atoms: C_32  and  O_27 
ROOT
ATOM      1  N   UNL d   1      58.964  -1.777  29.434  0.00  0.00    -0.182 NA
ATOM      2  C   UNL d   1      58.505  -2.184  28.904  0.00  0.00     0.288 C 
ATOM      3  O   UNL d   1      57.717  -2.005  28.822  0.00  0.00    -0.265 OA
ENDROOT
BRANCH   1   4
ATOM      4  C   UNL d   1      58.629  -1.187  29.888  0.00  0.00     0.197 A 
ATOM      5  N   UNL d   1      58.165  -1.294  30.552  0.00  0.00    -0.221 NA
ATOM      6  C   UNL d   1      57.949  -0.564  30.831  0.00  0.00     0.090 A 
ATOM      7  C   UNL d   1      58.282  -0.008  30.338  0.00  0.00     0.058 A 
ATOM      8  S   UNL d   1      58.699  -0.389  29.760  0.00  0.00    -0.046 SA
BRANCH   6   9
ATOM      9  C   UNL d   1      57.490  -0.418  31.478  0.00  0.00     0.018 A 
ATOM     10  C   UNL d   1      57.030  -1.005  31.785  0.00  0.00     0.002 A 
ATOM     11  C   UNL d   1      56.567  -0.863  32.435  0.00  0.00     0.000 A 
ATOM     12  C   UNL d   1      56.570  -0.127  32.774  0.00  0.00     0.000 A 
ATOM     13  C   UNL d   1      57.035   0.466  32.463  0.00  0.00     0.000 A 
ATOM     14  C   UNL d   1      57.492   0.312  31.816  0.00  0.00     0.002 A 
BRANCH  12  15
ATOM     15  C   UNL d   1      56.097   0.025  33.441  0.00  0.00     0.000 A 
ATOM     16  C   UNL d   1      56.461   0.169  34.176  0.00  0.00     0.000 A 
ATOM     17  C   UNL d   1      55.997   0.321  34.840  0.00  0.00     0.000 A 
ATOM     18  C   UNL d   1      55.167   0.327  34.770  0.00  0.00     0.000 A 
ATOM     19  C   UNL d   1      54.811   0.182  34.032  0.00  0.00     0.000 A 
ATOM     20  C   UNL d   1      55.284   0.031  33.368  0.00  0.00     0.000 A 
ENDBRANCH  12  15
ENDBRANCH   6   9
ENDBRANCH   1   4
BRANCH   2  21
ATOM     21  C   UNL d   1      58.838  -2.769  28.455  0.00  0.00     0.098 C 
BRANCH  21  22
ATOM     22  S   UNL d   1      59.457  -3.211  28.858  0.00  0.00    -0.076 SA
BRANCH  22  23
ATOM     23  C   UNL d   1      59.774  -3.928  28.508  0.00  0.00     0.097 C 
BRANCH  23  24
ATOM     24  C   UNL d   1      60.422  -4.338  28.879  0.00  0.00     0.271 C 
ATOM     25  N   UNL d   1      60.447  -5.195  28.869  0.00  0.00    -0.269 N 
ATOM     26  C   UNL d   1      61.095  -5.614  29.238  0.00  0.00     0.102 A 
ATOM     27  C   UNL d   1      59.812  -5.636  28.480  0.00  0.00     0.102 A 
ATOM     28  C   UNL d   1      61.117  -6.471  29.226  0.00  0.00     0.104 A 
ATOM     29  N   UNL d   1      60.482  -6.913  28.838  0.00  0.00    -0.249 N 
ATOM     30  C   UNL d   1      59.837  -6.493  28.469  0.00  0.00     0.104 A 
ATOM     31  C   UNL d   1      60.505  -7.739  28.827  0.00  0.00     0.378 C 
ATOM     32  O   UNL d   1      61.132  -8.143  29.186  0.00  0.00    -0.237 OA
ATOM     33  O   UNL d   1      61.044  -3.902  29.259  0.00  0.00    -0.266 OA
BRANCH  31  34
ATOM     34  O   UNL d   1      59.897  -8.161  28.455  0.00  0.00    -0.257 OA
BRANCH  34  35
ATOM     35  C   UNL d   1      59.888  -8.986  28.479  0.00  0.00     0.128 C 
ATOM     36  C   UNL d   1      59.176  -9.398  28.596  0.00  0.00     0.029 C 
ENDBRANCH  34  35
ENDBRANCH  31  34
ENDBRANCH  23  24
ENDBRANCH  22  23
ENDBRANCH  21  22
ENDBRANCH   2  21
TORSDOF 9
ENDMDL
