MODEL 1
REMARK VINA RESULT:      -8.9      0.000      0.000
REMARK  1 active torsions:
REMARK  status: ('A' for Active; 'I' for Inactive)
REMARK    1  A    between atoms: N_9  and  C_4 
ROOT
ATOM      1  N   UNL d   1     -48.958  13.750  23.014  0.00  0.00    -0.195 N 
ATOM      2  C   UNL d   1     -48.476  13.078  23.093  0.00  0.00     0.168 A 
ATOM      3  C   UNL d   1     -47.672  13.123  22.950  0.00  0.00     0.073 A 
ATOM      4  C   UNL d   1     -49.759  13.686  23.162  0.00  0.00     0.154 A 
ATOM      5  N   UNL d   1     -47.834  14.513  22.648  0.00  0.00    -0.143 NA
ATOM      6  C   UNL d   1     -47.352  13.841  22.727  0.00  0.00     0.185 A 
ATOM      7  N   UNL d   1     -48.809  12.362  23.318  0.00  0.00    -0.227 NA
ATOM      8  C   UNL d   1     -47.196  12.459  23.028  0.00  0.00     0.007 A 
ATOM      9  N   UNL d   1     -46.540  13.902  22.578  0.00  0.00    -0.225 NA
ATOM     10  C   UNL d   1     -50.093  12.979  23.385  0.00  0.00     0.057 A 
ATOM     11  C   UNL d   1     -46.392  12.502  22.884  0.00  0.00     0.019 A 
ATOM     12  C   UNL d   1     -49.611  12.308  23.464  0.00  0.00     0.086 A 
ATOM     13  C   UNL d   1     -46.058  13.231  22.657  0.00  0.00     0.083 A 
ATOM     14  C   UNL d   1     -47.531  11.739  23.254  0.00  0.00     0.000 C 
ATOM     15  C   UNL d   1     -49.961  11.565  23.697  0.00  0.00     0.021 C 
ATOM     16  C   UNL d   1     -45.258  13.282  22.512  0.00  0.00     0.021 C 
ENDROOT
BRANCH   4  17
ATOM     17  N   UNL d   1     -50.248  14.383  23.078  0.00  0.00    -0.271 N 
ATOM     18  C   UNL d   1     -50.651  14.638  22.371  0.00  0.00     0.184 A 
ATOM     19  N   UNL d   1     -51.064  15.352  22.551  0.00  0.00    -0.222 NA
ATOM     20  C   UNL d   1     -50.920  15.547  23.376  0.00  0.00     0.120 A 
ATOM     21  C   UNL d   1     -50.415  14.945  23.698  0.00  0.00     0.104 A 
ENDBRANCH   4  17
TORSDOF 1
ENDMDL
MODEL 2
REMARK VINA RESULT:      -8.3      0.820      3.631
REMARK  1 active torsions:
REMARK  status: ('A' for Active; 'I' for Inactive)
REMARK    1  A    between atoms: N_9  and  C_4 
ROOT
ATOM      1  N   UNL d   1     -48.181  13.542  23.045  0.00  0.00    -0.195 N 
ATOM      2  C   UNL d   1     -48.974  13.409  23.251  0.00  0.00     0.168 A 
ATOM      3  C   UNL d   1     -49.501  14.033  23.307  0.00  0.00     0.073 A 
ATOM      4  C   UNL d   1     -47.669  12.907  22.995  0.00  0.00     0.154 A 
ATOM      5  N   UNL d   1     -48.438  14.922  22.949  0.00  0.00    -0.143 NA
ATOM      6  C   UNL d   1     -49.231  14.789  23.155  0.00  0.00     0.185 A 
ATOM      7  N   UNL d   1     -49.233  12.644  23.402  0.00  0.00    -0.227 NA
ATOM      8  C   UNL d   1     -50.285  13.901  23.511  0.00  0.00     0.007 A 
ATOM      9  N   UNL d   1     -49.752  15.431  23.207  0.00  0.00    -0.225 NA
ATOM     10  C   UNL d   1     -47.921  12.149  23.142  0.00  0.00     0.057 A 
ATOM     11  C   UNL d   1     -50.812  14.523  23.567  0.00  0.00     0.019 A 
ATOM     12  C   UNL d   1     -48.714  12.015  23.349  0.00  0.00     0.086 A 
ATOM     13  C   UNL d   1     -50.545  15.297  23.414  0.00  0.00     0.083 A 
ATOM     14  C   UNL d   1     -50.544  13.132  23.662  0.00  0.00     0.000 C 
ATOM     15  C   UNL d   1     -48.980  11.219  23.504  0.00  0.00     0.021 C 
ATOM     16  C   UNL d   1     -51.064  15.922  23.467  0.00  0.00     0.021 C 
ENDROOT
BRANCH   4  17
ATOM     17  N   UNL d   1     -46.853  13.054  22.781  0.00  0.00    -0.271 N 
ATOM     18  C   UNL d   1     -46.200  13.162  23.319  0.00  0.00     0.184 A 
ATOM     19  N   UNL d   1     -45.504  13.290  22.858  0.00  0.00    -0.222 NA
ATOM     20  C   UNL d   1     -45.721  13.262  22.026  0.00  0.00     0.120 A 
ATOM     21  C   UNL d   1     -46.556  13.116  21.984  0.00  0.00     0.104 A 
ENDBRANCH   4  17
TORSDOF 1
ENDMDL
MODEL 3
REMARK VINA RESULT:      -8.3      1.207      2.236
REMARK  1 active torsions:
REMARK  status: ('A' for Active; 'I' for Inactive)
REMARK    1  A    between atoms: N_9  and  C_4 
ROOT
ATOM      1  N   UNL d   1     -48.407  12.730  23.116  0.00  0.00    -0.195 N 
ATOM      2  C   UNL d   1     -47.603  12.916  23.025  0.00  0.00     0.168 A 
ATOM      3  C   UNL d   1     -47.025  12.361  23.192  0.00  0.00     0.073 A 
ATOM      4  C   UNL d   1     -48.970  13.297  22.945  0.00  0.00     0.154 A 
ATOM      5  N   UNL d   1     -48.058  11.434  23.539  0.00  0.00    -0.143 NA
ATOM      6  C   UNL d   1     -47.255  11.620  23.449  0.00  0.00     0.185 A 
ATOM      7  N   UNL d   1     -47.384  13.664  22.766  0.00  0.00    -0.227 NA
ATOM      8  C   UNL d   1     -46.230  12.546  23.102  0.00  0.00     0.007 A 
ATOM      9  N   UNL d   1     -46.681  11.048  23.621  0.00  0.00    -0.225 NA
ATOM     10  C   UNL d   1     -48.759  14.038  22.689  0.00  0.00     0.057 A 
ATOM     11  C   UNL d   1     -45.652  11.992  23.268  0.00  0.00     0.019 A 
ATOM     12  C   UNL d   1     -47.955  14.225  22.598  0.00  0.00     0.086 A 
ATOM     13  C   UNL d   1     -45.877  11.234  23.530  0.00  0.00     0.083 A 
ATOM     14  C   UNL d   1     -46.011  13.298  22.842  0.00  0.00     0.000 C 
ATOM     15  C   UNL d   1     -47.731  15.004  22.328  0.00  0.00     0.021 C 
ATOM     16  C   UNL d   1     -45.307  10.678  23.698  0.00  0.00     0.021 C 
ENDROOT
BRANCH   4  17
ATOM     17  N   UNL d   1     -49.796  13.096  23.041  0.00  0.00    -0.271 N 
ATOM     18  C   UNL d   1     -50.271  12.632  22.506  0.00  0.00     0.184 A 
ATOM     19  N   UNL d   1     -51.050  12.580  22.829  0.00  0.00    -0.222 NA
ATOM     20  C   UNL d   1     -51.064  13.014  23.571  0.00  0.00     0.120 A 
ATOM     21  C   UNL d   1     -50.287  13.331  23.698  0.00  0.00     0.104 A 
ENDBRANCH   4  17
TORSDOF 1
ENDMDL
MODEL 4
REMARK VINA RESULT:      -7.7      1.070      3.971
REMARK  1 active torsions:
REMARK  status: ('A' for Active; 'I' for Inactive)
REMARK    1  A    between atoms: N_9  and  C_4 
ROOT
ATOM      1  N   UNL d   1     -47.833  13.136  22.866  0.00  0.00    -0.195 N 
ATOM      2  C   UNL d   1     -48.608  13.425  22.935  0.00  0.00     0.168 A 
ATOM      3  C   UNL d   1     -49.225  12.923  23.125  0.00  0.00     0.073 A 
ATOM      4  C   UNL d   1     -47.230  13.653  22.675  0.00  0.00     0.154 A 
ATOM      5  N   UNL d   1     -48.288  11.842  23.177  0.00  0.00    -0.143 NA
ATOM      6  C   UNL d   1     -49.063  12.131  23.246  0.00  0.00     0.185 A 
ATOM      7  N   UNL d   1     -48.758  14.223  22.810  0.00  0.00    -0.227 NA
ATOM      8  C   UNL d   1     -49.992  13.209  23.193  0.00  0.00     0.007 A 
ATOM      9  N   UNL d   1     -49.678  11.610  23.439  0.00  0.00    -0.225 NA
ATOM     10  C   UNL d   1     -47.373  14.443  22.551  0.00  0.00     0.057 A 
ATOM     11  C   UNL d   1     -50.609  12.708  23.383  0.00  0.00     0.019 A 
ATOM     12  C   UNL d   1     -48.148  14.733  22.620  0.00  0.00     0.086 A 
ATOM     13  C   UNL d   1     -50.453  11.899  23.508  0.00  0.00     0.083 A 
ATOM     14  C   UNL d   1     -50.142  14.011  23.068  0.00  0.00     0.000 C 
ATOM     15  C   UNL d   1     -48.301  15.563  22.490  0.00  0.00     0.021 C 
ATOM     16  C   UNL d   1     -51.062  11.394  23.697  0.00  0.00     0.021 C 
ENDROOT
BRANCH   4  17
ATOM     17  N   UNL d   1     -46.433  13.347  22.607  0.00  0.00    -0.271 N 
ATOM     18  C   UNL d   1     -45.924  13.109  23.248  0.00  0.00     0.184 A 
ATOM     19  N   UNL d   1     -45.194  12.845  22.916  0.00  0.00    -0.222 NA
ATOM     20  C   UNL d   1     -45.245  12.916  22.060  0.00  0.00     0.120 A 
ATOM     21  C   UNL d   1     -46.013  13.227  21.874  0.00  0.00     0.104 A 
ENDBRANCH   4  17
TORSDOF 1
ENDMDL
MODEL 5
REMARK VINA RESULT:      -7.5      1.498      4.349
REMARK  1 active torsions:
REMARK  status: ('A' for Active; 'I' for Inactive)
REMARK    1  A    between atoms: N_9  and  C_4 
ROOT
ATOM      1  N   UNL d   1     -47.286  12.173  23.262  0.00  0.00    -0.195 N 
ATOM      2  C   UNL d   1     -47.886  12.739  23.168  0.00  0.00     0.168 A 
ATOM      3  C   UNL d   1     -48.673  12.529  23.248  0.00  0.00     0.073 A 
ATOM      4  C   UNL d   1     -46.506  12.401  23.179  0.00  0.00     0.154 A 
ATOM      5  N   UNL d   1     -48.256  11.186  23.515  0.00  0.00    -0.143 NA
ATOM      6  C   UNL d   1     -48.856  11.752  23.421  0.00  0.00     0.185 A 
ATOM      7  N   UNL d   1     -47.689  13.517  22.994  0.00  0.00    -0.227 NA
ATOM      8  C   UNL d   1     -49.266  13.089  23.155  0.00  0.00     0.007 A 
ATOM      9  N   UNL d   1     -49.648  11.524  23.505  0.00  0.00    -0.225 NA
ATOM     10  C   UNL d   1     -46.306  13.170  23.006  0.00  0.00     0.057 A 
ATOM     11  C   UNL d   1     -50.052  12.880  23.234  0.00  0.00     0.019 A 
ATOM     12  C   UNL d   1     -46.906  13.735  22.912  0.00  0.00     0.086 A 
ATOM     13  C   UNL d   1     -50.248  12.090  23.411  0.00  0.00     0.083 A 
ATOM     14  C   UNL d   1     -49.067  13.871  22.979  0.00  0.00     0.000 C 
ATOM     15  C   UNL d   1     -46.697  14.543  22.731  0.00  0.00     0.021 C 
ATOM     16  C   UNL d   1     -51.029  11.875  23.491  0.00  0.00     0.021 C 
ENDROOT
BRANCH   4  17
ATOM     17  N   UNL d   1     -45.893  11.811  23.278  0.00  0.00    -0.271 N 
ATOM     18  C   UNL d   1     -45.096  11.853  22.978  0.00  0.00     0.184 A 
ATOM     19  N   UNL d   1     -44.694  11.148  23.211  0.00  0.00    -0.222 NA
ATOM     20  C   UNL d   1     -45.242  10.660  23.659  0.00  0.00     0.120 A 
ATOM     21  C   UNL d   1     -45.982  11.074  23.698  0.00  0.00     0.104 A 
ENDBRANCH   4  17
TORSDOF 1
ENDMDL
MODEL 6
REMARK VINA RESULT:      -7.5      1.531      4.169
REMARK  1 active torsions:
REMARK  status: ('A' for Active; 'I' for Inactive)
REMARK    1  A    between atoms: N_9  and  C_4 
ROOT
ATOM      1  N   UNL d   1     -47.510  12.689  22.711  0.00  0.00    -0.195 N 
ATOM      2  C   UNL d   1     -47.982  13.343  22.515  0.00  0.00     0.168 A 
ATOM      3  C   UNL d   1     -48.752  13.239  22.259  0.00  0.00     0.073 A 
ATOM      4  C   UNL d   1     -46.744  12.812  22.965  0.00  0.00     0.154 A 
ATOM      5  N   UNL d   1     -48.576  11.826  22.397  0.00  0.00    -0.143 NA
ATOM      6  C   UNL d   1     -49.048  12.480  22.200  0.00  0.00     0.185 A 
ATOM      7  N   UNL d   1     -47.674  14.102  22.578  0.00  0.00    -0.227 NA
ATOM      8  C   UNL d   1     -49.219  13.886  22.064  0.00  0.00     0.007 A 
ATOM      9  N   UNL d   1     -49.826  12.359  21.942  0.00  0.00    -0.225 NA
ATOM     10  C   UNL d   1     -46.434  13.561  23.029  0.00  0.00     0.057 A 
ATOM     11  C   UNL d   1     -49.989  13.783  21.808  0.00  0.00     0.019 A 
ATOM     12  C   UNL d   1     -46.906  14.215  22.833  0.00  0.00     0.086 A 
ATOM     13  C   UNL d   1     -50.297  13.013  21.745  0.00  0.00     0.083 A 
ATOM     14  C   UNL d   1     -48.909  14.649  22.128  0.00  0.00     0.000 C 
ATOM     15  C   UNL d   1     -46.583  15.003  22.899  0.00  0.00     0.021 C 
ATOM     16  C   UNL d   1     -51.063  12.903  21.491  0.00  0.00     0.021 C 
ENDROOT
BRANCH   4  17
ATOM     17  N   UNL d   1     -46.264  12.132  23.166  0.00  0.00    -0.271 N 
ATOM     18  C   UNL d   1     -45.454  11.997  22.935  0.00  0.00     0.184 A 
ATOM     19  N   UNL d   1     -45.212  11.256  23.260  0.00  0.00    -0.222 NA
ATOM     20  C   UNL d   1     -45.873  10.924  23.698  0.00  0.00     0.120 A 
ATOM     21  C   UNL d   1     -46.521  11.469  23.637  0.00  0.00     0.104 A 
ENDBRANCH   4  17
TORSDOF 1
ENDMDL
MODEL 7
REMARK VINA RESULT:      -7.0      1.128      2.126
REMARK  1 active torsions:
REMARK  status: ('A' for Active; 'I' for Inactive)
REMARK    1  A    between atoms: N_9  and  C_4 
ROOT
ATOM      1  N   UNL d   1     -48.734  13.346  22.839  0.00  0.00    -0.195 N 
ATOM      2  C   UNL d   1     -48.142  13.927  22.867  0.00  0.00     0.168 A 
ATOM      3  C   UNL d   1     -47.374  13.749  22.648  0.00  0.00     0.073 A 
ATOM      4  C   UNL d   1     -49.496  13.542  23.061  0.00  0.00     0.154 A 
ATOM      5  N   UNL d   1     -47.794  12.409  22.372  0.00  0.00    -0.143 NA
ATOM      6  C   UNL d   1     -47.202  12.990  22.401  0.00  0.00     0.185 A 
ATOM      7  N   UNL d   1     -48.327  14.687  23.118  0.00  0.00    -0.227 NA
ATOM      8  C   UNL d   1     -46.787  14.323  22.677  0.00  0.00     0.007 A 
ATOM      9  N   UNL d   1     -46.428  12.795  22.176  0.00  0.00    -0.225 NA
ATOM     10  C   UNL d   1     -49.684  14.293  23.310  0.00  0.00     0.057 A 
ATOM     11  C   UNL d   1     -46.020  14.147  22.458  0.00  0.00     0.019 A 
ATOM     12  C   UNL d   1     -49.091  14.873  23.338  0.00  0.00     0.086 A 
ATOM     13  C   UNL d   1     -45.836  13.375  22.205  0.00  0.00     0.083 A 
ATOM     14  C   UNL d   1     -46.975  15.087  22.928  0.00  0.00     0.000 C 
ATOM     15  C   UNL d   1     -49.287  15.662  23.599  0.00  0.00     0.021 C 
ATOM     16  C   UNL d   1     -45.073  13.192  21.985  0.00  0.00     0.021 C 
ENDROOT
BRANCH   4  17
ATOM     17  N   UNL d   1     -50.101  12.938  23.029  0.00  0.00    -0.271 N 
ATOM     18  C   UNL d   1     -50.516  12.672  22.332  0.00  0.00     0.184 A 
ATOM     19  N   UNL d   1     -51.060  12.071  22.568  0.00  0.00    -0.222 NA
ATOM     20  C   UNL d   1     -50.986  11.957  23.417  0.00  0.00     0.120 A 
ATOM     21  C   UNL d   1     -50.392  12.495  23.697  0.00  0.00     0.104 A 
ENDBRANCH   4  17
TORSDOF 1
ENDMDL
MODEL 8
REMARK VINA RESULT:      -6.1      9.516     10.111
REMARK  1 active torsions:
REMARK  status: ('A' for Active; 'I' for Inactive)
REMARK    1  A    between atoms: N_9  and  C_4 
ROOT
ATOM      1  N   UNL d   1     -39.961  14.992  18.677  0.00  0.00    -0.195 N 
ATOM      2  C   UNL d   1     -39.487  14.614  19.244  0.00  0.00     0.168 A 
ATOM      3  C   UNL d   1     -39.457  14.888  20.014  0.00  0.00     0.073 A 
ATOM      4  C   UNL d   1     -39.978  14.704  17.913  0.00  0.00     0.154 A 
ATOM      5  N   UNL d   1     -40.379  15.921  19.649  0.00  0.00    -0.143 NA
ATOM      6  C   UNL d   1     -39.904  15.542  20.215  0.00  0.00     0.185 A 
ATOM      7  N   UNL d   1     -39.042  13.957  19.030  0.00  0.00    -0.227 NA
ATOM      8  C   UNL d   1     -38.988  14.514  20.574  0.00  0.00     0.007 A 
ATOM      9  N   UNL d   1     -39.885  15.832  20.990  0.00  0.00    -0.225 NA
ATOM     10  C   UNL d   1     -39.540  14.054  17.697  0.00  0.00     0.057 A 
ATOM     11  C   UNL d   1     -38.958  14.788  21.343  0.00  0.00     0.019 A 
ATOM     12  C   UNL d   1     -39.065  13.676  18.263  0.00  0.00     0.086 A 
ATOM     13  C   UNL d   1     -39.410  15.454  21.556  0.00  0.00     0.083 A 
ATOM     14  C   UNL d   1     -38.541  13.854  20.358  0.00  0.00     0.000 C 
ATOM     15  C   UNL d   1     -38.604  12.994  18.037  0.00  0.00     0.021 C 
ATOM     16  C   UNL d   1     -39.386  15.732  22.321  0.00  0.00     0.021 C 
ENDROOT
BRANCH   4  17
ATOM     17  N   UNL d   1     -40.470  15.100  17.336  0.00  0.00    -0.271 N 
ATOM     18  C   UNL d   1     -41.310  14.997  17.229  0.00  0.00     0.184 A 
ATOM     19  N   UNL d   1     -41.554  15.501  16.597  0.00  0.00    -0.222 NA
ATOM     20  C   UNL d   1     -40.864  15.922  16.304  0.00  0.00     0.120 A 
ATOM     21  C   UNL d   1     -40.196  15.671  16.764  0.00  0.00     0.104 A 
ENDBRANCH   4  17
TORSDOF 1
ENDMDL
