MODEL 1
REMARK VINA RESULT:      -6.9      0.000      0.000
REMARK  2 active torsions:
REMARK  status: ('A' for Active; 'I' for Inactive)
REMARK    1  A    between atoms: N_2  and  C_1 
REMARK    2  A    between atoms: C_4  and  C_1 
ROOT
ATOM      1  C   UNL d   1     -48.929  13.199  22.198  0.00  0.00     0.120 C 
ATOM      2  S   UNL d   1     -49.193  12.967  21.450  0.00  0.00    -0.059 SA
ENDROOT
BRANCH   1   3
ATOM      3  N   UNL d   1     -48.327  12.767  22.575  0.00  0.00    -0.293 N 
ATOM      4  C   UNL d   1     -47.548  13.040  22.549  0.00  0.00     0.100 A 
ATOM      5  C   UNL d   1     -46.949  12.615  22.923  0.00  0.00     0.100 A 
ATOM      6  N   UNL d   1     -47.128  11.917  23.322  0.00  0.00    -0.299 N 
ATOM      7  C   UNL d   1     -47.908  11.644  23.348  0.00  0.00     0.100 A 
ATOM      8  C   UNL d   1     -46.528  11.488  23.698  0.00  0.00     0.100 C 
ATOM      9  C   UNL d   1     -48.509  12.076  22.970  0.00  0.00     0.100 A 
ENDBRANCH   1   3
BRANCH   1  10
ATOM     10  C   UNL d   1     -49.258  13.858  22.575  0.00  0.00     0.027 A 
ATOM     11  C   UNL d   1     -49.898  13.769  23.099  0.00  0.00     0.003 A 
ATOM     12  C   UNL d   1     -50.220  14.431  23.470  0.00  0.00     0.007 A 
ATOM     13  C   UNL d   1     -49.909  15.179  23.323  0.00  0.00     0.035 A 
ATOM     14  C   UNL d   1     -49.270  15.267  22.799  0.00  0.00     0.007 A 
ATOM     15 BR   UNL d   1     -50.232  15.843  23.695  0.00  0.00    -0.049 Br
ATOM     16  C   UNL d   1     -48.947  14.607  22.428  0.00  0.00     0.003 A 
ENDBRANCH   1  10
TORSDOF 2
ENDMDL
MODEL 2
REMARK VINA RESULT:      -6.2      1.954      2.938
REMARK  2 active torsions:
REMARK  status: ('A' for Active; 'I' for Inactive)
REMARK    1  A    between atoms: N_2  and  C_1 
REMARK    2  A    between atoms: C_4  and  C_1 
ROOT
ATOM      1  C   UNL d   1     -48.898  13.809  22.193  0.00  0.00     0.120 C 
ATOM      2  S   UNL d   1     -49.172  14.423  21.714  0.00  0.00    -0.059 SA
ENDROOT
BRANCH   1   3
ATOM      3  N   UNL d   1     -49.440  13.297  22.560  0.00  0.00    -0.293 N 
ATOM      4  C   UNL d   1     -49.693  13.451  23.331  0.00  0.00     0.100 A 
ATOM      5  C   UNL d   1     -50.231  12.945  23.698  0.00  0.00     0.100 A 
ATOM      6  N   UNL d   1     -50.516  12.286  23.293  0.00  0.00    -0.299 N 
ATOM      7  C   UNL d   1     -50.264  12.132  22.522  0.00  0.00     0.100 A 
ATOM      8  C   UNL d   1     -51.056  11.778  23.660  0.00  0.00     0.100 C 
ATOM      9  C   UNL d   1     -49.721  12.645  22.156  0.00  0.00     0.100 A 
ENDBRANCH   1   3
BRANCH   1  10
ATOM     10  C   UNL d   1     -48.086  13.698  22.312  0.00  0.00     0.027 A 
ATOM     11  C   UNL d   1     -47.682  13.086  21.921  0.00  0.00     0.003 A 
ATOM     12  C   UNL d   1     -46.873  12.982  22.044  0.00  0.00     0.007 A 
ATOM     13  C   UNL d   1     -46.466  13.484  22.554  0.00  0.00     0.035 A 
ATOM     14  C   UNL d   1     -46.871  14.096  22.945  0.00  0.00     0.007 A 
ATOM     15 BR   UNL d   1     -45.655  13.381  22.679  0.00  0.00    -0.049 Br
ATOM     16  C   UNL d   1     -47.678  14.200  22.823  0.00  0.00     0.003 A 
ENDBRANCH   1  10
TORSDOF 2
ENDMDL
MODEL 3
REMARK VINA RESULT:      -6.0      1.398      1.874
REMARK  2 active torsions:
REMARK  status: ('A' for Active; 'I' for Inactive)
REMARK    1  A    between atoms: N_2  and  C_1 
REMARK    2  A    between atoms: C_4  and  C_1 
ROOT
ATOM      1  C   UNL d   1     -48.439  12.479  22.963  0.00  0.00     0.120 C 
ATOM      2  S   UNL d   1     -48.536  11.827  23.460  0.00  0.00    -0.059 SA
ENDROOT
BRANCH   1   3
ATOM      3  N   UNL d   1     -47.676  12.767  22.803  0.00  0.00    -0.293 N 
ATOM      4  C   UNL d   1     -47.314  13.288  23.333  0.00  0.00     0.100 A 
ATOM      5  C   UNL d   1     -46.557  13.575  23.178  0.00  0.00     0.100 A 
ATOM      6  N   UNL d   1     -46.162  13.341  22.494  0.00  0.00    -0.299 N 
ATOM      7  C   UNL d   1     -46.523  12.821  21.964  0.00  0.00     0.100 A 
ATOM      8  C   UNL d   1     -45.402  13.629  22.337  0.00  0.00     0.100 C 
ATOM      9  C   UNL d   1     -47.287  12.533  22.124  0.00  0.00     0.100 A 
ENDBRANCH   1   3
BRANCH   1  10
ATOM     10  C   UNL d   1     -49.096  12.850  22.621  0.00  0.00     0.027 A 
ATOM     11  C   UNL d   1     -49.396  12.589  21.891  0.00  0.00     0.003 A 
ATOM     12  C   UNL d   1     -50.050  12.963  21.557  0.00  0.00     0.007 A 
ATOM     13  C   UNL d   1     -50.406  13.595  21.947  0.00  0.00     0.035 A 
ATOM     14  C   UNL d   1     -50.106  13.857  22.676  0.00  0.00     0.007 A 
ATOM     15 BR   UNL d   1     -51.062  13.972  21.613  0.00  0.00    -0.049 Br
ATOM     16  C   UNL d   1     -49.452  13.483  23.010  0.00  0.00     0.003 A 
ENDBRANCH   1  10
TORSDOF 2
ENDMDL
MODEL 4
REMARK VINA RESULT:      -5.0      9.429     10.593
REMARK  2 active torsions:
REMARK  status: ('A' for Active; 'I' for Inactive)
REMARK    1  A    between atoms: N_2  and  C_1 
REMARK    2  A    between atoms: C_4  and  C_1 
ROOT
ATOM      1  C   UNL d   1     -40.283  15.018  18.008  0.00  0.00     0.120 C 
ATOM      2  S   UNL d   1     -40.933  15.320  17.596  0.00  0.00    -0.059 SA
ENDROOT
BRANCH   1   3
ATOM      3  N   UNL d   1     -40.216  15.148  18.826  0.00  0.00    -0.293 N 
ATOM      4  C   UNL d   1     -40.576  14.627  19.356  0.00  0.00     0.100 A 
ATOM      5  C   UNL d   1     -40.511  14.753  20.168  0.00  0.00     0.100 A 
ATOM      6  N   UNL d   1     -40.085  15.401  20.450  0.00  0.00    -0.299 N 
ATOM      7  C   UNL d   1     -39.725  15.922  19.920  0.00  0.00     0.100 A 
ATOM      8  C   UNL d   1     -40.019  15.529  21.264  0.00  0.00     0.100 C 
ATOM      9  C   UNL d   1     -39.793  15.791  19.101  0.00  0.00     0.100 A 
ENDBRANCH   1   3
BRANCH   1  10
ATOM     10  C   UNL d   1     -39.698  14.586  17.612  0.00  0.00     0.027 A 
ATOM     11  C   UNL d   1     -39.649  13.761  17.701  0.00  0.00     0.003 A 
ATOM     12  C   UNL d   1     -39.064  13.338  17.304  0.00  0.00     0.007 A 
ATOM     13  C   UNL d   1     -38.528  13.733  16.819  0.00  0.00     0.035 A 
ATOM     14  C   UNL d   1     -38.577  14.557  16.730  0.00  0.00     0.007 A 
ATOM     15 BR   UNL d   1     -37.940  13.309  16.420  0.00  0.00    -0.049 Br
ATOM     16  C   UNL d   1     -39.162  14.980  17.127  0.00  0.00     0.003 A 
ENDBRANCH   1  10
TORSDOF 2
ENDMDL
MODEL 5
REMARK VINA RESULT:      -5.0      9.448     10.439
REMARK  2 active torsions:
REMARK  status: ('A' for Active; 'I' for Inactive)
REMARK    1  A    between atoms: N_2  and  C_1 
REMARK    2  A    between atoms: C_4  and  C_1 
ROOT
ATOM      1  C   UNL d   1     -40.562  15.316  17.705  0.00  0.00     0.120 C 
ATOM      2  S   UNL d   1     -41.284  15.521  17.361  0.00  0.00    -0.059 SA
ENDROOT
BRANCH   1   3
ATOM      3  N   UNL d   1     -39.903  15.165  17.222  0.00  0.00    -0.293 N 
ATOM      4  C   UNL d   1     -39.714  14.388  17.016  0.00  0.00     0.100 A 
ATOM      5  C   UNL d   1     -39.060  14.235  16.537  0.00  0.00     0.100 A 
ATOM      6  N   UNL d   1     -38.596  14.858  16.265  0.00  0.00    -0.299 N 
ATOM      7  C   UNL d   1     -38.784  15.636  16.471  0.00  0.00     0.100 A 
ATOM      8  C   UNL d   1     -37.940  14.706  15.785  0.00  0.00     0.100 C 
ATOM      9  C   UNL d   1     -39.444  15.786  16.954  0.00  0.00     0.100 A 
ENDBRANCH   1   3
BRANCH   1  10
ATOM     10  C   UNL d   1     -40.488  15.260  18.528  0.00  0.00     0.027 A 
ATOM     11  C   UNL d   1     -40.253  15.919  18.977  0.00  0.00     0.003 A 
ATOM     12  C   UNL d   1     -40.182  15.855  19.796  0.00  0.00     0.007 A 
ATOM     13  C   UNL d   1     -40.345  15.139  20.168  0.00  0.00     0.035 A 
ATOM     14  C   UNL d   1     -40.580  14.480  19.719  0.00  0.00     0.007 A 
ATOM     15 BR   UNL d   1     -40.274  15.073  20.990  0.00  0.00    -0.049 Br
ATOM     16  C   UNL d   1     -40.651  14.544  18.901  0.00  0.00     0.003 A 
ENDBRANCH   1  10
TORSDOF 2
ENDMDL
MODEL 6
REMARK VINA RESULT:      -4.8      8.999      9.570
REMARK  2 active torsions:
REMARK  status: ('A' for Active; 'I' for Inactive)
REMARK    1  A    between atoms: N_2  and  C_1 
REMARK    2  A    between atoms: C_4  and  C_1 
ROOT
ATOM      1  C   UNL d   1     -40.617  15.490  20.430  0.00  0.00     0.120 C 
ATOM      2  S   UNL d   1     -41.317  15.836  20.699  0.00  0.00    -0.059 SA
ENDROOT
BRANCH   1   3
ATOM      3  N   UNL d   1     -40.014  15.303  20.970  0.00  0.00    -0.293 N 
ATOM      4  C   UNL d   1     -39.459  15.878  21.181  0.00  0.00     0.100 A 
ATOM      5  C   UNL d   1     -38.859  15.696  21.717  0.00  0.00     0.100 A 
ATOM      6  N   UNL d   1     -38.815  14.940  22.042  0.00  0.00    -0.299 N 
ATOM      7  C   UNL d   1     -39.369  14.365  21.831  0.00  0.00     0.100 A 
ATOM      8  C   UNL d   1     -38.214  14.756  22.580  0.00  0.00     0.100 C 
ATOM      9  C   UNL d   1     -39.973  14.553  21.290  0.00  0.00     0.100 A 
ENDBRANCH   1   3
BRANCH   1  10
ATOM     10  C   UNL d   1     -40.510  15.326  19.625  0.00  0.00     0.027 A 
ATOM     11  C   UNL d   1     -40.672  14.570  19.322  0.00  0.00     0.003 A 
ATOM     12  C   UNL d   1     -40.563  14.415  18.520  0.00  0.00     0.007 A 
ATOM     13  C   UNL d   1     -40.294  15.010  18.019  0.00  0.00     0.035 A 
ATOM     14  C   UNL d   1     -40.132  15.767  18.321  0.00  0.00     0.007 A 
ATOM     15 BR   UNL d   1     -40.185  14.856  17.214  0.00  0.00    -0.049 Br
ATOM     16  C   UNL d   1     -40.241  15.922  19.123  0.00  0.00     0.003 A 
ENDBRANCH   1  10
TORSDOF 2
ENDMDL
MODEL 7
REMARK VINA RESULT:      -4.8      8.976      9.697
REMARK  2 active torsions:
REMARK  status: ('A' for Active; 'I' for Inactive)
REMARK    1  A    between atoms: N_2  and  C_1 
REMARK    2  A    between atoms: C_4  and  C_1 
ROOT
ATOM      1  C   UNL d   1     -40.625  15.453  20.443  0.00  0.00     0.120 C 
ATOM      2  S   UNL d   1     -41.318  15.828  20.690  0.00  0.00    -0.059 SA
ENDROOT
BRANCH   1   3
ATOM      3  N   UNL d   1     -40.497  15.312  19.634  0.00  0.00    -0.293 N 
ATOM      4  C   UNL d   1     -40.690  14.577  19.310  0.00  0.00     0.100 A 
ATOM      5  C   UNL d   1     -40.564  14.434  18.507  0.00  0.00     0.100 A 
ATOM      6  N   UNL d   1     -40.247  15.025  18.030  0.00  0.00    -0.299 N 
ATOM      7  C   UNL d   1     -40.054  15.760  18.354  0.00  0.00     0.100 A 
ATOM      8  C   UNL d   1     -40.120  14.883  17.224  0.00  0.00     0.100 C 
ATOM      9  C   UNL d   1     -40.182  15.901  19.163  0.00  0.00     0.100 A 
ENDBRANCH   1   3
BRANCH   1  10
ATOM     10  C   UNL d   1     -40.055  15.215  20.995  0.00  0.00     0.027 A 
ATOM     11  C   UNL d   1     -40.032  14.431  21.268  0.00  0.00     0.003 A 
ATOM     12  C   UNL d   1     -39.462  14.202  21.817  0.00  0.00     0.007 A 
ATOM     13  C   UNL d   1     -38.915  14.751  22.095  0.00  0.00     0.035 A 
ATOM     14  C   UNL d   1     -38.937  15.535  21.822  0.00  0.00     0.007 A 
ATOM     15 BR   UNL d   1     -38.342  14.523  22.646  0.00  0.00    -0.049 Br
ATOM     16  C   UNL d   1     -39.507  15.764  21.273  0.00  0.00     0.003 A 
ENDBRANCH   1  10
TORSDOF 2
ENDMDL
MODEL 8
REMARK VINA RESULT:      -4.7      9.788     10.396
REMARK  2 active torsions:
REMARK  status: ('A' for Active; 'I' for Inactive)
REMARK    1  A    between atoms: N_2  and  C_1 
REMARK    2  A    between atoms: C_4  and  C_1 
ROOT
ATOM      1  C   UNL d   1     -39.202  14.566  18.532  0.00  0.00     0.120 C 
ATOM      2  S   UNL d   1     -38.787  13.888  18.308  0.00  0.00    -0.059 SA
ENDROOT
BRANCH   1   3
ATOM      3  N   UNL d   1     -39.063  14.908  19.276  0.00  0.00    -0.293 N 
ATOM      4  C   UNL d   1     -39.528  14.688  19.923  0.00  0.00     0.100 A 
ATOM      5  C   UNL d   1     -39.392  15.025  20.663  0.00  0.00     0.100 A 
ATOM      6  N   UNL d   1     -38.792  15.582  20.756  0.00  0.00    -0.299 N 
ATOM      7  C   UNL d   1     -38.327  15.802  20.110  0.00  0.00     0.100 A 
ATOM      8  C   UNL d   1     -38.654  15.922  21.498  0.00  0.00     0.100 C 
ATOM      9  C   UNL d   1     -38.467  15.460  19.365  0.00  0.00     0.100 A 
ENDBRANCH   1   3
BRANCH   1  10
ATOM     10  C   UNL d   1     -39.757  14.908  18.021  0.00  0.00     0.027 A 
ATOM     11  C   UNL d   1     -39.528  15.499  17.483  0.00  0.00     0.003 A 
ATOM     12  C   UNL d   1     -40.086  15.835  16.978  0.00  0.00     0.007 A 
ATOM     13  C   UNL d   1     -40.870  15.586  17.007  0.00  0.00     0.035 A 
ATOM     14  C   UNL d   1     -41.099  14.995  17.545  0.00  0.00     0.007 A 
ATOM     15 BR   UNL d   1     -41.431  15.922  16.501  0.00  0.00    -0.049 Br
ATOM     16  C   UNL d   1     -40.542  14.659  18.050  0.00  0.00     0.003 A 
ENDBRANCH   1  10
TORSDOF 2
ENDMDL
