MODEL 1
REMARK VINA RESULT:      14.9      0.000      0.000
REMARK  5 active torsions:
REMARK  status: ('A' for Active; 'I' for Inactive)
REMARK    1  A    between atoms: N_2  and  S_1 
REMARK    2  A    between atoms: C_3  and  S_1 
REMARK    3  A    between atoms: C_14  and  C_5 
REMARK    4  A    between atoms: O_15  and  C_8 
REMARK    5  A    between atoms: C_18  and  C_14 
ROOT
ATOM      1  C   UNL d   1      45.959 -17.329  44.296  0.00  0.00     0.104 A 
ATOM      2  C   UNL d   1      46.077 -17.635  43.539  0.00  0.00     0.015 A 
ATOM      3  C   UNL d   1      46.275 -18.431  43.440  0.00  0.00     0.023 A 
ATOM      4  C   UNL d   1      46.355 -18.923  44.099  0.00  0.00     0.094 A 
ATOM      5  C   UNL d   1      46.039 -17.820  44.954  0.00  0.00     0.015 A 
ATOM      6  C   UNL d   1      46.236 -18.616  44.856  0.00  0.00     0.025 A 
ENDROOT
BRANCH   1   7
ATOM      7  S   UNL d   1      45.761 -16.533  44.395  0.00  0.00     0.272 S 
ATOM      8  O   UNL d   1      45.155 -16.615  43.840  0.00  0.00    -0.200 OA
ATOM      9  O   UNL d   1      46.369 -16.451  44.950  0.00  0.00    -0.200 OA
BRANCH   7  10
ATOM     10  N   UNL d   1      45.564 -15.740  44.493  0.00  0.00    -0.225 N 
ATOM     11  C   UNL d   1      44.827 -15.532  44.799  0.00  0.00     0.118 A 
ATOM     12  C   UNL d   1      44.630 -14.735  44.898  0.00  0.00     0.142 A 
ATOM     13  O   UNL d   1      45.169 -14.147  44.690  0.00  0.00    -0.300 OA
ATOM     14  C   UNL d   1      45.906 -14.355  44.384  0.00  0.00     0.142 A 
ATOM     15  C   UNL d   1      46.104 -15.152  44.285  0.00  0.00     0.118 A 
ENDBRANCH   7  10
ENDBRANCH   1   7
BRANCH   3  16
ATOM     16  C   UNL d   1      46.394 -18.738  42.684  0.00  0.00     0.002 C 
ATOM     17  C   UNL d   1      46.269 -19.542  42.544  0.00  0.00     0.000 C 
BRANCH  16  18
ATOM     18  C   UNL d   1      46.636 -18.243  42.069  0.00  0.00     0.000 C 
ATOM     19  C   UNL d   1      46.647 -18.522  41.292  0.00  0.00     0.000 C 
ENDBRANCH  16  18
ENDBRANCH   3  16
BRANCH   4  20
ATOM     20  O   UNL d   1      46.552 -19.719  44.000  0.00  0.00    -0.328 OA
ATOM     21  C   UNL d   1      46.466 -20.247  44.628  0.00  0.00     0.181 C 
ENDBRANCH   4  20
TORSDOF 5
ENDMDL
