MODEL 1
REMARK VINA RESULT:      40.7      0.000      0.000
REMARK  3 active torsions:
REMARK  status: ('A' for Active; 'I' for Inactive)
REMARK    1  A    between atoms: S_6  and  C_1 
REMARK    2  A    between atoms: C_8  and  S_6 
REMARK    3  A    between atoms: C_7  and  C_8 
ROOT
ATOM      1  C   UNL d   1     -51.570  25.384  33.390  0.00  0.00     0.194 A 
ATOM      2  N   UNL d   1     -51.439  24.587  33.570  0.00  0.00    -0.220 NA
ATOM      3  N   UNL d   1     -52.398  25.499  33.306  0.00  0.00    -0.220 NA
ATOM      4  C   UNL d   1     -52.177  24.208  33.598  0.00  0.00     0.101 A 
ATOM      5  C   UNL d   1     -52.769  24.772  33.434  0.00  0.00     0.101 A 
ATOM      6  C   UNL d   1     -52.386  23.419  33.751  0.00  0.00     0.021 A 
ATOM      7  C   UNL d   1     -53.563  24.529  33.429  0.00  0.00     0.021 A 
ATOM      8  C   UNL d   1     -53.765  23.746  33.582  0.00  0.00     0.002 A 
ATOM      9  C   UNL d   1     -53.176  23.191  33.743  0.00  0.00     0.002 A 
ENDROOT
BRANCH   1  10
ATOM     10  S   UNL d   1     -50.995  25.970  33.306  0.00  0.00    -0.048 SA
BRANCH  10  11
ATOM     11  C   UNL d   1     -50.429  26.091  33.898  0.00  0.00     0.041 C 
BRANCH  11  12
ATOM     12  C   UNL d   1     -50.055  26.824  33.961  0.00  0.00     0.034 A 
ATOM     13  C   UNL d   1     -49.697  27.037  34.674  0.00  0.00     0.141 A 
ATOM     14  F   UNL d   1     -49.719  26.516  35.311  0.00  0.00    -0.204 F 
ATOM     15  C   UNL d   1     -49.320  27.768  34.744  0.00  0.00     0.030 A 
ATOM     16  C   UNL d   1     -49.306  28.279  34.098  0.00  0.00     0.002 A 
ATOM     17  C   UNL d   1     -49.662  28.069  33.385  0.00  0.00     0.000 A 
ATOM     18  C   UNL d   1     -50.037  27.337  33.323  0.00  0.00     0.003 A 
ENDBRANCH  11  12
ENDBRANCH  10  11
ENDBRANCH   1  10
TORSDOF 3
ENDMDL
