MODEL 1
REMARK VINA RESULT:      32.6      0.000      0.000
REMARK  2 active torsions:
REMARK  status: ('A' for Active; 'I' for Inactive)
REMARK    1  A    between atoms: C_13  and  C_6 
REMARK    2  A    between atoms: N_7  and  C_12 
ROOT
ATOM      1  C   UNL d   1      46.388 -18.902  43.269  0.00  0.00     0.095 A 
ATOM      2  C   UNL d   1      46.388 -18.268  42.006  0.00  0.00     0.095 A 
ATOM      3  C   UNL d   1      46.555 -19.630  42.903  0.00  0.00     0.143 A 
ATOM      4  C   UNL d   1      46.556 -18.997  41.640  0.00  0.00     0.143 A 
ATOM      5  S   UNL d   1      46.636 -19.666  42.091  0.00  0.00    -0.044 SA
ATOM      6  C   UNL d   1      46.308 -18.236  42.808  0.00  0.00     0.023 A 
ATOM      7  C   UNL d   1      46.305 -17.579  41.540  0.00  0.00     0.103 C 
ATOM      8  C   UNL d   1      46.304 -18.869  44.114  0.00  0.00     0.103 C 
ATOM      9  N   UNL d   1      46.216 -18.815  44.953  0.00  0.00    -0.191 NA
ATOM     10  N   UNL d   1      46.219 -16.874  41.082  0.00  0.00    -0.191 NA
ATOM     11  N   UNL d   1      46.640 -19.039  40.808  0.00  0.00    -0.140 N 
ATOM     12  N   UNL d   1      46.638 -20.329  43.382  0.00  0.00    -0.140 N 
ENDROOT
BRANCH   6  13
ATOM     13  C   UNL d   1      46.141 -17.504  43.175  0.00  0.00     0.002 A 
ATOM     14  C   UNL d   1      45.483 -17.417  43.654  0.00  0.00     0.002 A 
ATOM     15  C   UNL d   1      45.319 -16.701  44.012  0.00  0.00     0.024 A 
ATOM     16  C   UNL d   1      45.808 -16.055  43.901  0.00  0.00     0.127 A 
ATOM     17  C   UNL d   1      46.472 -16.140  43.419  0.00  0.00     0.024 A 
ATOM     18  C   UNL d   1      46.636 -16.855  43.061  0.00  0.00     0.002 A 
BRANCH  16  19
ATOM     19  N   UNL d   1      45.644 -15.340  44.259  0.00  0.00    -0.114 N 
ATOM     20  O   UNL d   1      45.994 -14.657  43.979  0.00  0.00    -0.532 OA
ATOM     21  O   UNL d   1      45.136 -15.311  44.891  0.00  0.00    -0.532 OA
ENDBRANCH  16  19
ENDBRANCH   6  13
TORSDOF 2
ENDMDL
