MODEL 1
REMARK VINA RESULT:      20.8      0.000      0.000
REMARK  4 active torsions:
REMARK  status: ('A' for Active; 'I' for Inactive)
REMARK    1  A    between atoms: C_7  and  N_1 
REMARK    2  A    between atoms: C_12  and  N_4 
REMARK    3  A    between atoms: C_8  and  C_7 
REMARK    4  A    between atoms: C_16  and  C_12 
ROOT
ATOM      1  N   UNL d   1      45.352 -14.456  44.804  0.00  0.00    -0.273 N 
ATOM      2  C   UNL d   1      44.556 -14.701  44.900  0.00  0.00     0.153 A 
ATOM      3  S   UNL d   1      44.380 -15.496  44.955  0.00  0.00    -0.039 SA
ATOM      4  N   UNL d   1      45.772 -15.816  44.818  0.00  0.00    -0.281 N 
ATOM      5  C   UNL d   1      45.954 -15.011  44.763  0.00  0.00     0.168 A 
ATOM      6  C   UNL d   1      44.977 -16.061  44.915  0.00  0.00     0.120 A 
ATOM      7  S   UNL d   1      43.949 -14.130  44.941  0.00  0.00    -0.052 SA
ENDROOT
BRANCH   4   8
ATOM      8  C   UNL d   1      46.365 -16.383  44.779  0.00  0.00     0.101 C 
BRANCH   8   9
ATOM      9  C   UNL d   1      46.259 -17.057  44.317  0.00  0.00     0.099 A 
ATOM     10  N   UNL d   1      46.198 -16.967  43.495  0.00  0.00    -0.242 NA
ATOM     11  C   UNL d   1      46.091 -17.641  43.023  0.00  0.00     0.099 A 
ATOM     12  C   UNL d   1      46.048 -18.389  43.373  0.00  0.00     0.021 A 
ATOM     13  C   UNL d   1      46.111 -18.465  44.194  0.00  0.00     0.003 A 
ATOM     14  C   UNL d   1      46.216 -17.801  44.659  0.00  0.00     0.021 A 
ENDBRANCH   8   9
ENDBRANCH   4   8
BRANCH   1  15
ATOM     15  C   UNL d   1      45.519 -13.647  44.750  0.00  0.00     0.107 C 
BRANCH  15  16
ATOM     16  C   UNL d   1      45.536 -13.265  44.016  0.00  0.00     0.118 A 
ATOM     17  O   UNL d   1      45.925 -13.538  43.337  0.00  0.00    -0.304 OA
ATOM     18  C   UNL d   1      45.793 -12.984  42.740  0.00  0.00     0.123 A 
ATOM     19  C   UNL d   1      45.334 -12.383  43.041  0.00  0.00     0.029 A 
ATOM     20  C   UNL d   1      45.173 -12.555  43.831  0.00  0.00     0.028 A 
ENDBRANCH  15  16
ENDBRANCH   1  15
TORSDOF 4
ENDMDL
