MODEL 1
REMARK VINA RESULT:      19.1      0.000      0.000
REMARK  3 active torsions:
REMARK  status: ('A' for Active; 'I' for Inactive)
REMARK    1  A    between atoms: C_6  and  C_1 
REMARK    2  A    between atoms: C_7  and  C_6 
REMARK    3  A    between atoms: O_17  and  C_15 
ROOT
ATOM      1  C   UNL d   1     -56.570 -98.934 -44.307  0.00  0.00     0.141 A 
ATOM      2  C   UNL d   1     -57.853 -98.837 -44.662  0.00  0.00     0.064 A 
ATOM      3  C   UNL d   1     -57.083 -98.867 -44.949  0.00  0.00     0.220 A 
ATOM      4  C   UNL d   1     -57.821 -98.885 -43.838  0.00  0.00     0.105 A 
ATOM      5  O   UNL d   1     -57.023 -98.946 -43.612  0.00  0.00    -0.304 OA
ATOM      6  C   UNL d   1     -58.512 -98.869 -43.400  0.00  0.00     0.049 A 
ATOM      7  C   UNL d   1     -58.581 -98.772 -45.045  0.00  0.00     0.007 A 
ATOM      8  O   UNL d   1     -56.855 -98.836 -45.747  0.00  0.00    -0.284 OA
ATOM      9  C   UNL d   1     -59.240 -98.804 -43.782  0.00  0.00     0.096 A 
ATOM     10  C   UNL d   1     -59.272 -98.756 -44.602  0.00  0.00     0.024 A 
ENDROOT
BRANCH   1  11
ATOM     11  C   UNL d   1     -55.746 -98.981 -44.341  0.00  0.00     0.053 C 
BRANCH  11  12
ATOM     12  C   UNL d   1     -55.365 -99.718 -44.331  0.00  0.00     0.102 A 
ATOM     13  O   UNL d   1     -55.090-100.139 -44.983  0.00  0.00    -0.305 OA
ATOM     14  C   UNL d   1     -54.750-100.840 -44.714  0.00  0.00     0.123 A 
ATOM     15  C   UNL d   1     -54.811-100.859 -43.887  0.00  0.00     0.029 A 
ATOM     16  C   UNL d   1     -55.192-100.165 -43.646  0.00  0.00     0.027 A 
ENDBRANCH  11  12
ENDBRANCH   1  11
BRANCH   9  17
ATOM     17  O   UNL d   1     -59.936 -98.787 -43.340  0.00  0.00    -0.328 OA
ATOM     18  C   UNL d   1     -59.904 -98.792 -42.518  0.00  0.00     0.181 C 
ENDBRANCH   9  17
TORSDOF 3
ENDMDL
