MODEL 1
REMARK VINA RESULT:      84.1      0.000      0.000
REMARK  4 active torsions:
REMARK  status: ('A' for Active; 'I' for Inactive)
REMARK    1  A    between atoms: C_9  and  N_1 
REMARK    2  A    between atoms: C_6  and  C_2 
REMARK       I    between atoms: N_8  and  C_6 
REMARK    3  A    between atoms: C_15  and  N_8 
REMARK    4  A    between atoms: C_13  and  C_9 
ROOT
ATOM      1  N   UNL d   1     -52.328  25.173  34.019  0.00  0.00    -0.258 N 
ATOM      2  C   UNL d   1     -52.452  25.222  35.367  0.00  0.00     0.114 A 
ATOM      3  C   UNL d   1     -52.182  25.533  34.702  0.00  0.00     0.270 A 
ATOM      4  C   UNL d   1     -52.738  24.508  34.001  0.00  0.00     0.150 A 
ATOM      5  C   UNL d   1     -52.864  24.556  35.353  0.00  0.00     0.013 A 
ATOM      6  C   UNL d   1     -53.005  24.203  34.671  0.00  0.00     0.035 A 
ATOM      7  N   UNL d   1     -52.878  24.159  33.329  0.00  0.00    -0.227 NA
ATOM      8  O   UNL d   1     -51.867  26.092  34.979  0.00  0.00    -0.266 OA
ATOM      9  C   UNL d   1     -53.418  23.536  34.660  0.00  0.00     0.005 A 
ATOM     10  C   UNL d   1     -53.284  23.500  33.307  0.00  0.00     0.101 A 
ATOM     11  C   UNL d   1     -53.555  23.189  33.973  0.00  0.00     0.021 A 
ENDROOT
BRANCH   2  12
ATOM     12  C   UNL d   1     -52.310  25.578  36.051  0.00  0.00     0.284 C 
ATOM     13  N   UNL d   1     -51.623  25.656  36.515  0.00  0.00    -0.208 NA
ATOM     14  O   UNL d   1     -52.898  25.778  36.119  0.00  0.00    -0.265 OA
BRANCH  13  15
ATOM     15  C   UNL d   1     -51.650  26.086  37.246  0.00  0.00     0.085 A 
ATOM     16  C   UNL d   1     -52.271  25.964  37.783  0.00  0.00     0.019 A 
ATOM     17  C   UNL d   1     -52.285  26.389  38.491  0.00  0.00     0.002 A 
ATOM     18  C   UNL d   1     -51.688  26.930  38.663  0.00  0.00     0.000 A 
ATOM     19  C   UNL d   1     -51.062  27.063  38.138  0.00  0.00     0.002 A 
ATOM     20  C   UNL d   1     -51.048  26.633  37.421  0.00  0.00     0.019 A 
ENDBRANCH  13  15
ENDBRANCH   2  12
BRANCH   1  21
ATOM     21  C   UNL d   1     -52.041  25.502  33.307  0.00  0.00     0.084 C 
BRANCH  21  22
ATOM     22  C   UNL d   1     -51.487  25.829  33.309  0.00  0.00     0.018 A 
ATOM     23  C   UNL d   1     -51.542  26.692  33.314  0.00  0.00     0.004 A 
ATOM     24  C   UNL d   1     -50.822  27.173  33.317  0.00  0.00     0.030 A 
ATOM     25  C   UNL d   1     -50.052  26.791  33.314  0.00  0.00     0.140 A 
ATOM     26  C   UNL d   1     -49.986  25.934  33.309  0.00  0.00     0.030 A 
ATOM     27  F   UNL d   1     -49.349  27.260  33.317  0.00  0.00    -0.204 F 
ATOM     28  C   UNL d   1     -50.709  25.445  33.306  0.00  0.00     0.004 A 
ENDBRANCH  21  22
ENDBRANCH   1  21
TORSDOF 4
ENDMDL
