MODEL 1
REMARK VINA RESULT:      -7.9      0.000      0.000
REMARK  5 active torsions:
REMARK  status: ('A' for Active; 'I' for Inactive)
REMARK       I    between atoms: C_3  and  N_1 
REMARK    1  A    between atoms: S_7  and  C_2 
REMARK    2  A    between atoms: C_6  and  C_3 
REMARK    3  A    between atoms: N_4  and  C_8 
REMARK    4  A    between atoms: C_17  and  S_7 
REMARK    5  A    between atoms: C_18  and  C_17 
ROOT
ATOM      1  N   UNL d   1     -49.254  12.656  23.258  0.00  0.00    -0.251 N 
ATOM      2  C   UNL d   1     -48.776  12.016  23.481  0.00  0.00     0.182 A 
ATOM      3  C   UNL d   1     -48.993  13.394  22.999  0.00  0.00     0.266 C 
ATOM      4  N   UNL d   1     -49.270  11.398  23.698  0.00  0.00    -0.219 NA
ATOM      5  O   UNL d   1     -48.184  13.554  22.943  0.00  0.00    -0.267 OA
ATOM      6  C   UNL d   1     -50.050  12.424  23.339  0.00  0.00     0.106 A 
ATOM      7  C   UNL d   1     -50.054  11.641  23.613  0.00  0.00     0.120 A 
ENDROOT
BRANCH   2   8
ATOM      8  S   UNL d   1     -47.953  12.015  23.481  0.00  0.00    -0.049 SA
BRANCH   8   9
ATOM      9  C   UNL d   1     -47.547  11.336  23.688  0.00  0.00     0.038 C 
BRANCH   9  10
ATOM     10  C   UNL d   1     -46.737  11.288  23.570  0.00  0.00     0.007 A 
ATOM     11  C   UNL d   1     -46.307  11.971  23.370  0.00  0.00     0.002 A 
ATOM     12  C   UNL d   1     -45.489  11.921  23.251  0.00  0.00     0.024 A 
ATOM     13  C   UNL d   1     -45.110  11.198  23.331  0.00  0.00     0.127 A 
ATOM     14  C   UNL d   1     -45.529  10.520  23.528  0.00  0.00     0.024 A 
ATOM     15  C   UNL d   1     -46.344  10.569  23.647  0.00  0.00     0.002 A 
BRANCH  13  16
ATOM     16  N   UNL d   1     -44.291  11.156  23.210  0.00  0.00    -0.114 N 
ATOM     17  O   UNL d   1     -43.931  11.596  22.591  0.00  0.00    -0.532 OA
ATOM     18  O   UNL d   1     -43.811  10.679  23.698  0.00  0.00    -0.532 OA
ENDBRANCH  13  16
ENDBRANCH   9  10
ENDBRANCH   8   9
ENDBRANCH   2   8
BRANCH   3  19
ATOM     19  C   UNL d   1     -49.544  13.981  22.794  0.00  0.00     0.057 A 
ATOM     20  C   UNL d   1     -49.733  14.573  23.344  0.00  0.00     0.005 A 
ATOM     21  C   UNL d   1     -50.281  15.149  23.128  0.00  0.00     0.000 A 
ATOM     22  C   UNL d   1     -50.472  15.741  23.674  0.00  0.00     0.000 C 
ATOM     23  C   UNL d   1     -50.635  15.137  22.378  0.00  0.00     0.000 A 
ATOM     24  C   UNL d   1     -50.443  14.549  21.840  0.00  0.00     0.000 A 
ATOM     25  C   UNL d   1     -49.896  13.969  22.048  0.00  0.00     0.005 A 
ENDBRANCH   3  19
TORSDOF 5
ENDMDL
MODEL 2
REMARK VINA RESULT:      -7.6      1.616      2.413
REMARK  5 active torsions:
REMARK  status: ('A' for Active; 'I' for Inactive)
REMARK       I    between atoms: C_3  and  N_1 
REMARK    1  A    between atoms: S_7  and  C_2 
REMARK    2  A    between atoms: C_6  and  C_3 
REMARK    3  A    between atoms: N_4  and  C_8 
REMARK    4  A    between atoms: C_17  and  S_7 
REMARK    5  A    between atoms: C_18  and  C_17 
ROOT
ATOM      1  N   UNL d   1     -48.359  13.753  22.495  0.00  0.00    -0.251 N 
ATOM      2  C   UNL d   1     -47.566  13.991  22.538  0.00  0.00     0.182 A 
ATOM      3  C   UNL d   1     -48.633  12.989  22.352  0.00  0.00     0.266 C 
ATOM      4  N   UNL d   1     -47.554  14.797  22.690  0.00  0.00    -0.219 NA
ATOM      5  O   UNL d   1     -48.098  12.369  22.234  0.00  0.00    -0.267 OA
ATOM      6  C   UNL d   1     -48.836  14.424  22.622  0.00  0.00     0.106 A 
ATOM      7  C   UNL d   1     -48.331  15.070  22.743  0.00  0.00     0.120 A 
ENDROOT
BRANCH   2   8
ATOM      8  S   UNL d   1     -46.915  13.495  22.444  0.00  0.00    -0.049 SA
BRANCH   8   9
ATOM      9  C   UNL d   1     -46.160  13.807  22.464  0.00  0.00     0.038 C 
BRANCH   9  10
ATOM     10  C   UNL d   1     -45.508  13.313  22.407  0.00  0.00     0.007 A 
ATOM     11  C   UNL d   1     -45.405  12.699  22.957  0.00  0.00     0.002 A 
ATOM     12  C   UNL d   1     -44.746  12.200  22.897  0.00  0.00     0.024 A 
ATOM     13  C   UNL d   1     -44.201  12.318  22.294  0.00  0.00     0.127 A 
ATOM     14  C   UNL d   1     -44.298  12.922  21.748  0.00  0.00     0.024 A 
ATOM     15  C   UNL d   1     -44.954  13.419  21.807  0.00  0.00     0.002 A 
BRANCH  13  16
ATOM     16  N   UNL d   1     -43.544  11.814  22.241  0.00  0.00    -0.114 N 
ATOM     17  O   UNL d   1     -43.565  11.052  22.596  0.00  0.00    -0.532 OA
ATOM     18  O   UNL d   1     -42.856  12.053  21.837  0.00  0.00    -0.532 OA
ENDBRANCH  13  16
ENDBRANCH   9  10
ENDBRANCH   8   9
ENDBRANCH   2   8
BRANCH   3  19
ATOM     19  C   UNL d   1     -49.449  12.838  22.325  0.00  0.00     0.057 A 
ATOM     20  C   UNL d   1     -49.831  12.537  22.998  0.00  0.00     0.005 A 
ATOM     21  C   UNL d   1     -50.641  12.392  22.958  0.00  0.00     0.000 A 
ATOM     22  C   UNL d   1     -51.025  12.092  23.627  0.00  0.00     0.000 C 
ATOM     23  C   UNL d   1     -51.064  12.544  22.262  0.00  0.00     0.000 A 
ATOM     24  C   UNL d   1     -50.681  12.841  21.601  0.00  0.00     0.000 A 
ATOM     25  C   UNL d   1     -49.871  12.989  21.632  0.00  0.00     0.005 A 
ENDBRANCH   3  19
TORSDOF 5
ENDMDL
MODEL 3
REMARK VINA RESULT:      -7.0      9.014     10.747
REMARK  5 active torsions:
REMARK  status: ('A' for Active; 'I' for Inactive)
REMARK       I    between atoms: C_3  and  N_1 
REMARK    1  A    between atoms: S_7  and  C_2 
REMARK    2  A    between atoms: C_6  and  C_3 
REMARK    3  A    between atoms: N_4  and  C_8 
REMARK    4  A    between atoms: C_17  and  S_7 
REMARK    5  A    between atoms: C_18  and  C_17 
ROOT
ATOM      1  N   UNL d   1     -39.809  15.283  17.567  0.00  0.00    -0.251 N 
ATOM      2  C   UNL d   1     -40.239  15.323  18.274  0.00  0.00     0.182 A 
ATOM      3  C   UNL d   1     -38.998  15.152  17.494  0.00  0.00     0.266 C 
ATOM      4  N   UNL d   1     -41.025  15.462  18.082  0.00  0.00    -0.219 NA
ATOM      5  O   UNL d   1     -38.531  15.045  18.168  0.00  0.00    -0.267 OA
ATOM      6  C   UNL d   1     -40.340  15.400  16.935  0.00  0.00     0.106 A 
ATOM      7  C   UNL d   1     -41.094  15.510  17.262  0.00  0.00     0.120 A 
ENDROOT
BRANCH   2   8
ATOM      8  S   UNL d   1     -39.922  15.237  19.029  0.00  0.00    -0.049 SA
BRANCH   8   9
ATOM      9  C   UNL d   1     -40.407  15.301  19.684  0.00  0.00     0.038 C 
BRANCH   9  10
ATOM     10  C   UNL d   1     -40.088  15.256  20.438  0.00  0.00     0.007 A 
ATOM     11  C   UNL d   1     -40.095  14.533  20.848  0.00  0.00     0.002 A 
ATOM     12  C   UNL d   1     -39.773  14.490  21.610  0.00  0.00     0.024 A 
ATOM     13  C   UNL d   1     -39.450  15.162  21.953  0.00  0.00     0.127 A 
ATOM     14  C   UNL d   1     -39.440  15.878  21.553  0.00  0.00     0.024 A 
ATOM     15  C   UNL d   1     -39.761  15.922  20.794  0.00  0.00     0.002 A 
BRANCH  13  16
ATOM     16  N   UNL d   1     -39.129  15.111  22.716  0.00  0.00    -0.114 N 
ATOM     17  O   UNL d   1     -38.982  15.810  23.161  0.00  0.00    -0.532 OA
ATOM     18  O   UNL d   1     -38.948  14.371  23.054  0.00  0.00    -0.532 OA
ENDBRANCH  13  16
ENDBRANCH   9  10
ENDBRANCH   8   9
ENDBRANCH   2   8
BRANCH   3  19
ATOM     19  C   UNL d   1     -38.647  15.127  16.742  0.00  0.00     0.057 A 
ATOM     20  C   UNL d   1     -38.468  14.393  16.399  0.00  0.00     0.005 A 
ATOM     21  C   UNL d   1     -38.119  14.383  15.653  0.00  0.00     0.000 A 
ATOM     22  C   UNL d   1     -37.940  13.652  15.308  0.00  0.00     0.000 C 
ATOM     23  C   UNL d   1     -37.952  15.090  15.254  0.00  0.00     0.000 A 
ATOM     24  C   UNL d   1     -38.131  15.811  15.599  0.00  0.00     0.000 A 
ATOM     25  C   UNL d   1     -38.480  15.831  16.345  0.00  0.00     0.005 A 
ENDBRANCH   3  19
TORSDOF 5
ENDMDL
MODEL 4
REMARK VINA RESULT:      -5.4      7.078      9.540
REMARK  5 active torsions:
REMARK  status: ('A' for Active; 'I' for Inactive)
REMARK       I    between atoms: C_3  and  N_1 
REMARK    1  A    between atoms: S_7  and  C_2 
REMARK    2  A    between atoms: C_6  and  C_3 
REMARK    3  A    between atoms: N_4  and  C_8 
REMARK    4  A    between atoms: C_17  and  S_7 
REMARK    5  A    between atoms: C_18  and  C_17 
ROOT
ATOM      1  N   UNL d   1     -39.702  14.885  18.900  0.00  0.00    -0.251 N 
ATOM      2  C   UNL d   1     -40.044  14.911  19.655  0.00  0.00     0.182 A 
ATOM      3  C   UNL d   1     -39.930  14.395  18.277  0.00  0.00     0.266 C 
ATOM      4  N   UNL d   1     -39.642  15.477  20.092  0.00  0.00    -0.219 NA
ATOM      5  O   UNL d   1     -40.556  13.863  18.372  0.00  0.00    -0.267 OA
ATOM      6  C   UNL d   1     -39.084  15.443  18.877  0.00  0.00     0.106 A 
ATOM      7  C   UNL d   1     -39.051  15.808  19.621  0.00  0.00     0.120 A 
ENDROOT
BRANCH   2   8
ATOM      8  S   UNL d   1     -40.675  14.446  19.907  0.00  0.00    -0.049 SA
BRANCH   8   9
ATOM      9  C   UNL d   1     -40.950  14.516  20.674  0.00  0.00     0.038 C 
BRANCH   9  10
ATOM     10  C   UNL d   1     -41.560  14.035  20.938  0.00  0.00     0.007 A 
ATOM     11  C   UNL d   1     -41.387  13.347  21.369  0.00  0.00     0.002 A 
ATOM     12  C   UNL d   1     -42.003  12.862  21.635  0.00  0.00     0.024 A 
ATOM     13  C   UNL d   1     -42.781  13.067  21.470  0.00  0.00     0.127 A 
ATOM     14  C   UNL d   1     -42.958  13.746  21.044  0.00  0.00     0.024 A 
ATOM     15  C   UNL d   1     -42.344  14.229  20.779  0.00  0.00     0.002 A 
BRANCH  13  16
ATOM     16  N   UNL d   1     -43.394  12.577  21.739  0.00  0.00    -0.114 N 
ATOM     17  O   UNL d   1     -43.226  11.794  21.999  0.00  0.00    -0.532 OA
ATOM     18  O   UNL d   1     -44.181  12.849  21.758  0.00  0.00    -0.532 OA
ENDBRANCH  13  16
ENDBRANCH   9  10
ENDBRANCH   8   9
ENDBRANCH   2   8
BRANCH   3  19
ATOM     19  C   UNL d   1     -39.531  14.435  17.550  0.00  0.00     0.057 A 
ATOM     20  C   UNL d   1     -38.929  13.888  17.384  0.00  0.00     0.005 A 
ATOM     21  C   UNL d   1     -38.541  13.938  16.660  0.00  0.00     0.000 A 
ATOM     22  C   UNL d   1     -37.940  13.394  16.492  0.00  0.00     0.000 C 
ATOM     23  C   UNL d   1     -38.747  14.522  16.108  0.00  0.00     0.000 A 
ATOM     24  C   UNL d   1     -39.342  15.059  16.278  0.00  0.00     0.000 A 
ATOM     25  C   UNL d   1     -39.736  15.016  17.001  0.00  0.00     0.005 A 
ENDBRANCH   3  19
TORSDOF 5
ENDMDL
