MODEL 1
REMARK VINA RESULT:     100.3      0.000      0.000
REMARK  9 active torsions:
REMARK  status: ('A' for Active; 'I' for Inactive)
REMARK    1  A    between atoms: C_5  and  C_1 
REMARK    2  A    between atoms: N_6  and  C_2 
REMARK    3  A    between atoms: C_7  and  C_5 
REMARK    4  A    between atoms: C_8  and  C_5 
REMARK    5  A    between atoms: O_13  and  C_7 
REMARK    6  A    between atoms: C_17  and  N_12 
REMARK    7  A    between atoms: C_20  and  O_13 
REMARK    8  A    between atoms: C_21  and  C_17 
REMARK    9  A    between atoms: C_24  and  C_20 
ROOT
ATOM      1  C   UNL d   1     -56.398-102.496 -38.386  0.00  0.00     0.117 A 
ATOM      2  C   UNL d   1     -55.616-102.649 -38.586  0.00  0.00     0.145 A 
ATOM      3  N   UNL d   1     -55.050-102.776 -37.994  0.00  0.00    -0.230 NA
ATOM      4  N   UNL d   1     -56.621-102.469 -37.589  0.00  0.00    -0.241 NA
ATOM      5  C   UNL d   1     -55.273-102.750 -37.196  0.00  0.00     0.100 A 
ATOM      6  C   UNL d   1     -56.067-102.594 -36.999  0.00  0.00     0.099 A 
ATOM      7  C   UNL d   1     -54.712-102.877 -36.601  0.00  0.00     0.021 A 
ATOM      8  C   UNL d   1     -56.287-102.568 -36.210  0.00  0.00     0.021 A 
ATOM      9  C   UNL d   1     -54.942-102.848 -35.815  0.00  0.00     0.002 A 
ATOM     10  C   UNL d   1     -55.731-102.694 -35.610  0.00  0.00     0.002 A 
ENDROOT
BRANCH   2  11
ATOM     11  N   UNL d   1     -55.554-102.642 -39.411  0.00  0.00    -0.189 NA
ATOM     12  C   UNL d   1     -55.368-102.552 -40.047  0.00  0.00     0.076 A 
ATOM     13  C   UNL d   1     -55.799-102.849 -40.941  0.00  0.00     0.093 A 
ATOM     14  N   UNL d   1     -55.166-102.481 -41.448  0.00  0.00    -0.301 N 
ATOM     15  C   UNL d   1     -55.384-102.591 -40.825  0.00  0.00     0.093 A 
ATOM     16  C   UNL d   1     -54.951-102.290 -39.853  0.00  0.00     0.076 A 
BRANCH  14  17
ATOM     17  C   UNL d   1     -54.711-102.228 -42.094  0.00  0.00     0.080 C 
BRANCH  17  18
ATOM     18  C   UNL d   1     -55.064-102.147 -42.835  0.00  0.00     0.018 A 
ATOM     19  C   UNL d   1     -54.978-102.742 -43.396  0.00  0.00     0.002 A 
ATOM     20  C   UNL d   1     -55.333-102.657 -44.135  0.00  0.00     0.000 A 
ATOM     21  C   UNL d   1     -55.771-101.979 -44.311  0.00  0.00     0.000 A 
ATOM     22  C   UNL d   1     -55.853-101.386 -43.743  0.00  0.00     0.000 A 
ATOM     23  C   UNL d   1     -55.499-101.471 -43.005  0.00  0.00     0.002 A 
ENDBRANCH  17  18
ENDBRANCH  14  17
ENDBRANCH   2  11
BRANCH   1  24
ATOM     24  C   UNL d   1     -56.826-102.393 -39.087  0.00  0.00     0.104 C 
BRANCH  24  25
ATOM     25  C   UNL d   1     -57.601-102.668 -39.230  0.00  0.00     0.303 C 
ATOM     26  O   UNL d   1     -58.092-102.863 -38.597  0.00  0.00    -0.259 OA
BRANCH  25  27
ATOM     27  O   UNL d   1     -57.873-102.742 -40.009  0.00  0.00    -0.271 OA
BRANCH  27  28
ATOM     28  C   UNL d   1     -58.672-102.874 -40.160  0.00  0.00     0.126 C 
BRANCH  28  29
ATOM     29  C   UNL d   1     -59.247-102.423 -39.780  0.00  0.00     0.025 C 
ATOM     30  C   UNL d   1     -59.407-101.660 -40.038  0.00  0.00     0.002 C 
ATOM     31  C   UNL d   1     -59.663-102.738 -39.138  0.00  0.00     0.002 C 
ENDBRANCH  28  29
ENDBRANCH  27  28
ENDBRANCH  25  27
ENDBRANCH  24  25
BRANCH  24  32
ATOM     32  C   UNL d   1     -56.357-101.974 -39.618  0.00  0.00     0.129 C 
ATOM     33  N   UNL d   1     -55.995-101.238 -39.484  0.00  0.00    -0.146 N 
ENDBRANCH  24  32
ENDBRANCH   1  24
TORSDOF 9
ENDMDL
