MODEL 1
REMARK VINA RESULT:      27.4      0.000      0.000
REMARK  3 active torsions:
REMARK  status: ('A' for Active; 'I' for Inactive)
REMARK    1  A    between atoms: C_8  and  C_1 
REMARK    2  A    between atoms: O_13  and  C_6 
REMARK    3  A    between atoms: C_17  and  O_13 
ROOT
ATOM      1  C   UNL d   1      46.006 -17.746  42.791  0.00  0.00     0.009 A 
ATOM      2  C   UNL d   1      46.152 -18.394  43.285  0.00  0.00     0.046 A 
ATOM      3  C   UNL d   1      46.231 -18.278  44.101  0.00  0.00     0.105 A 
ATOM      4  O   UNL d   1      46.166 -17.521  44.418  0.00  0.00    -0.273 OA
ATOM      5  C   UNL d   1      45.940 -16.988  43.104  0.00  0.00     0.069 A 
ATOM      6  C   UNL d   1      46.217 -19.151  42.971  0.00  0.00     0.102 A 
ATOM      7  C   UNL d   1      46.019 -16.872  43.917  0.00  0.00     0.300 A 
ATOM      8  C   UNL d   1      46.376 -18.919  44.597  0.00  0.00     0.025 A 
ATOM      9  C   UNL d   1      46.362 -19.796  43.464  0.00  0.00     0.025 A 
ATOM     10  O   UNL d   1      45.953 -16.110  44.237  0.00  0.00    -0.259 OA
ATOM     11  C   UNL d   1      46.442 -19.680  44.277  0.00  0.00     0.004 A 
ATOM     12  C   UNL d   1      46.586 -20.317  44.776  0.00  0.00     0.000 C 
ENDROOT
BRANCH   1  13
ATOM     13  C   UNL d   1      45.926 -17.862  41.974  0.00  0.00     0.000 A 
ATOM     14  C   UNL d   1      45.172 -17.964  41.644  0.00  0.00     0.000 A 
ATOM     15  C   UNL d   1      45.092 -18.081  40.818  0.00  0.00     0.000 A 
ATOM     16  C   UNL d   1      45.759 -18.097  40.337  0.00  0.00     0.000 A 
ATOM     17  C   UNL d   1      46.515 -17.993  40.680  0.00  0.00     0.000 A 
ATOM     18  C   UNL d   1      46.594 -17.877  41.493  0.00  0.00     0.000 A 
ENDBRANCH   1  13
BRANCH   6  19
ATOM     19  O   UNL d   1      46.138 -19.268  42.154  0.00  0.00    -0.305 OA
BRANCH  19  20
ATOM     20  C   UNL d   1      46.048 -20.020  41.852  0.00  0.00     0.123 C 
ATOM     21  C   UNL d   1      46.624 -20.329  41.352  0.00  0.00     0.029 C 
ENDBRANCH  19  20
ENDBRANCH   6  19
TORSDOF 3
ENDMDL
