MODEL 1
REMARK VINA RESULT:      -5.8      0.000      0.000
REMARK  5 active torsions:
REMARK  status: ('A' for Active; 'I' for Inactive)
REMARK    1  A    between atoms: N_4  and  C_1 
REMARK    2  A    between atoms: C_8  and  C_3 
REMARK       I    between atoms: C_7  and  N_4 
REMARK    3  A    between atoms: C_11  and  C_7 
REMARK    4  A    between atoms: C_12  and  C_11 
REMARK    5  A    between atoms: O_18  and  C_13 
ROOT
ATOM      1  N   UNL d   1     -41.477-123.444 -51.686  0.00  0.00    -0.183 NA
ATOM      2  C   UNL d   1     -41.902-123.277 -50.999  0.00  0.00     0.281 C 
ATOM      3  O   UNL d   1     -42.314-122.558 -50.936  0.00  0.00    -0.265 OA
ENDROOT
BRANCH   1   4
ATOM      4  C   UNL d   1     -41.465-122.897 -52.307  0.00  0.00     0.197 A 
ATOM      5  N   UNL d   1     -41.790-123.002 -53.046  0.00  0.00    -0.221 NA
ATOM      6  C   UNL d   1     -41.653-122.322 -53.490  0.00  0.00     0.090 A 
ATOM      7  C   UNL d   1     -41.235-121.794 -53.011  0.00  0.00     0.058 A 
ATOM      8  S   UNL d   1     -41.123-122.162 -52.273  0.00  0.00    -0.046 SA
BRANCH   6   9
ATOM      9  C   UNL d   1     -41.883-122.194 -54.256  0.00  0.00     0.021 A 
ATOM     10  C   UNL d   1     -42.638-121.889 -54.406  0.00  0.00     0.022 A 
ATOM     11  C   UNL d   1     -42.874-121.757 -55.189  0.00  0.00     0.099 A 
ATOM     12  N   UNL d   1     -42.354-121.931 -55.809  0.00  0.00    -0.242 NA
ATOM     13  C   UNL d   1     -41.610-122.231 -55.660  0.00  0.00     0.099 A 
ATOM     14  C   UNL d   1     -41.366-122.367 -54.876  0.00  0.00     0.022 A 
ENDBRANCH   6   9
ENDBRANCH   1   4
BRANCH   2  15
ATOM     15  C   UNL d   1     -41.918-123.817 -50.378  0.00  0.00     0.063 C 
BRANCH  15  16
ATOM     16  C   UNL d   1     -41.994-123.547 -49.606  0.00  0.00     0.005 A 
ATOM     17  C   UNL d   1     -41.338-123.571 -49.088  0.00  0.00     0.002 A 
ATOM     18  C   UNL d   1     -41.423-123.298 -48.318  0.00  0.00     0.024 A 
ATOM     19  C   UNL d   1     -42.137-123.005 -48.051  0.00  0.00     0.094 A 
ATOM     20  C   UNL d   1     -42.793-122.981 -48.569  0.00  0.00     0.024 A 
ATOM     21  C   UNL d   1     -42.717-123.252 -49.341  0.00  0.00     0.002 A 
BRANCH  19  22
ATOM     22  O   UNL d   1     -42.224-122.731 -47.278  0.00  0.00    -0.328 OA
ATOM     23  C   UNL d   1     -42.493-123.222 -46.683  0.00  0.00     0.181 C 
ENDBRANCH  19  22
ENDBRANCH  15  16
ENDBRANCH   2  15
TORSDOF 5
ENDMDL
