MODEL 1
REMARK VINA RESULT:      -5.5      0.000      0.000
REMARK  5 active torsions:
REMARK  status: ('A' for Active; 'I' for Inactive)
REMARK    1  A    between atoms: C_2  and  C_1 
REMARK    2  A    between atoms: O_4  and  C_2 
REMARK    3  A    between atoms: C_9  and  O_4 
REMARK    4  A    between atoms: C_5  and  C_9 
REMARK    5  A    between atoms: C_12  and  C_5 
ROOT
ATOM      1  C   UNL d   1     -41.494-122.421 -52.792  0.00  0.00     0.168 C 
ENDROOT
BRANCH   1   2
ATOM      2  C   UNL d   1     -41.535-122.899 -53.470  0.00  0.00     0.220 C 
ATOM      3  O   UNL d   1     -41.402-123.708 -53.410  0.00  0.00    -0.284 OA
BRANCH   2   4
ATOM      4  C   UNL d   1     -41.711-122.554 -54.199  0.00  0.00     0.041 A 
ATOM      5  C   UNL d   1     -42.417-122.131 -54.286  0.00  0.00     0.003 A 
ATOM      6  C   UNL d   1     -42.594-121.787 -55.010  0.00  0.00     0.000 A 
ATOM      7  C   UNL d   1     -42.074-121.862 -55.643  0.00  0.00     0.000 A 
ATOM      8  C   UNL d   1     -41.368-122.287 -55.548  0.00  0.00     0.000 A 
ATOM      9  C   UNL d   1     -41.192-122.631 -54.823  0.00  0.00     0.003 A 
ENDBRANCH   2   4
ENDBRANCH   1   2
BRANCH   1  10
ATOM     10  O   UNL d   1     -41.558-122.761 -52.048  0.00  0.00    -0.267 OA
BRANCH  10  11
ATOM     11  C   UNL d   1     -41.496-122.294 -51.376  0.00  0.00     0.306 C 
ATOM     12  O   UNL d   1     -41.123-121.562 -51.411  0.00  0.00    -0.258 OA
BRANCH  11  13
ATOM     13  C   UNL d   1     -41.810-122.562 -50.658  0.00  0.00     0.093 A 
ATOM     14  S   UNL d   1     -41.427-123.042 -50.110  0.00  0.00    -0.081 SA
ATOM     15  C   UNL d   1     -41.938-123.174 -49.479  0.00  0.00     0.036 A 
ATOM     16  C   UNL d   1     -42.644-122.773 -49.634  0.00  0.00     0.008 A 
ATOM     17  C   UNL d   1     -42.566-122.396 -50.361  0.00  0.00     0.012 A 
ENDBRANCH  11  13
ENDBRANCH  10  11
ENDBRANCH   1  10
TORSDOF 5
ENDMDL
MODEL 2
REMARK VINA RESULT:      -5.3      1.312      4.288
REMARK  5 active torsions:
REMARK  status: ('A' for Active; 'I' for Inactive)
REMARK    1  A    between atoms: C_2  and  C_1 
REMARK    2  A    between atoms: O_4  and  C_2 
REMARK    3  A    between atoms: C_9  and  O_4 
REMARK    4  A    between atoms: C_5  and  C_9 
REMARK    5  A    between atoms: C_12  and  C_5 
ROOT
ATOM      1  C   UNL d   1     -41.382-122.729 -52.289  0.00  0.00     0.168 C 
ENDROOT
BRANCH   1   2
ATOM      2  C   UNL d   1     -41.366-122.282 -51.589  0.00  0.00     0.220 C 
ATOM      3  O   UNL d   1     -41.124-121.496 -51.610  0.00  0.00    -0.284 OA
BRANCH   2   4
ATOM      4  C   UNL d   1     -41.595-122.632 -50.878  0.00  0.00     0.041 A 
ATOM      5  C   UNL d   1     -41.139-123.250 -50.568  0.00  0.00     0.003 A 
ATOM      6  C   UNL d   1     -41.363-123.602 -49.861  0.00  0.00     0.000 A 
ATOM      7  C   UNL d   1     -42.035-123.341 -49.464  0.00  0.00     0.000 A 
ATOM      8  C   UNL d   1     -42.487-122.721 -49.780  0.00  0.00     0.000 A 
ATOM      9  C   UNL d   1     -42.261-122.370 -50.489  0.00  0.00     0.003 A 
ENDBRANCH   2   4
ENDBRANCH   1   2
BRANCH   1  10
ATOM     10  O   UNL d   1     -41.490-122.355 -53.011  0.00  0.00    -0.267 OA
BRANCH  10  11
ATOM     11  C   UNL d   1     -41.504-122.795 -53.704  0.00  0.00     0.306 C 
ATOM     12  O   UNL d   1     -41.256-123.578 -53.704  0.00  0.00    -0.258 OA
BRANCH  11  13
ATOM     13  C   UNL d   1     -41.771-122.447 -54.406  0.00  0.00     0.093 A 
ATOM     14  S   UNL d   1     -41.319-122.309 -55.081  0.00  0.00    -0.081 SA
ATOM     15  C   UNL d   1     -41.800-121.955 -55.647  0.00  0.00     0.036 A 
ATOM     16  C   UNL d   1     -42.556-121.871 -55.323  0.00  0.00     0.008 A 
ATOM     17  C   UNL d   1     -42.538-122.174 -54.559  0.00  0.00     0.012 A 
ENDBRANCH  11  13
ENDBRANCH  10  11
ENDBRANCH   1  10
TORSDOF 5
ENDMDL
MODEL 3
REMARK VINA RESULT:      -3.4      1.315      4.657
REMARK  5 active torsions:
REMARK  status: ('A' for Active; 'I' for Inactive)
REMARK    1  A    between atoms: C_2  and  C_1 
REMARK    2  A    between atoms: O_4  and  C_2 
REMARK    3  A    between atoms: C_9  and  O_4 
REMARK    4  A    between atoms: C_5  and  C_9 
REMARK    5  A    between atoms: C_12  and  C_5 
ROOT
ATOM      1  C   UNL d   1     -41.910-122.992 -50.630  0.00  0.00     0.168 C 
ENDROOT
BRANCH   1   2
ATOM      2  C   UNL d   1     -42.501-122.779 -50.087  0.00  0.00     0.220 C 
ATOM      3  O   UNL d   1     -43.141-122.326 -50.335  0.00  0.00    -0.284 OA
BRANCH   2   4
ATOM      4  C   UNL d   1     -42.439-123.025 -49.302  0.00  0.00     0.041 A 
ATOM      5  C   UNL d   1     -43.047-123.480 -48.973  0.00  0.00     0.003 A 
ATOM      6  C   UNL d   1     -42.988-123.726 -48.192  0.00  0.00     0.000 A 
ATOM      7  C   UNL d   1     -42.331-123.523 -47.741  0.00  0.00     0.000 A 
ATOM      8  C   UNL d   1     -41.725-123.067 -48.078  0.00  0.00     0.000 A 
ATOM      9  C   UNL d   1     -41.785-122.820 -48.860  0.00  0.00     0.003 A 
ENDBRANCH   2   4
ENDBRANCH   1   2
BRANCH   1  10
ATOM     10  O   UNL d   1     -41.961-122.743 -51.410  0.00  0.00    -0.267 OA
BRANCH  10  11
ATOM     11  C   UNL d   1     -41.522-123.119 -51.992  0.00  0.00     0.306 C 
ATOM     12  O   UNL d   1     -41.123-123.817 -51.824  0.00  0.00    -0.258 OA
BRANCH  11  13
ATOM     13  C   UNL d   1     -41.482-122.793 -52.752  0.00  0.00     0.093 A 
ATOM     14  S   UNL d   1     -41.415-121.992 -52.934  0.00  0.00    -0.081 SA
ATOM     15  C   UNL d   1     -41.393-121.913 -53.752  0.00  0.00     0.036 A 
ATOM     16  C   UNL d   1     -41.447-122.669 -54.083  0.00  0.00     0.008 A 
ATOM     17  C   UNL d   1     -41.502-123.211 -53.468  0.00  0.00     0.012 A 
ENDBRANCH  11  13
ENDBRANCH  10  11
ENDBRANCH   1  10
TORSDOF 5
ENDMDL
