MODEL 1
REMARK VINA RESULT:      -3.1      0.000      0.000
REMARK  4 active torsions:
REMARK  status: ('A' for Active; 'I' for Inactive)
REMARK    1  A    between atoms: C_3  and  C_1 
REMARK    2  A    between atoms: N_2  and  C_9 
REMARK    3  A    between atoms: N_6  and  C_3 
REMARK    4  A    between atoms: C_10  and  C_5 
ROOT
ATOM      1  C   UNL d   1      30.664  16.292 -24.339  0.00  0.00     0.126 A 
ATOM      2  O   UNL d   1      30.872  17.093 -24.418  0.00  0.00    -0.305 OA
ATOM      3  C   UNL d   1      31.676  17.148 -24.252  0.00  0.00     0.100 A 
ATOM      4  C   UNL d   1      31.328  15.898 -24.134  0.00  0.00     0.029 A 
ATOM      5  C   UNL d   1      31.946  16.404 -24.078  0.00  0.00     0.027 A 
ENDROOT
BRANCH   3   6
ATOM      6  C   UNL d   1      32.199  17.793 -24.239  0.00  0.00     0.024 A 
ATOM      7  C   UNL d   1      32.341  18.194 -23.515  0.00  0.00     0.025 A 
ATOM      8  C   UNL d   1      32.864  18.839 -23.502  0.00  0.00     0.127 A 
ATOM      9  C   UNL d   1      33.241  19.083 -24.199  0.00  0.00     0.024 A 
ATOM     10  C   UNL d   1      33.095  18.685 -24.900  0.00  0.00     0.002 A 
ATOM     11  C   UNL d   1      32.575  18.043 -24.914  0.00  0.00     0.002 A 
BRANCH   8  12
ATOM     12  N   UNL d   1      33.002  19.228 -22.800  0.00  0.00    -0.114 N 
ATOM     13  O   UNL d   1      33.127  18.840 -22.074  0.00  0.00    -0.532 OA
ATOM     14  O   UNL d   1      33.037  20.038 -22.717  0.00  0.00    -0.532 OA
ENDBRANCH   8  12
ENDBRANCH   3   6
BRANCH   1  15
ATOM     15  C   UNL d   1      29.919  15.930 -24.445  0.00  0.00     0.143 C 
ATOM     16  S   UNL d   1      29.759  15.466 -25.097  0.00  0.00    -0.057 SA
BRANCH  15  17
ATOM     17  N   UNL d   1      29.314  16.031 -23.886  0.00  0.00    -0.290 N 
ATOM     18  C   UNL d   1      29.296  15.531 -23.251  0.00  0.00     0.108 A 
ATOM     19  C   UNL d   1      28.689  15.638 -22.697  0.00  0.00     0.142 A 
ATOM     20  O   UNL d   1      28.146  16.210 -22.789  0.00  0.00    -0.300 OA
ATOM     21  C   UNL d   1      28.149  16.709 -23.404  0.00  0.00     0.142 A 
ATOM     22  C   UNL d   1      28.765  16.617 -23.987  0.00  0.00     0.108 A 
ENDBRANCH  15  17
ENDBRANCH   1  15
TORSDOF 4
ENDMDL
MODEL 2
REMARK VINA RESULT:      -2.2      2.994      5.238
REMARK  4 active torsions:
REMARK  status: ('A' for Active; 'I' for Inactive)
REMARK    1  A    between atoms: C_3  and  C_1 
REMARK    2  A    between atoms: N_2  and  C_9 
REMARK    3  A    between atoms: N_6  and  C_3 
REMARK    4  A    between atoms: C_10  and  C_5 
ROOT
ATOM      1  C   UNL d   1      33.017  20.396 -21.652  0.00  0.00     0.126 A 
ATOM      2  O   UNL d   1      32.821  20.379 -22.460  0.00  0.00    -0.305 OA
ATOM      3  C   UNL d   1      32.938  19.606 -22.717  0.00  0.00     0.100 A 
ATOM      4  C   UNL d   1      33.241  19.657 -21.451  0.00  0.00     0.029 A 
ATOM      5  C   UNL d   1      33.198  19.169 -22.085  0.00  0.00     0.027 A 
ENDROOT
BRANCH   3   6
ATOM      6  C   UNL d   1      32.839  19.245 -23.458  0.00  0.00     0.024 A 
ATOM      7  C   UNL d   1      32.318  18.592 -23.532  0.00  0.00     0.025 A 
ATOM      8  C   UNL d   1      32.219  18.231 -24.274  0.00  0.00     0.127 A 
ATOM      9  C   UNL d   1      32.633  18.516 -24.934  0.00  0.00     0.024 A 
ATOM     10  C   UNL d   1      33.139  19.154 -24.850  0.00  0.00     0.002 A 
ATOM     11  C   UNL d   1      33.239  19.514 -24.114  0.00  0.00     0.002 A 
BRANCH   8  12
ATOM     12  N   UNL d   1      31.713  17.597 -24.347  0.00  0.00    -0.114 N 
ATOM     13  O   UNL d   1      31.970  16.807 -24.412  0.00  0.00    -0.532 OA
ATOM     14  O   UNL d   1      30.901  17.650 -24.365  0.00  0.00    -0.532 OA
ENDBRANCH   8  12
ENDBRANCH   3   6
BRANCH   1  15
ATOM     15  C   UNL d   1      32.998  21.040 -21.120  0.00  0.00     0.143 C 
ATOM     16  S   UNL d   1      33.224  20.956 -20.341  0.00  0.00    -0.057 SA
BRANCH  15  17
ATOM     17  N   UNL d   1      32.746  21.790 -21.369  0.00  0.00    -0.290 N 
ATOM     18  C   UNL d   1      32.004  22.031 -21.158  0.00  0.00     0.108 A 
ATOM     19  C   UNL d   1      31.759  22.781 -21.410  0.00  0.00     0.142 A 
ATOM     20  O   UNL d   1      32.237  23.244 -21.843  0.00  0.00    -0.300 OA
ATOM     21  C   UNL d   1      32.966  23.025 -22.059  0.00  0.00     0.142 A 
ATOM     22  C   UNL d   1      33.239  22.256 -21.811  0.00  0.00     0.108 A 
ENDBRANCH  15  17
ENDBRANCH   1  15
TORSDOF 4
ENDMDL
MODEL 3
REMARK VINA RESULT:      -1.4      4.788      6.817
REMARK  4 active torsions:
REMARK  status: ('A' for Active; 'I' for Inactive)
REMARK    1  A    between atoms: C_3  and  C_1 
REMARK    2  A    between atoms: N_2  and  C_9 
REMARK    3  A    between atoms: N_6  and  C_3 
REMARK    4  A    between atoms: C_10  and  C_5 
ROOT
ATOM      1  C   UNL d   1      32.721  22.365 -20.218  0.00  0.00     0.126 A 
ATOM      2  O   UNL d   1      33.220  21.851 -20.640  0.00  0.00    -0.305 OA
ATOM      3  C   UNL d   1      32.736  21.299 -21.010  0.00  0.00     0.100 A 
ATOM      4  C   UNL d   1      31.972  22.115 -20.340  0.00  0.00     0.029 A 
ATOM      5  C   UNL d   1      31.967  21.472 -20.817  0.00  0.00     0.027 A 
ENDROOT
BRANCH   3   6
ATOM      6  C   UNL d   1      32.904  20.653 -21.503  0.00  0.00     0.024 A 
ATOM      7  C   UNL d   1      32.924  20.763 -22.335  0.00  0.00     0.025 A 
ATOM      8  C   UNL d   1      33.093  20.117 -22.829  0.00  0.00     0.127 A 
ATOM      9  C   UNL d   1      33.240  19.370 -22.499  0.00  0.00     0.024 A 
ATOM     10  C   UNL d   1      33.218  19.273 -21.687  0.00  0.00     0.002 A 
ATOM     11  C   UNL d   1      33.050  19.915 -21.195  0.00  0.00     0.002 A 
BRANCH   8  12
ATOM     12  N   UNL d   1      33.113  20.223 -23.636  0.00  0.00    -0.114 N 
ATOM     13  O   UNL d   1      33.027  19.602 -24.184  0.00  0.00    -0.532 OA
ATOM     14  O   UNL d   1      33.217  20.940 -24.008  0.00  0.00    -0.532 OA
ENDBRANCH   8  12
ENDBRANCH   3   6
BRANCH   1  15
ATOM     15  C   UNL d   1      32.923  23.024 -19.745  0.00  0.00     0.143 C 
ATOM     16  S   UNL d   1      33.239  23.701 -20.072  0.00  0.00    -0.057 SA
BRANCH  15  17
ATOM     17  N   UNL d   1      32.806  23.010 -18.924  0.00  0.00    -0.290 N 
ATOM     18  C   UNL d   1      32.290  23.544 -18.605  0.00  0.00     0.108 A 
ATOM     19  C   UNL d   1      32.179  23.524 -17.784  0.00  0.00     0.142 A 
ATOM     20  O   UNL d   1      32.566  22.999 -17.330  0.00  0.00    -0.300 OA
ATOM     21  C   UNL d   1      33.075  22.470 -17.626  0.00  0.00     0.142 A 
ATOM     22  C   UNL d   1      33.205  22.472 -18.469  0.00  0.00     0.108 A 
ENDBRANCH  15  17
ENDBRANCH   1  15
TORSDOF 4
ENDMDL
MODEL 4
REMARK VINA RESULT:      -1.0      1.563      4.441
REMARK  4 active torsions:
REMARK  status: ('A' for Active; 'I' for Inactive)
REMARK    1  A    between atoms: C_3  and  C_1 
REMARK    2  A    between atoms: N_2  and  C_9 
REMARK    3  A    between atoms: N_6  and  C_3 
REMARK    4  A    between atoms: C_10  and  C_5 
ROOT
ATOM      1  C   UNL d   1      32.317  18.709 -24.266  0.00  0.00     0.126 A 
ATOM      2  O   UNL d   1      32.113  18.002 -23.879  0.00  0.00    -0.305 OA
ATOM      3  C   UNL d   1      31.573  17.613 -24.362  0.00  0.00     0.100 A 
ATOM      4  C   UNL d   1      31.907  18.727 -24.951  0.00  0.00     0.029 A 
ATOM      5  C   UNL d   1      31.454  18.070 -25.021  0.00  0.00     0.027 A 
ENDROOT
BRANCH   3   6
ATOM      6  C   UNL d   1      31.172  16.890 -24.280  0.00  0.00     0.024 A 
ATOM      7  C   UNL d   1      30.352  16.892 -24.102  0.00  0.00     0.025 A 
ATOM      8  C   UNL d   1      29.952  16.169 -24.019  0.00  0.00     0.127 A 
ATOM      9  C   UNL d   1      30.361  15.454 -24.113  0.00  0.00     0.024 A 
ATOM     10  C   UNL d   1      31.161  15.464 -24.287  0.00  0.00     0.002 A 
ATOM     11  C   UNL d   1      31.560  16.182 -24.369  0.00  0.00     0.002 A 
BRANCH   8  12
ATOM     12  N   UNL d   1      29.156  16.169 -23.847  0.00  0.00    -0.114 N 
ATOM     13  O   UNL d   1      28.560  16.273 -24.419  0.00  0.00    -0.532 OA
ATOM     14  O   UNL d   1      28.842  16.068 -23.102  0.00  0.00    -0.532 OA
ENDBRANCH   8  12
ENDBRANCH   3   6
BRANCH   1  15
ATOM     15  C   UNL d   1      32.843  19.310 -24.020  0.00  0.00     0.143 C 
ATOM     16  S   UNL d   1      33.241  19.775 -24.561  0.00  0.00    -0.057 SA
BRANCH  15  17
ATOM     17  N   UNL d   1      32.978  19.454 -23.215  0.00  0.00    -0.290 N 
ATOM     18  C   UNL d   1      33.002  20.223 -22.966  0.00  0.00     0.108 A 
ATOM     19  C   UNL d   1      33.137  20.360 -22.159  0.00  0.00     0.142 A 
ATOM     20  O   UNL d   1      33.239  19.756 -21.653  0.00  0.00    -0.300 OA
ATOM     21  C   UNL d   1      33.219  18.998 -21.880  0.00  0.00     0.142 A 
ATOM     22  C   UNL d   1      33.081  18.834 -22.706  0.00  0.00     0.108 A 
ENDBRANCH  15  17
ENDBRANCH   1  15
TORSDOF 4
ENDMDL
