MODEL 1
REMARK VINA RESULT:      -2.5      0.000      0.000
REMARK  4 active torsions:
REMARK  status: ('A' for Active; 'I' for Inactive)
REMARK    1  A    between atoms: C_2  and  C_1 
REMARK    2  A    between atoms: C_11  and  N_5 
REMARK    3  A    between atoms: C_14  and  C_11 
REMARK    4  A    between atoms: C_17  and  C_14 
ROOT
ATOM      1  C   UNL d   1      57.179   0.259  32.050  0.00  0.00     0.112 A 
ATOM      2  C   UNL d   1      56.378   0.217  32.200  0.00  0.00     0.176 A 
ATOM      3  N   UNL d   1      56.252   0.470  32.983  0.00  0.00    -0.285 N 
ATOM      4  C   UNL d   1      57.554   0.535  32.728  0.00  0.00     0.219 A 
ATOM      5  C   UNL d   1      56.975   0.662  33.298  0.00  0.00     0.124 A 
ATOM      6  O   UNL d   1      58.361   0.663  32.829  0.00  0.00    -0.285 OA
ATOM      7  N   UNL d   1      55.785  -0.033  31.668  0.00  0.00    -0.128 N 
ENDROOT
BRANCH   1   8
ATOM      8  C   UNL d   1      57.520   0.051  31.323  0.00  0.00     0.169 A 
ATOM      9  N   UNL d   1      57.734  -0.677  31.006  0.00  0.00    -0.225 NA
ATOM     10  C   UNL d   1      58.049  -0.543  30.257  0.00  0.00     0.101 A 
ATOM     11  C   UNL d   1      58.352  -1.054  29.688  0.00  0.00     0.021 A 
ATOM     12  C   UNL d   1      58.028   0.270  30.114  0.00  0.00     0.101 A 
ATOM     13  C   UNL d   1      58.636  -0.755  28.971  0.00  0.00     0.002 A 
ATOM     14  C   UNL d   1      58.615   0.059  28.828  0.00  0.00     0.002 A 
ATOM     15  C   UNL d   1      58.310   0.571  29.401  0.00  0.00     0.021 A 
ATOM     16  N   UNL d   1      57.700   0.632  30.776  0.00  0.00    -0.225 NA
ENDBRANCH   1   8
BRANCH   3  17
ATOM     17  C   UNL d   1      55.523   0.518  33.369  0.00  0.00     0.082 C 
BRANCH  17  18
ATOM     18  C   UNL d   1      55.467   0.337  34.172  0.00  0.00     0.019 C 
BRANCH  18  19
ATOM     19  C   UNL d   1      54.806   0.566  34.604  0.00  0.00     0.002 C 
ATOM     20  C   UNL d   1      54.081   0.682  34.226  0.00  0.00     0.000 C 
ATOM     21  C   UNL d   1      54.867   0.682  35.420  0.00  0.00     0.000 C 
ENDBRANCH  18  19
ENDBRANCH  17  18
ENDBRANCH   3  17
TORSDOF 4
ENDMDL
MODEL 2
REMARK VINA RESULT:      -2.5      1.545      2.375
REMARK  4 active torsions:
REMARK  status: ('A' for Active; 'I' for Inactive)
REMARK    1  A    between atoms: C_2  and  C_1 
REMARK    2  A    between atoms: C_11  and  N_5 
REMARK    3  A    between atoms: C_14  and  C_11 
REMARK    4  A    between atoms: C_17  and  C_14 
ROOT
ATOM      1  C   UNL d   1      58.213   0.361  30.434  0.00  0.00     0.112 A 
ATOM      2  C   UNL d   1      58.209   0.329  31.250  0.00  0.00     0.176 A 
ATOM      3  N   UNL d   1      57.444   0.530  31.509  0.00  0.00    -0.285 N 
ATOM      4  C   UNL d   1      57.462   0.580  30.181  0.00  0.00     0.219 A 
ATOM      5  C   UNL d   1      56.995   0.682  30.850  0.00  0.00     0.124 A 
ATOM      6  O   UNL d   1      57.213   0.681  29.404  0.00  0.00    -0.285 OA
ATOM      7  N   UNL d   1      58.853   0.131  31.743  0.00  0.00    -0.128 N 
ENDROOT
BRANCH   1   8
ATOM      8  C   UNL d   1      58.883   0.195  29.974  0.00  0.00     0.169 A 
ATOM      9  N   UNL d   1      59.458   0.682  29.647  0.00  0.00    -0.225 NA
ATOM     10  C   UNL d   1      59.992   0.203  29.241  0.00  0.00     0.101 A 
ATOM     11  C   UNL d   1      60.672   0.378  28.812  0.00  0.00     0.021 A 
ATOM     12  C   UNL d   1      59.743  -0.580  29.319  0.00  0.00     0.101 A 
ATOM     13  C   UNL d   1      61.106  -0.230  28.457  0.00  0.00     0.002 A 
ATOM     14  C   UNL d   1      60.856  -1.013  28.535  0.00  0.00     0.002 A 
ATOM     15  C   UNL d   1      60.173  -1.188  28.968  0.00  0.00     0.021 A 
ATOM     16  N   UNL d   1      59.056  -0.580  29.773  0.00  0.00    -0.225 NA
ENDBRANCH   1   8
BRANCH   3  17
ATOM     17  C   UNL d   1      57.189   0.569  32.294  0.00  0.00     0.082 C 
BRANCH  17  18
ATOM     18  C   UNL d   1      56.383   0.604  32.466  0.00  0.00     0.019 C 
BRANCH  18  19
ATOM     19  C   UNL d   1      56.109   0.394  33.212  0.00  0.00     0.002 C 
ATOM     20  C   UNL d   1      55.423  -0.059  33.292  0.00  0.00     0.000 C 
ATOM     21  C   UNL d   1      56.521   0.638  33.886  0.00  0.00     0.000 C 
ENDBRANCH  18  19
ENDBRANCH  17  18
ENDBRANCH   3  17
TORSDOF 4
ENDMDL
MODEL 3
REMARK VINA RESULT:      -2.4      1.372      2.150
REMARK  4 active torsions:
REMARK  status: ('A' for Active; 'I' for Inactive)
REMARK    1  A    between atoms: C_2  and  C_1 
REMARK    2  A    between atoms: C_11  and  N_5 
REMARK    3  A    between atoms: C_14  and  C_11 
REMARK    4  A    between atoms: C_17  and  C_14 
ROOT
ATOM      1  C   UNL d   1      57.766  -0.583  30.563  0.00  0.00     0.112 A 
ATOM      2  C   UNL d   1      57.268  -0.783  31.178  0.00  0.00     0.176 A 
ATOM      3  N   UNL d   1      56.981  -0.076  31.513  0.00  0.00    -0.285 N 
ATOM      4  C   UNL d   1      57.794   0.237  30.509  0.00  0.00     0.219 A 
ATOM      5  C   UNL d   1      57.307   0.541  31.098  0.00  0.00     0.124 A 
ATOM      6  O   UNL d   1      58.226   0.682  29.969  0.00  0.00    -0.285 OA
ATOM      7  N   UNL d   1      57.075  -1.554  31.432  0.00  0.00    -0.128 N 
ENDROOT
BRANCH   1   8
ATOM      8  C   UNL d   1      58.160  -1.143  30.094  0.00  0.00     0.169 A 
ATOM      9  N   UNL d   1      57.982  -1.923  29.907  0.00  0.00    -0.225 NA
ATOM     10  C   UNL d   1      58.579  -2.206  29.414  0.00  0.00     0.101 A 
ATOM     11  C   UNL d   1      58.697  -2.937  29.056  0.00  0.00     0.021 A 
ATOM     12  C   UNL d   1      59.124  -1.596  29.298  0.00  0.00     0.101 A 
ATOM     13  C   UNL d   1      59.362  -3.062  28.580  0.00  0.00     0.002 A 
ATOM     14  C   UNL d   1      59.907  -2.452  28.464  0.00  0.00     0.002 A 
ATOM     15  C   UNL d   1      59.786  -1.717  28.825  0.00  0.00     0.021 A 
ATOM     16  N   UNL d   1      58.860  -0.941  29.721  0.00  0.00    -0.225 NA
ENDBRANCH   1   8
BRANCH   3  17
ATOM     17  C   UNL d   1      56.459  -0.014  32.150  0.00  0.00     0.082 C 
BRANCH  17  18
ATOM     18  C   UNL d   1      56.447   0.669  32.611  0.00  0.00     0.019 C 
BRANCH  18  19
ATOM     19  C   UNL d   1      56.061   0.674  33.337  0.00  0.00     0.002 C 
ATOM     20  C   UNL d   1      56.495   0.671  34.040  0.00  0.00     0.000 C 
ATOM     21  C   UNL d   1      55.235   0.681  33.364  0.00  0.00     0.000 C 
ENDBRANCH  18  19
ENDBRANCH  17  18
ENDBRANCH   3  17
TORSDOF 4
ENDMDL
MODEL 4
REMARK VINA RESULT:      -1.6      0.855      4.632
REMARK  4 active torsions:
REMARK  status: ('A' for Active; 'I' for Inactive)
REMARK    1  A    between atoms: C_2  and  C_1 
REMARK    2  A    between atoms: C_11  and  N_5 
REMARK    3  A    between atoms: C_14  and  C_11 
REMARK    4  A    between atoms: C_17  and  C_14 
ROOT
ATOM      1  C   UNL d   1      57.573   0.531  32.217  0.00  0.00     0.112 A 
ATOM      2  C   UNL d   1      57.540   0.454  31.405  0.00  0.00     0.176 A 
ATOM      3  N   UNL d   1      58.321   0.472  31.116  0.00  0.00    -0.285 N 
ATOM      4  C   UNL d   1      58.362   0.595  32.439  0.00  0.00     0.219 A 
ATOM      5  C   UNL d   1      58.816   0.558  31.754  0.00  0.00     0.124 A 
ATOM      6  O   UNL d   1      58.655   0.682  33.203  0.00  0.00    -0.285 OA
ATOM      7  N   UNL d   1      56.852   0.373  30.940  0.00  0.00    -0.128 N 
ENDROOT
BRANCH   1   8
ATOM      8  C   UNL d   1      56.900   0.537  32.703  0.00  0.00     0.169 A 
ATOM      9  N   UNL d   1      56.099   0.472  32.531  0.00  0.00    -0.225 NA
ATOM     10  C   UNL d   1      55.685   0.516  33.241  0.00  0.00     0.101 A 
ATOM     11  C   UNL d   1      54.881   0.484  33.413  0.00  0.00     0.021 A 
ATOM     12  C   UNL d   1      56.234   0.609  33.851  0.00  0.00     0.101 A 
ATOM     13  C   UNL d   1      54.621   0.544  34.195  0.00  0.00     0.002 A 
ATOM     14  C   UNL d   1      55.170   0.637  34.805  0.00  0.00     0.002 A 
ATOM     15  C   UNL d   1      55.979   0.669  34.631  0.00  0.00     0.021 A 
ATOM     16  N   UNL d   1      56.984   0.621  33.512  0.00  0.00    -0.225 NA
ENDBRANCH   1   8
BRANCH   3  17
ATOM     17  C   UNL d   1      58.550   0.413  30.325  0.00  0.00     0.082 C 
BRANCH  17  18
ATOM     18  C   UNL d   1      59.305   0.650  30.093  0.00  0.00     0.019 C 
BRANCH  18  19
ATOM     19  C   UNL d   1      59.576   0.490  29.333  0.00  0.00     0.002 C 
ATOM     20  C   UNL d   1      60.349   0.227  29.212  0.00  0.00     0.000 C 
ATOM     21  C   UNL d   1      59.071   0.595  28.686  0.00  0.00     0.000 C 
ENDBRANCH  18  19
ENDBRANCH  17  18
ENDBRANCH   3  17
TORSDOF 4
ENDMDL
MODEL 5
REMARK VINA RESULT:      -1.1     10.117     10.830
REMARK  4 active torsions:
REMARK  status: ('A' for Active; 'I' for Inactive)
REMARK    1  A    between atoms: C_2  and  C_1 
REMARK    2  A    between atoms: C_11  and  N_5 
REMARK    3  A    between atoms: C_14  and  C_11 
REMARK    4  A    between atoms: C_17  and  C_14 
ROOT
ATOM      1  C   UNL d   1      58.578  -9.699  32.365  0.00  0.00     0.112 A 
ATOM      2  C   UNL d   1      58.848  -9.710  31.595  0.00  0.00     0.176 A 
ATOM      3  N   UNL d   1      58.187  -9.784  31.094  0.00  0.00    -0.285 N 
ATOM      4  C   UNL d   1      57.758  -9.766  32.352  0.00  0.00     0.219 A 
ATOM      5  C   UNL d   1      57.526  -9.818  31.565  0.00  0.00     0.124 A 
ATOM      6  O   UNL d   1      57.254  -9.780  33.002  0.00  0.00    -0.285 OA
ATOM      7  N   UNL d   1      59.643  -9.656  31.345  0.00  0.00    -0.128 N 
ENDROOT
BRANCH   1   8
ATOM      8  C   UNL d   1      59.078  -9.631  33.024  0.00  0.00     0.169 A 
ATOM      9  N   UNL d   1      59.874  -9.439  33.090  0.00  0.00    -0.225 NA
ATOM     10  C   UNL d   1      60.072  -9.458  33.890  0.00  0.00     0.101 A 
ATOM     11  C   UNL d   1      60.779  -9.316  34.285  0.00  0.00     0.021 A 
ATOM     12  C   UNL d   1      59.394  -9.662  34.315  0.00  0.00     0.101 A 
ATOM     13  C   UNL d   1      60.812  -9.377  35.109  0.00  0.00     0.002 A 
ATOM     14  C   UNL d   1      60.134  -9.581  35.534  0.00  0.00     0.002 A 
ATOM     15  C   UNL d   1      59.424  -9.724  35.135  0.00  0.00     0.021 A 
ATOM     16  N   UNL d   1      58.782  -9.768  33.775  0.00  0.00    -0.225 NA
ENDBRANCH   1   8
BRANCH   3  17
ATOM     17  C   UNL d   1      58.200  -9.818  30.269  0.00  0.00     0.082 C 
BRANCH  17  18
ATOM     18  C   UNL d   1      57.499  -9.752  29.840  0.00  0.00     0.019 C 
BRANCH  18  19
ATOM     19  C   UNL d   1      57.520  -9.622  29.028  0.00  0.00     0.002 C 
ATOM     20  C   UNL d   1      56.840  -9.378  28.627  0.00  0.00     0.000 C 
ATOM     21  C   UNL d   1      58.225  -9.736  28.611  0.00  0.00     0.000 C 
ENDBRANCH  18  19
ENDBRANCH  17  18
ENDBRANCH   3  17
TORSDOF 4
ENDMDL
MODEL 6
REMARK VINA RESULT:      -0.8     10.109     10.353
REMARK  4 active torsions:
REMARK  status: ('A' for Active; 'I' for Inactive)
REMARK    1  A    between atoms: C_2  and  C_1 
REMARK    2  A    between atoms: C_11  and  N_5 
REMARK    3  A    between atoms: C_14  and  C_11 
REMARK    4  A    between atoms: C_17  and  C_14 
ROOT
ATOM      1  C   UNL d   1      59.026  -9.658  32.605  0.00  0.00     0.112 A 
ATOM      2  C   UNL d   1      59.758  -9.562  32.952  0.00  0.00     0.176 A 
ATOM      3  N   UNL d   1      59.650  -9.559  33.778  0.00  0.00    -0.285 N 
ATOM      4  C   UNL d   1      58.463  -9.716  33.201  0.00  0.00     0.219 A 
ATOM      5  C   UNL d   1      58.857  -9.654  33.921  0.00  0.00     0.124 A 
ATOM      6  O   UNL d   1      57.652  -9.818  33.107  0.00  0.00    -0.285 OA
ATOM      7  N   UNL d   1      60.490  -9.479  32.558  0.00  0.00    -0.128 N 
ENDROOT
BRANCH   1   8
ATOM      8  C   UNL d   1      58.910  -9.688  31.784  0.00  0.00     0.169 A 
ATOM      9  N   UNL d   1      59.439  -9.750  31.158  0.00  0.00    -0.225 NA
ATOM     10  C   UNL d   1      59.002  -9.754  30.459  0.00  0.00     0.101 A 
ATOM     11  C   UNL d   1      59.227  -9.804  29.669  0.00  0.00     0.021 A 
ATOM     12  C   UNL d   1      58.202  -9.695  30.658  0.00  0.00     0.101 A 
ATOM     13  C   UNL d   1      58.653  -9.795  29.074  0.00  0.00     0.002 A 
ATOM     14  C   UNL d   1      57.854  -9.736  29.273  0.00  0.00     0.002 A 
ATOM     15  C   UNL d   1      57.629  -9.686  30.068  0.00  0.00     0.021 A 
ATOM     16  N   UNL d   1      58.152  -9.655  31.479  0.00  0.00    -0.225 NA
ENDBRANCH   1   8
BRANCH   3  17
ATOM     17  C   UNL d   1      60.242  -9.475  34.348  0.00  0.00     0.082 C 
BRANCH  17  18
ATOM     18  C   UNL d   1      60.047  -9.456  35.149  0.00  0.00     0.019 C 
BRANCH  18  19
ATOM     19  C   UNL d   1      60.612  -9.249  35.709  0.00  0.00     0.002 C 
ATOM     20  C   UNL d   1      60.912  -9.817  36.227  0.00  0.00     0.000 C 
ATOM     21  C   UNL d   1      60.881  -8.468  35.754  0.00  0.00     0.000 C 
ENDBRANCH  18  19
ENDBRANCH  17  18
ENDBRANCH   3  17
TORSDOF 4
ENDMDL
