MODEL 1
REMARK VINA RESULT:      -3.0      0.000      0.000
REMARK  4 active torsions:
REMARK  status: ('A' for Active; 'I' for Inactive)
REMARK    1  A    between atoms: C_6  and  C_1 
REMARK    2  A    between atoms: C_8  and  C_5 
REMARK    3  A    between atoms: C_9  and  C_8 
REMARK    4  A    between atoms: C_13  and  C_9 
ROOT
ATOM      1  C   UNL d   1      32.836  18.542 -23.682  0.00  0.00     0.210 A 
ATOM      2  N   UNL d   1      33.071  19.153 -24.186  0.00  0.00    -0.120 NA
ATOM      3  O   UNL d   1      32.859  18.800 -22.927  0.00  0.00    -0.268 OA
ATOM      4  N   UNL d   1      33.239  19.800 -23.699  0.00  0.00    -0.121 NA
ATOM      5  C   UNL d   1      33.123  19.625 -22.926  0.00  0.00     0.205 A 
ENDROOT
BRANCH   5   6
ATOM      6  C   UNL d   1      33.241  20.147 -22.303  0.00  0.00     0.046 C 
BRANCH   6   7
ATOM      7  C   UNL d   1      32.599  20.484 -21.929  0.00  0.00     0.004 C 
BRANCH   7   8
ATOM      8  C   UNL d   1      32.708  21.045 -21.330  0.00  0.00     0.000 A 
ATOM      9  C   UNL d   1      33.060  20.822 -20.598  0.00  0.00     0.002 A 
ATOM     10  C   UNL d   1      33.170  21.386 -19.998  0.00  0.00     0.030 A 
ATOM     11  C   UNL d   1      32.931  22.162 -20.127  0.00  0.00     0.140 A 
ATOM     12  C   UNL d   1      32.578  22.389 -20.858  0.00  0.00     0.030 A 
ATOM     13  F   UNL d   1      33.040  22.728 -19.526  0.00  0.00    -0.204 F 
ATOM     14  C   UNL d   1      32.477  21.823 -21.440  0.00  0.00     0.002 A 
ENDBRANCH   7   8
ENDBRANCH   6   7
ENDBRANCH   5   6
BRANCH   1  15
ATOM     15  C   UNL d   1      32.610  17.778 -23.915  0.00  0.00     0.072 A 
ATOM     16  S   UNL d   1      33.111  17.142 -24.088  0.00  0.00    -0.083 SA
ATOM     17  C   UNL d   1      32.642  16.494 -24.295  0.00  0.00     0.035 A 
ATOM     18  C   UNL d   1      31.853  16.727 -24.251  0.00  0.00     0.008 A 
ATOM     19  C   UNL d   1      31.835  17.526 -24.014  0.00  0.00     0.011 A 
ENDBRANCH   1  15
TORSDOF 4
ENDMDL
MODEL 2
REMARK VINA RESULT:      -2.5      3.666      5.920
REMARK  4 active torsions:
REMARK  status: ('A' for Active; 'I' for Inactive)
REMARK    1  A    between atoms: C_6  and  C_1 
REMARK    2  A    between atoms: C_8  and  C_5 
REMARK    3  A    between atoms: C_9  and  C_8 
REMARK    4  A    between atoms: C_13  and  C_9 
ROOT
ATOM      1  C   UNL d   1      32.572  23.178 -18.722  0.00  0.00     0.210 A 
ATOM      2  N   UNL d   1      32.121  23.691 -19.187  0.00  0.00    -0.120 NA
ATOM      3  O   UNL d   1      32.923  22.636 -19.191  0.00  0.00    -0.268 OA
ATOM      4  N   UNL d   1      32.214  23.432 -19.967  0.00  0.00    -0.121 NA
ATOM      5  C   UNL d   1      32.694  22.793 -20.011  0.00  0.00     0.205 A 
ENDROOT
BRANCH   5   6
ATOM      6  C   UNL d   1      32.898  22.405 -20.706  0.00  0.00     0.046 C 
BRANCH   6   7
ATOM      7  C   UNL d   1      33.049  21.603 -20.693  0.00  0.00     0.004 C 
BRANCH   7   8
ATOM      8  C   UNL d   1      33.097  21.174 -21.399  0.00  0.00     0.000 A 
ATOM      9  C   UNL d   1      33.094  21.572 -22.141  0.00  0.00     0.002 A 
ATOM     10  C   UNL d   1      33.142  21.140 -22.848  0.00  0.00     0.030 A 
ATOM     11  C   UNL d   1      33.192  20.320 -22.816  0.00  0.00     0.140 A 
ATOM     12  C   UNL d   1      33.196  19.917 -22.076  0.00  0.00     0.030 A 
ATOM     13  F   UNL d   1      33.241  19.886 -23.524  0.00  0.00    -0.204 F 
ATOM     14  C   UNL d   1      33.148  20.356 -21.387  0.00  0.00     0.002 A 
ENDBRANCH   7   8
ENDBRANCH   6   7
ENDBRANCH   5   6
BRANCH   1  15
ATOM     15  C   UNL d   1      32.654  23.215 -17.897  0.00  0.00     0.072 A 
ATOM     16  S   UNL d   1      33.241  22.855 -17.438  0.00  0.00    -0.083 SA
ATOM     17  C   UNL d   1      33.101  23.044 -16.646  0.00  0.00     0.035 A 
ATOM     18  C   UNL d   1      32.429  23.520 -16.613  0.00  0.00     0.008 A 
ATOM     19  C   UNL d   1      32.152  23.625 -17.392  0.00  0.00     0.011 A 
ENDBRANCH   1  15
TORSDOF 4
ENDMDL
MODEL 3
REMARK VINA RESULT:      -2.1      1.444      2.198
REMARK  4 active torsions:
REMARK  status: ('A' for Active; 'I' for Inactive)
REMARK    1  A    between atoms: C_6  and  C_1 
REMARK    2  A    between atoms: C_8  and  C_5 
REMARK    3  A    between atoms: C_9  and  C_8 
REMARK    4  A    between atoms: C_13  and  C_9 
ROOT
ATOM      1  C   UNL d   1      31.497  17.208 -24.241  0.00  0.00     0.210 A 
ATOM      2  N   UNL d   1      31.992  17.234 -24.902  0.00  0.00    -0.120 NA
ATOM      3  O   UNL d   1      31.714  17.778 -23.725  0.00  0.00    -0.268 OA
ATOM      4  N   UNL d   1      32.526  17.851 -24.762  0.00  0.00    -0.121 NA
ATOM      5  C   UNL d   1      32.389  18.206 -24.058  0.00  0.00     0.205 A 
ENDROOT
BRANCH   5   6
ATOM      6  C   UNL d   1      32.822  18.837 -23.757  0.00  0.00     0.046 C 
BRANCH   6   7
ATOM      7  C   UNL d   1      33.009  18.858 -22.963  0.00  0.00     0.004 C 
BRANCH   7   8
ATOM      8  C   UNL d   1      33.067  19.581 -22.565  0.00  0.00     0.000 A 
ATOM      9  C   UNL d   1      33.103  20.304 -22.997  0.00  0.00     0.002 A 
ATOM     10  C   UNL d   1      33.161  21.028 -22.596  0.00  0.00     0.030 A 
ATOM     11  C   UNL d   1      33.183  21.033 -21.774  0.00  0.00     0.140 A 
ATOM     12  C   UNL d   1      33.147  20.313 -21.338  0.00  0.00     0.030 A 
ATOM     13  F   UNL d   1      33.241  21.759 -21.371  0.00  0.00    -0.204 F 
ATOM     14  C   UNL d   1      33.090  19.606 -21.747  0.00  0.00     0.002 A 
ENDBRANCH   7   8
ENDBRANCH   6   7
ENDBRANCH   5   6
BRANCH   1  15
ATOM     15  C   UNL d   1      30.870  16.677 -24.124  0.00  0.00     0.072 A 
ATOM     16  S   UNL d   1      30.894  15.962 -23.709  0.00  0.00    -0.083 SA
ATOM     17  C   UNL d   1      30.142  15.621 -23.738  0.00  0.00     0.035 A 
ATOM     18  C   UNL d   1      29.652  16.123 -24.171  0.00  0.00     0.008 A 
ATOM     19  C   UNL d   1      30.106  16.779 -24.410  0.00  0.00     0.011 A 
ENDBRANCH   1  15
TORSDOF 4
ENDMDL
MODEL 4
REMARK VINA RESULT:      -1.7      4.430      6.079
REMARK  4 active torsions:
REMARK  status: ('A' for Active; 'I' for Inactive)
REMARK    1  A    between atoms: C_6  and  C_1 
REMARK    2  A    between atoms: C_8  and  C_5 
REMARK    3  A    between atoms: C_9  and  C_8 
REMARK    4  A    between atoms: C_13  and  C_9 
ROOT
ATOM      1  C   UNL d   1      32.785  23.041 -18.597  0.00  0.00     0.210 A 
ATOM      2  N   UNL d   1      33.210  22.378 -18.846  0.00  0.00    -0.120 NA
ATOM      3  O   UNL d   1      32.537  23.451 -19.235  0.00  0.00    -0.268 OA
ATOM      4  N   UNL d   1      33.210  22.404 -19.673  0.00  0.00    -0.121 NA
ATOM      5  C   UNL d   1      32.811  23.042 -19.948  0.00  0.00     0.205 A 
ENDROOT
BRANCH   5   6
ATOM      6  C   UNL d   1      32.710  23.226 -20.742  0.00  0.00     0.046 C 
BRANCH   6   7
ATOM      7  C   UNL d   1      32.961  22.703 -21.316  0.00  0.00     0.004 C 
BRANCH   7   8
ATOM      8  C   UNL d   1      32.852  22.875 -22.117  0.00  0.00     0.000 A 
ATOM      9  C   UNL d   1      33.232  22.410 -22.708  0.00  0.00     0.002 A 
ATOM     10  C   UNL d   1      33.122  22.584 -23.512  0.00  0.00     0.030 A 
ATOM     11  C   UNL d   1      32.638  23.214 -23.725  0.00  0.00     0.140 A 
ATOM     12  C   UNL d   1      32.256  23.682 -23.138  0.00  0.00     0.030 A 
ATOM     13  F   UNL d   1      32.527  23.390 -24.531  0.00  0.00    -0.204 F 
ATOM     14  C   UNL d   1      32.374  23.499 -22.349  0.00  0.00     0.002 A 
ENDBRANCH   7   8
ENDBRANCH   6   7
ENDBRANCH   5   6
BRANCH   1  15
ATOM     15  C   UNL d   1      32.634  23.254 -17.809  0.00  0.00     0.072 A 
ATOM     16  S   UNL d   1      33.193  23.438 -17.227  0.00  0.00    -0.083 SA
ATOM     17  C   UNL d   1      32.789  23.616 -16.529  0.00  0.00     0.035 A 
ATOM     18  C   UNL d   1      31.982  23.542 -16.676  0.00  0.00     0.008 A 
ATOM     19  C   UNL d   1      31.887  23.317 -17.473  0.00  0.00     0.011 A 
ENDBRANCH   1  15
TORSDOF 4
ENDMDL
MODEL 5
REMARK VINA RESULT:      -1.6      2.928      4.141
REMARK  4 active torsions:
REMARK  status: ('A' for Active; 'I' for Inactive)
REMARK    1  A    between atoms: C_6  and  C_1 
REMARK    2  A    between atoms: C_8  and  C_5 
REMARK    3  A    between atoms: C_9  and  C_8 
REMARK    4  A    between atoms: C_13  and  C_9 
ROOT
ATOM      1  C   UNL d   1      29.950  15.812 -24.179  0.00  0.00     0.210 A 
ATOM      2  N   UNL d   1      30.493  15.468 -24.699  0.00  0.00    -0.120 NA
ATOM      3  O   UNL d   1      30.335  16.305 -23.683  0.00  0.00    -0.268 OA
ATOM      4  N   UNL d   1      31.232  15.777 -24.494  0.00  0.00    -0.121 NA
ATOM      5  C   UNL d   1      31.178  16.289 -23.881  0.00  0.00     0.205 A 
ENDROOT
BRANCH   5   6
ATOM      6  C   UNL d   1      31.812  16.690 -23.546  0.00  0.00     0.046 C 
BRANCH   6   7
ATOM      7  C   UNL d   1      32.260  17.196 -24.004  0.00  0.00     0.004 C 
BRANCH   7   8
ATOM      8  C   UNL d   1      32.505  17.928 -23.705  0.00  0.00     0.000 A 
ATOM      9  C   UNL d   1      32.696  18.012 -22.888  0.00  0.00     0.002 A 
ATOM     10  C   UNL d   1      32.941  18.746 -22.590  0.00  0.00     0.030 A 
ATOM     11  C   UNL d   1      32.995  19.390 -23.099  0.00  0.00     0.140 A 
ATOM     12  C   UNL d   1      32.805  19.311 -23.916  0.00  0.00     0.030 A 
ATOM     13  F   UNL d   1      33.241  20.127 -22.801  0.00  0.00    -0.204 F 
ATOM     14  C   UNL d   1      32.565  18.580 -24.196  0.00  0.00     0.002 A 
ENDBRANCH   7   8
ENDBRANCH   6   7
ENDBRANCH   5   6
BRANCH   1  15
ATOM     15  C   UNL d   1      29.132  15.672 -24.168  0.00  0.00     0.072 A 
ATOM     16  S   UNL d   1      28.634  15.581 -24.823  0.00  0.00    -0.083 SA
ATOM     17  C   UNL d   1      27.866  15.453 -24.547  0.00  0.00     0.035 A 
ATOM     18  C   UNL d   1      27.887  15.463 -23.723  0.00  0.00     0.008 A 
ATOM     19  C   UNL d   1      28.675  15.600 -23.489  0.00  0.00     0.011 A 
ENDBRANCH   1  15
TORSDOF 4
ENDMDL
MODEL 6
REMARK VINA RESULT:      -1.5      3.297      5.474
REMARK  4 active torsions:
REMARK  status: ('A' for Active; 'I' for Inactive)
REMARK    1  A    between atoms: C_6  and  C_1 
REMARK    2  A    between atoms: C_8  and  C_5 
REMARK    3  A    between atoms: C_9  and  C_8 
REMARK    4  A    between atoms: C_13  and  C_9 
ROOT
ATOM      1  C   UNL d   1      32.480  17.959 -23.776  0.00  0.00     0.210 A 
ATOM      2  N   UNL d   1      32.930  17.302 -23.554  0.00  0.00    -0.120 NA
ATOM      3  O   UNL d   1      31.709  17.756 -23.800  0.00  0.00    -0.268 OA
ATOM      4  N   UNL d   1      32.391  16.684 -23.443  0.00  0.00    -0.121 NA
ATOM      5  C   UNL d   1      31.639  16.920 -23.583  0.00  0.00     0.205 A 
ENDROOT
BRANCH   5   6
ATOM      6  C   UNL d   1      30.976  16.439 -23.521  0.00  0.00     0.046 C 
BRANCH   6   7
ATOM      7  C   UNL d   1      30.495  16.324 -24.171  0.00  0.00     0.004 C 
BRANCH   7   8
ATOM      8  C   UNL d   1      29.703  16.107 -24.074  0.00  0.00     0.000 A 
ATOM      9  C   UNL d   1      29.427  15.821 -23.331  0.00  0.00     0.002 A 
ATOM     10  C   UNL d   1      28.632  15.604 -23.235  0.00  0.00     0.030 A 
ATOM     11  C   UNL d   1      28.117  15.670 -23.873  0.00  0.00     0.140 A 
ATOM     12  C   UNL d   1      28.388  15.956 -24.618  0.00  0.00     0.030 A 
ATOM     13  F   UNL d   1      27.319  15.453 -23.778  0.00  0.00    -0.204 F 
ATOM     14  C   UNL d   1      29.175  16.167 -24.697  0.00  0.00     0.002 A 
ENDBRANCH   7   8
ENDBRANCH   6   7
ENDBRANCH   5   6
BRANCH   1  15
ATOM     15  C   UNL d   1      32.777  18.715 -23.948  0.00  0.00     0.072 A 
ATOM     16  S   UNL d   1      32.937  19.028 -24.697  0.00  0.00    -0.083 SA
ATOM     17  C   UNL d   1      33.224  19.796 -24.600  0.00  0.00     0.035 A 
ATOM     18  C   UNL d   1      33.241  19.961 -23.793  0.00  0.00     0.008 A 
ATOM     19  C   UNL d   1      32.963  19.287 -23.389  0.00  0.00     0.011 A 
ENDBRANCH   1  15
TORSDOF 4
ENDMDL
MODEL 7
REMARK VINA RESULT:      -1.3      2.616      5.164
REMARK  4 active torsions:
REMARK  status: ('A' for Active; 'I' for Inactive)
REMARK    1  A    between atoms: C_6  and  C_1 
REMARK    2  A    between atoms: C_8  and  C_5 
REMARK    3  A    between atoms: C_9  and  C_8 
REMARK    4  A    between atoms: C_13  and  C_9 
ROOT
ATOM      1  C   UNL d   1      32.979  19.384 -23.363  0.00  0.00     0.210 A 
ATOM      2  N   UNL d   1      33.239  19.524 -24.135  0.00  0.00    -0.120 NA
ATOM      3  O   UNL d   1      32.628  18.668 -23.329  0.00  0.00    -0.268 OA
ATOM      4  N   UNL d   1      33.029  18.854 -24.572  0.00  0.00    -0.121 NA
ATOM      5  C   UNL d   1      32.655  18.311 -24.118  0.00  0.00     0.205 A 
ENDROOT
BRANCH   5   6
ATOM      6  C   UNL d   1      32.375  17.586 -24.386  0.00  0.00     0.046 C 
BRANCH   6   7
ATOM      7  C   UNL d   1      31.947  17.106 -23.884  0.00  0.00     0.004 C 
BRANCH   7   8
ATOM      8  C   UNL d   1      31.286  16.693 -24.161  0.00  0.00     0.000 A 
ATOM      9  C   UNL d   1      30.568  17.101 -24.327  0.00  0.00     0.002 A 
ATOM     10  C   UNL d   1      29.905  16.686 -24.604  0.00  0.00     0.030 A 
ATOM     11  C   UNL d   1      29.957  15.873 -24.716  0.00  0.00     0.140 A 
ATOM     12  C   UNL d   1      30.673  15.460 -24.551  0.00  0.00     0.030 A 
ATOM     13  F   UNL d   1      29.293  15.455 -24.994  0.00  0.00    -0.204 F 
ATOM     14  C   UNL d   1      31.319  15.883 -24.277  0.00  0.00     0.002 A 
ENDBRANCH   7   8
ENDBRANCH   6   7
ENDBRANCH   5   6
BRANCH   1  15
ATOM     15  C   UNL d   1      33.064  19.901 -22.719  0.00  0.00     0.072 A 
ATOM     16  S   UNL d   1      33.186  20.719 -22.750  0.00  0.00    -0.083 SA
ATOM     17  C   UNL d   1      33.239  21.002 -21.976  0.00  0.00     0.035 A 
ATOM     18  C   UNL d   1      33.150  20.361 -21.465  0.00  0.00     0.008 A 
ATOM     19  C   UNL d   1      33.041  19.677 -21.929  0.00  0.00     0.011 A 
ENDBRANCH   1  15
TORSDOF 4
ENDMDL
MODEL 8
REMARK VINA RESULT:      -1.1      2.648      4.997
REMARK  4 active torsions:
REMARK  status: ('A' for Active; 'I' for Inactive)
REMARK    1  A    between atoms: C_6  and  C_1 
REMARK    2  A    between atoms: C_8  and  C_5 
REMARK    3  A    between atoms: C_9  and  C_8 
REMARK    4  A    between atoms: C_13  and  C_9 
ROOT
ATOM      1  C   UNL d   1      32.872  21.157 -21.354  0.00  0.00     0.210 A 
ATOM      2  N   UNL d   1      33.088  20.638 -20.748  0.00  0.00    -0.120 NA
ATOM      3  O   UNL d   1      32.893  20.771 -22.052  0.00  0.00    -0.268 OA
ATOM      4  N   UNL d   1      33.241  19.912 -21.113  0.00  0.00    -0.121 NA
ATOM      5  C   UNL d   1      33.134  19.952 -21.905  0.00  0.00     0.205 A 
ENDROOT
BRANCH   5   6
ATOM      6  C   UNL d   1      33.241  19.326 -22.426  0.00  0.00     0.046 C 
BRANCH   6   7
ATOM      7  C   UNL d   1      32.637  19.109 -22.930  0.00  0.00     0.004 C 
BRANCH   7   8
ATOM      8  C   UNL d   1      32.734  18.477 -23.455  0.00  0.00     0.000 A 
ATOM      9  C   UNL d   1      33.014  18.612 -24.238  0.00  0.00     0.002 A 
ATOM     10  C   UNL d   1      33.111  17.977 -24.763  0.00  0.00     0.030 A 
ATOM     11  C   UNL d   1      32.932  17.215 -24.511  0.00  0.00     0.140 A 
ATOM     12  C   UNL d   1      32.652  17.074 -23.728  0.00  0.00     0.030 A 
ATOM     13  F   UNL d   1      33.028  16.577 -25.036  0.00  0.00    -0.204 F 
ATOM     14  C   UNL d   1      32.561  17.711 -23.221  0.00  0.00     0.002 A 
ENDBRANCH   7   8
ENDBRANCH   6   7
ENDBRANCH   5   6
BRANCH   1  15
ATOM     15  C   UNL d   1      32.666  21.956 -21.260  0.00  0.00     0.072 A 
ATOM     16  S   UNL d   1      32.918  22.593 -21.724  0.00  0.00    -0.083 SA
ATOM     17  C   UNL d   1      32.573  23.282 -21.426  0.00  0.00     0.035 A 
ATOM     18  C   UNL d   1      32.107  23.073 -20.779  0.00  0.00     0.008 A 
ATOM     19  C   UNL d   1      32.166  22.248 -20.677  0.00  0.00     0.011 A 
ENDBRANCH   1  15
TORSDOF 4
ENDMDL
MODEL 9
REMARK VINA RESULT:      -0.9      1.814      2.677
REMARK  4 active torsions:
REMARK  status: ('A' for Active; 'I' for Inactive)
REMARK    1  A    between atoms: C_6  and  C_1 
REMARK    2  A    between atoms: C_8  and  C_5 
REMARK    3  A    between atoms: C_9  and  C_8 
REMARK    4  A    between atoms: C_13  and  C_9 
ROOT
ATOM      1  C   UNL d   1      33.151  20.410 -21.844  0.00  0.00     0.210 A 
ATOM      2  N   UNL d   1      33.190  21.151 -22.208  0.00  0.00    -0.120 NA
ATOM      3  O   UNL d   1      33.163  20.503 -21.052  0.00  0.00    -0.268 OA
ATOM      4  N   UNL d   1      33.227  21.704 -21.594  0.00  0.00    -0.121 NA
ATOM      5  C   UNL d   1      33.213  21.350 -20.876  0.00  0.00     0.205 A 
ENDROOT
BRANCH   5   6
ATOM      6  C   UNL d   1      33.241  21.745 -20.157  0.00  0.00     0.046 C 
BRANCH   6   7
ATOM      7  C   UNL d   1      32.767  22.398 -20.033  0.00  0.00     0.004 C 
BRANCH   7   8
ATOM      8  C   UNL d   1      32.637  22.684 -19.267  0.00  0.00     0.000 A 
ATOM      9  C   UNL d   1      32.886  22.236 -18.598  0.00  0.00     0.002 A 
ATOM     10  C   UNL d   1      32.755  22.524 -17.831  0.00  0.00     0.030 A 
ATOM     11  C   UNL d   1      32.381  23.249 -17.731  0.00  0.00     0.140 A 
ATOM     12  C   UNL d   1      32.130  23.700 -18.397  0.00  0.00     0.030 A 
ATOM     13  F   UNL d   1      32.249  23.539 -16.962  0.00  0.00    -0.204 F 
ATOM     14  C   UNL d   1      32.266  23.404 -19.148  0.00  0.00     0.002 A 
ENDBRANCH   7   8
ENDBRANCH   6   7
ENDBRANCH   5   6
BRANCH   1  15
ATOM     15  C   UNL d   1      33.107  19.678 -22.235  0.00  0.00     0.072 A 
ATOM     16  S   UNL d   1      33.059  18.930 -21.885  0.00  0.00    -0.083 SA
ATOM     17  C   UNL d   1      33.025  18.366 -22.488  0.00  0.00     0.035 A 
ATOM     18  C   UNL d   1      33.051  18.763 -23.209  0.00  0.00     0.008 A 
ATOM     19  C   UNL d   1      33.102  19.579 -23.050  0.00  0.00     0.011 A 
ENDBRANCH   1  15
TORSDOF 4
ENDMDL
