MODEL 1
REMARK VINA RESULT:      37.8      0.000      0.000
REMARK  5 active torsions:
REMARK  status: ('A' for Active; 'I' for Inactive)
REMARK    1  A    between atoms: C_8  and  C_1 
REMARK    2  A    between atoms: C_7  and  C_4 
REMARK    3  A    between atoms: O_10  and  C_8 
REMARK    4  A    between atoms: C_16  and  O_10 
REMARK    5  A    between atoms: C_19  and  C_16 
ROOT
ATOM      1  C   UNL d   1      14.627  14.139  -1.808  0.00  0.00     0.098 A 
ATOM      2  C   UNL d   1      14.733  14.904  -2.140  0.00  0.00     0.075 A 
ATOM      3  C   UNL d   1      14.900  15.449  -0.830  0.00  0.00     0.354 A 
ATOM      4  C   UNL d   1      14.660  14.042  -0.996  0.00  0.00     0.093 A 
ATOM      5  N   UNL d   1      14.868  15.550  -1.651  0.00  0.00    -0.256 N 
ATOM      6  N   UNL d   1      14.796  14.695  -0.502  0.00  0.00    -0.192 NA
ATOM      7  O   UNL d   1      15.036  16.097  -0.337  0.00  0.00    -0.244 OA
ATOM      8  C   UNL d   1      14.702  15.009  -2.951  0.00  0.00     0.019 C 
ATOM      9  C   UNL d   1      14.971  16.301  -1.976  0.00  0.00     0.104 C 
ENDROOT
BRANCH   1  10
ATOM     10  C   UNL d   1      14.491  13.481  -2.288  0.00  0.00     0.303 C 
ATOM     11  O   UNL d   1      15.008  12.844  -2.265  0.00  0.00    -0.259 OA
BRANCH  10  12
ATOM     12  O   UNL d   1      13.839  13.470  -2.782  0.00  0.00    -0.271 OA
BRANCH  12  13
ATOM     13  C   UNL d   1      13.580  12.752  -3.093  0.00  0.00     0.126 C 
BRANCH  13  14
ATOM     14  C   UNL d   1      13.196  12.731  -3.822  0.00  0.00     0.025 C 
ATOM     15  C   UNL d   1      12.777  13.376  -4.081  0.00  0.00     0.002 C 
ATOM     16  C   UNL d   1      13.227  12.065  -4.297  0.00  0.00     0.002 C 
ENDBRANCH  13  14
ENDBRANCH  12  13
ENDBRANCH  10  12
ENDBRANCH   1  10
BRANCH   4  17
ATOM     17  C   UNL d   1      14.557  13.295  -0.672  0.00  0.00     0.029 A 
ATOM     18  C   UNL d   1      15.205  12.886  -0.352  0.00  0.00     0.059 A 
ATOM     19 CL   UNL d   1      15.955  13.237  -0.362  0.00  0.00    -0.082 Cl
ATOM     20  C   UNL d   1      15.100  12.123  -0.021  0.00  0.00     0.011 A 
ATOM     21  C   UNL d   1      14.348  11.780  -0.014  0.00  0.00     0.001 A 
ATOM     22  C   UNL d   1      13.706  12.181  -0.330  0.00  0.00     0.000 A 
ATOM     23  C   UNL d   1      13.815  12.975  -0.674  0.00  0.00     0.002 A 
ENDBRANCH   4  17
TORSDOF 5
ENDMDL
MODEL 2
REMARK VINA RESULT:      39.6      1.498      3.102
REMARK  5 active torsions:
REMARK  status: ('A' for Active; 'I' for Inactive)
REMARK    1  A    between atoms: C_8  and  C_1 
REMARK    2  A    between atoms: C_7  and  C_4 
REMARK    3  A    between atoms: O_10  and  C_8 
REMARK    4  A    between atoms: C_16  and  O_10 
REMARK    5  A    between atoms: C_19  and  C_16 
ROOT
ATOM      1  C   UNL d   1      14.300  13.459  -1.993  0.00  0.00     0.098 A 
ATOM      2  C   UNL d   1      14.670  13.705  -1.279  0.00  0.00     0.075 A 
ATOM      3  C   UNL d   1      14.937  12.342  -0.947  0.00  0.00     0.354 A 
ATOM      4  C   UNL d   1      14.256  12.662  -2.171  0.00  0.00     0.093 A 
ATOM      5  N   UNL d   1      14.984  13.148  -0.764  0.00  0.00    -0.256 N 
ATOM      6  N   UNL d   1      14.573  12.099  -1.651  0.00  0.00    -0.192 NA
ATOM      7  O   UNL d   1      15.252  11.780  -0.431  0.00  0.00    -0.244 OA
ATOM      8  C   UNL d   1      14.718  14.501  -1.094  0.00  0.00     0.019 C 
ATOM      9  C   UNL d   1      15.346  13.390  -0.064  0.00  0.00     0.104 C 
ENDROOT
BRANCH   1  10
ATOM     10  C   UNL d   1      13.980  14.009  -2.520  0.00  0.00     0.303 C 
ATOM     11  O   UNL d   1      13.179  13.987  -2.696  0.00  0.00    -0.259 OA
BRANCH  10  12
ATOM     12  O   UNL d   1      14.466  14.571  -2.862  0.00  0.00    -0.271 OA
BRANCH  12  13
ATOM     13  C   UNL d   1      14.139  15.276  -3.135  0.00  0.00     0.126 C 
BRANCH  13  14
ATOM     14  C   UNL d   1      14.625  15.923  -3.296  0.00  0.00     0.025 C 
ATOM     15  C   UNL d   1      14.793  16.124  -4.064  0.00  0.00     0.002 C 
ATOM     16  C   UNL d   1      14.944  16.372  -2.691  0.00  0.00     0.002 C 
ENDBRANCH  13  14
ENDBRANCH  12  13
ENDBRANCH  10  12
ENDBRANCH   1  10
BRANCH   4  17
ATOM     17  C   UNL d   1      13.895  12.421  -2.868  0.00  0.00     0.029 A 
ATOM     18  C   UNL d   1      13.165  12.026  -2.845  0.00  0.00     0.059 A 
ATOM     19 CL   UNL d   1      12.804  11.877  -2.115  0.00  0.00    -0.082 Cl
ATOM     20  C   UNL d   1      12.796  11.780  -3.557  0.00  0.00     0.011 A 
ATOM     21  C   UNL d   1      13.163  11.933  -4.282  0.00  0.00     0.001 A 
ATOM     22  C   UNL d   1      13.884  12.323  -4.308  0.00  0.00     0.000 A 
ATOM     23  C   UNL d   1      14.268  12.579  -3.567  0.00  0.00     0.002 A 
ENDBRANCH   4  17
TORSDOF 5
ENDMDL
