MODEL 1
REMARK VINA RESULT:       2.6      0.000      0.000
REMARK  2 active torsions:
REMARK  status: ('A' for Active; 'I' for Inactive)
REMARK    1  A    between atoms: C_6  and  C_1 
REMARK    2  A    between atoms: C_8  and  C_5 
ROOT
ATOM      1  C   UNL d   1      43.200 -15.760  36.715  0.00  0.00     0.169 A 
ATOM      2  C   UNL d   1      43.781 -15.204  36.941  0.00  0.00     0.048 A 
ATOM      3  N   UNL d   1      44.401 -16.219  36.333  0.00  0.00    -0.148 NA
ATOM      4  N   UNL d   1      43.592 -16.388  36.337  0.00  0.00    -0.142 NA
ATOM      5  C   UNL d   1      44.507 -15.482  36.710  0.00  0.00     0.105 A 
ENDROOT
BRANCH   5   6
ATOM      6  C   UNL d   1      45.211 -15.111  36.824  0.00  0.00     0.019 A 
ATOM      7  C   UNL d   1      45.233 -14.377  37.201  0.00  0.00     0.002 A 
ATOM      8  C   UNL d   1      45.950 -13.985  37.325  0.00  0.00     0.000 A 
ATOM      9  C   UNL d   1      46.647 -14.342  37.064  0.00  0.00     0.000 A 
ATOM     10  C   UNL d   1      46.635 -15.079  36.685  0.00  0.00     0.000 A 
ATOM     11  C   UNL d   1      45.916 -15.456  36.569  0.00  0.00     0.002 A 
ENDBRANCH   5   6
BRANCH   1  12
ATOM     12  C   UNL d   1      42.404 -15.672  36.853  0.00  0.00     0.231 C 
ATOM     13  O   UNL d   1      42.115 -15.277  37.486  0.00  0.00    -0.643 OA
ATOM     14  O   UNL d   1      41.852 -15.994  36.334  0.00  0.00    -0.643 OA
ENDBRANCH   1  12
TORSDOF 2
ENDMDL
MODEL 2
REMARK VINA RESULT:       5.6      7.422      7.608
REMARK  2 active torsions:
REMARK  status: ('A' for Active; 'I' for Inactive)
REMARK    1  A    between atoms: C_6  and  C_1 
REMARK    2  A    between atoms: C_8  and  C_5 
ROOT
ATOM      1  C   UNL d   1      46.279 -19.095  41.260  0.00  0.00     0.169 A 
ATOM      2  C   UNL d   1      46.160 -18.914  42.066  0.00  0.00     0.048 A 
ATOM      3  N   UNL d   1      46.645 -20.156  41.994  0.00  0.00    -0.148 NA
ATOM      4  N   UNL d   1      46.580 -19.869  41.222  0.00  0.00    -0.142 NA
ATOM      5  C   UNL d   1      46.381 -19.555  42.510  0.00  0.00     0.105 A 
ENDROOT
BRANCH   5   6
ATOM      6  C   UNL d   1      46.353 -19.606  43.312  0.00  0.00     0.019 A 
ATOM      7  C   UNL d   1      46.637 -18.984  43.774  0.00  0.00     0.002 A 
ATOM      8  C   UNL d   1      46.614 -19.023  44.599  0.00  0.00     0.000 A 
ATOM      9  C   UNL d   1      46.299 -19.698  44.955  0.00  0.00     0.000 A 
ATOM     10  C   UNL d   1      46.010 -20.328  44.500  0.00  0.00     0.000 A 
ATOM     11  C   UNL d   1      46.040 -20.275  43.682  0.00  0.00     0.002 A 
ENDBRANCH   5   6
BRANCH   1  12
ATOM     12  C   UNL d   1      46.119 -18.586  40.647  0.00  0.00     0.231 C 
ATOM     13  O   UNL d   1      46.646 -18.427  40.067  0.00  0.00    -0.643 OA
ATOM     14  O   UNL d   1      45.390 -18.206  40.600  0.00  0.00    -0.643 OA
ENDBRANCH   1  12
TORSDOF 2
ENDMDL
