MODEL 1
REMARK VINA RESULT:      14.9      0.000      0.000
REMARK  3 active torsions:
REMARK  status: ('A' for Active; 'I' for Inactive)
REMARK    1  A    between atoms: C_8  and  N_1 
REMARK    2  A    between atoms: C_6  and  C_2 
REMARK    3  A    between atoms: C_14  and  C_8 
ROOT
ATOM      1  N   UNL d   1      46.277 -18.751  43.475  0.00  0.00    -0.289 N 
ATOM      2  C   UNL d   1      46.217 -17.934  43.338  0.00  0.00     0.154 A 
ATOM      3  N   UNL d   1      46.304 -17.805  42.530  0.00  0.00    -0.226 NA
ATOM      4  C   UNL d   1      46.401 -19.123  42.749  0.00  0.00     0.083 A 
ATOM      5  C   UNL d   1      46.418 -18.542  42.164  0.00  0.00     0.099 A 
ATOM      6  C   UNL d   1      46.503 -19.923  42.533  0.00  0.00     0.019 A 
ATOM      7  C   UNL d   1      46.535 -18.753  41.370  0.00  0.00     0.021 A 
ATOM      8  C   UNL d   1      46.619 -20.128  41.744  0.00  0.00     0.002 A 
ATOM      9  C   UNL d   1      46.635 -19.543  41.162  0.00  0.00     0.002 A 
ENDROOT
BRANCH   2  10
ATOM     10  C   UNL d   1      46.093 -17.358  43.914  0.00  0.00     0.064 A 
ATOM     11  S   UNL d   1      46.367 -17.219  44.568  0.00  0.00    -0.083 SA
ATOM     12  C   UNL d   1      46.127 -16.651  44.938  0.00  0.00     0.035 A 
ATOM     13  C   UNL d   1      45.621 -16.221  44.667  0.00  0.00     0.008 A 
ATOM     14  C   UNL d   1      45.348 -16.360  44.014  0.00  0.00     0.010 A 
ENDBRANCH   2  10
BRANCH   1  15
ATOM     15  C   UNL d   1      46.201 -18.968  44.266  0.00  0.00     0.082 C 
BRANCH  15  16
ATOM     16  C   UNL d   1      46.091 -19.759  44.465  0.00  0.00     0.018 C 
ATOM     17  C   UNL d   1      45.431 -20.164  44.183  0.00  0.00     0.002 C 
ATOM     18  C   UNL d   1      46.639 -20.145  44.945  0.00  0.00     0.002 C 
ENDBRANCH  15  16
ENDBRANCH   1  15
TORSDOF 3
ENDMDL
