MODEL 1
REMARK VINA RESULT:      -3.6      0.000      0.000
REMARK  5 active torsions:
REMARK  status: ('A' for Active; 'I' for Inactive)
REMARK    1  A    between atoms: C_7  and  N_1 
REMARK    2  A    between atoms: C_6  and  C_2 
REMARK    3  A    between atoms: C_8  and  C_6 
REMARK    4  A    between atoms: C_12  and  C_7 
REMARK    5  A    between atoms: C_9  and  C_8 
ROOT
ATOM      1  N   UNL d   1      58.753  -0.698  29.761  0.00  0.00    -0.289 N 
ATOM      2  C   UNL d   1      58.546  -0.116  30.424  0.00  0.00     0.148 A 
ATOM      3  N   UNL d   1      59.219   0.501  30.463  0.00  0.00    -0.227 NA
ATOM      4  C   UNL d   1      59.564  -0.449  29.376  0.00  0.00     0.083 A 
ATOM      5  C   UNL d   1      59.856   0.304  29.817  0.00  0.00     0.099 A 
ATOM      6  C   UNL d   1      60.062  -0.806  28.694  0.00  0.00     0.019 A 
ATOM      7  C   UNL d   1      60.639   0.682  29.566  0.00  0.00     0.021 A 
ATOM      8  C   UNL d   1      60.841  -0.409  28.462  0.00  0.00     0.002 A 
ATOM      9  C   UNL d   1      61.133   0.343  28.903  0.00  0.00     0.002 A 
ENDROOT
BRANCH   2  10
ATOM     10  C   UNL d   1      57.868  -0.437  30.647  0.00  0.00     0.037 C 
BRANCH  10  11
ATOM     11  C   UNL d   1      57.259  -0.024  30.957  0.00  0.00     0.003 C 
BRANCH  11  12
ATOM     12  C   UNL d   1      56.872  -0.243  31.637  0.00  0.00     0.000 A 
ATOM     13  C   UNL d   1      56.692   0.335  32.199  0.00  0.00     0.000 A 
ATOM     14  C   UNL d   1      56.301   0.119  32.888  0.00  0.00     0.000 A 
ATOM     15  C   UNL d   1      56.090  -0.655  33.023  0.00  0.00     0.000 A 
ATOM     16  C   UNL d   1      56.270  -1.233  32.461  0.00  0.00     0.000 A 
ATOM     17  C   UNL d   1      56.655  -1.016  31.783  0.00  0.00     0.000 A 
ENDBRANCH  11  12
ENDBRANCH  10  11
ENDBRANCH   2  10
BRANCH   1  18
ATOM     18  C   UNL d   1      58.879  -1.245  29.189  0.00  0.00     0.082 C 
BRANCH  18  19
ATOM     19  C   UNL d   1      58.574  -2.007  29.309  0.00  0.00     0.018 C 
ATOM     20  C   UNL d   1      58.154  -2.365  28.699  0.00  0.00     0.002 C 
ATOM     21  C   UNL d   1      58.470  -2.658  29.786  0.00  0.00     0.002 C 
ENDBRANCH  18  19
ENDBRANCH   1  18
TORSDOF 5
ENDMDL
MODEL 2
REMARK VINA RESULT:      -3.5      0.931      2.219
REMARK  5 active torsions:
REMARK  status: ('A' for Active; 'I' for Inactive)
REMARK    1  A    between atoms: C_7  and  N_1 
REMARK    2  A    between atoms: C_6  and  C_2 
REMARK    3  A    between atoms: C_8  and  C_6 
REMARK    4  A    between atoms: C_12  and  C_7 
REMARK    5  A    between atoms: C_9  and  C_8 
ROOT
ATOM      1  N   UNL d   1      59.204  -0.967  29.761  0.00  0.00    -0.289 N 
ATOM      2  C   UNL d   1      58.353  -1.202  29.965  0.00  0.00     0.148 A 
ATOM      3  N   UNL d   1      58.219  -2.046  29.638  0.00  0.00    -0.227 NA
ATOM      4  C   UNL d   1      59.614  -1.666  29.302  0.00  0.00     0.083 A 
ATOM      5  C   UNL d   1      58.996  -2.343  29.225  0.00  0.00     0.099 A 
ATOM      6  C   UNL d   1      60.455  -1.768  28.953  0.00  0.00     0.019 A 
ATOM      7  C   UNL d   1      59.232  -3.106  28.800  0.00  0.00     0.021 A 
ATOM      8  C   UNL d   1      60.667  -2.541  28.532  0.00  0.00     0.002 A 
ATOM      9  C   UNL d   1      60.049  -3.218  28.455  0.00  0.00     0.002 A 
ENDROOT
BRANCH   2  10
ATOM     10  C   UNL d   1      58.140  -0.545  30.334  0.00  0.00     0.037 C 
BRANCH  10  11
ATOM     11  C   UNL d   1      57.383  -0.349  30.495  0.00  0.00     0.003 C 
BRANCH  11  12
ATOM     12  C   UNL d   1      57.110  -0.206  31.247  0.00  0.00     0.000 A 
ATOM     13  C   UNL d   1      56.812  -0.835  31.691  0.00  0.00     0.000 A 
ATOM     14  C   UNL d   1      56.535  -0.696  32.452  0.00  0.00     0.000 A 
ATOM     15  C   UNL d   1      56.551   0.053  32.771  0.00  0.00     0.000 A 
ATOM     16  C   UNL d   1      56.850   0.682  32.327  0.00  0.00     0.000 A 
ATOM     17  C   UNL d   1      57.122   0.540  31.578  0.00  0.00     0.000 A 
ENDBRANCH  11  12
ENDBRANCH  10  11
ENDBRANCH   2  10
BRANCH   1  18
ATOM     18  C   UNL d   1      59.944  -0.701  29.612  0.00  0.00     0.082 C 
BRANCH  18  19
ATOM     19  C   UNL d   1      60.117   0.088  29.803  0.00  0.00     0.018 C 
ATOM     20  C   UNL d   1      60.125   0.648  29.200  0.00  0.00     0.002 C 
ATOM     21  C   UNL d   1      60.305   0.655  30.354  0.00  0.00     0.002 C 
ENDBRANCH  18  19
ENDBRANCH   1  18
TORSDOF 5
ENDMDL
MODEL 3
REMARK VINA RESULT:      -1.5      0.986      2.023
REMARK  5 active torsions:
REMARK  status: ('A' for Active; 'I' for Inactive)
REMARK    1  A    between atoms: C_7  and  N_1 
REMARK    2  A    between atoms: C_6  and  C_2 
REMARK    3  A    between atoms: C_8  and  C_6 
REMARK    4  A    between atoms: C_12  and  C_7 
REMARK    5  A    between atoms: C_9  and  C_8 
ROOT
ATOM      1  N   UNL d   1      58.739   0.194  30.732  0.00  0.00    -0.289 N 
ATOM      2  C   UNL d   1      58.047  -0.343  30.497  0.00  0.00     0.148 A 
ATOM      3  N   UNL d   1      58.249  -0.706  29.683  0.00  0.00    -0.227 NA
ATOM      4  C   UNL d   1      59.385   0.172  30.062  0.00  0.00     0.083 A 
ATOM      5  C   UNL d   1      59.078  -0.393  29.404  0.00  0.00     0.099 A 
ATOM      6  C   UNL d   1      60.197   0.586  29.972  0.00  0.00     0.019 A 
ATOM      7  C   UNL d   1      59.590  -0.530  28.670  0.00  0.00     0.021 A 
ATOM      8  C   UNL d   1      60.691   0.433  29.228  0.00  0.00     0.002 A 
ATOM      9  C   UNL d   1      60.384  -0.131  28.570  0.00  0.00     0.002 A 
ENDROOT
BRANCH   2  10
ATOM     10  C   UNL d   1      57.598  -0.229  31.129  0.00  0.00     0.037 C 
BRANCH  10  11
ATOM     11  C   UNL d   1      57.072  -0.763  31.404  0.00  0.00     0.003 C 
BRANCH  11  12
ATOM     12  C   UNL d   1      56.543  -0.602  31.999  0.00  0.00     0.000 A 
ATOM     13  C   UNL d   1      56.313   0.181  32.129  0.00  0.00     0.000 A 
ATOM     14  C   UNL d   1      55.779   0.350  32.729  0.00  0.00     0.000 A 
ATOM     15  C   UNL d   1      55.474  -0.244  33.196  0.00  0.00     0.000 A 
ATOM     16  C   UNL d   1      55.704  -1.026  33.065  0.00  0.00     0.000 A 
ATOM     17  C   UNL d   1      56.231  -1.189  32.473  0.00  0.00     0.000 A 
ENDBRANCH  11  12
ENDBRANCH  10  11
ENDBRANCH   2  10
BRANCH   1  18
ATOM     18  C   UNL d   1      59.316   0.682  30.996  0.00  0.00     0.082 C 
BRANCH  18  19
ATOM     19  C   UNL d   1      59.493   0.669  31.806  0.00  0.00     0.018 C 
ATOM     20  C   UNL d   1      60.281   0.621  32.038  0.00  0.00     0.002 C 
ATOM     21  C   UNL d   1      59.248   0.681  32.582  0.00  0.00     0.002 C 
ENDBRANCH  18  19
ENDBRANCH   1  18
TORSDOF 5
ENDMDL
MODEL 4
REMARK VINA RESULT:      -1.0      8.908      9.991
REMARK  5 active torsions:
REMARK  status: ('A' for Active; 'I' for Inactive)
REMARK    1  A    between atoms: C_7  and  N_1 
REMARK    2  A    between atoms: C_6  and  C_2 
REMARK    3  A    between atoms: C_8  and  C_6 
REMARK    4  A    between atoms: C_12  and  C_7 
REMARK    5  A    between atoms: C_9  and  C_8 
ROOT
ATOM      1  N   UNL d   1      59.687  -9.276  33.481  0.00  0.00    -0.289 N 
ATOM      2  C   UNL d   1      60.475  -9.272  33.034  0.00  0.00     0.148 A 
ATOM      3  N   UNL d   1      61.127  -9.052  33.636  0.00  0.00    -0.227 NA
ATOM      4  C   UNL d   1      59.838  -9.056  34.373  0.00  0.00     0.083 A 
ATOM      5  C   UNL d   1      60.742  -8.916  34.470  0.00  0.00     0.099 A 
ATOM      6  C   UNL d   1      59.278  -8.969  35.093  0.00  0.00     0.019 A 
ATOM      7  C   UNL d   1      61.065  -8.691  35.285  0.00  0.00     0.021 A 
ATOM      8  C   UNL d   1      59.625  -8.743  35.897  0.00  0.00     0.002 A 
ATOM      9  C   UNL d   1      60.529  -8.603  35.995  0.00  0.00     0.002 A 
ENDROOT
BRANCH   2  10
ATOM     10  C   UNL d   1      60.204  -9.466  32.326  0.00  0.00     0.037 C 
BRANCH  10  11
ATOM     11  C   UNL d   1      60.645  -9.815  31.759  0.00  0.00     0.003 C 
BRANCH  11  12
ATOM     12  C   UNL d   1      60.497  -9.731  30.965  0.00  0.00     0.000 A 
ATOM     13  C   UNL d   1      61.133  -9.629  30.447  0.00  0.00     0.000 A 
ATOM     14  C   UNL d   1      60.990  -9.543  29.643  0.00  0.00     0.000 A 
ATOM     15  C   UNL d   1      60.230  -9.558  29.351  0.00  0.00     0.000 A 
ATOM     16  C   UNL d   1      59.594  -9.660  29.869  0.00  0.00     0.000 A 
ATOM     17  C   UNL d   1      59.740  -9.744  30.660  0.00  0.00     0.000 A 
ENDBRANCH  11  12
ENDBRANCH  10  11
ENDBRANCH   2  10
BRANCH   1  18
ATOM     18  C   UNL d   1      58.960  -9.296  33.817  0.00  0.00     0.082 C 
BRANCH  18  19
ATOM     19  C   UNL d   1      58.300  -9.271  33.315  0.00  0.00     0.018 C 
ATOM     20  C   UNL d   1      57.695  -9.816  33.430  0.00  0.00     0.002 C 
ATOM     21  C   UNL d   1      57.903  -8.938  32.688  0.00  0.00     0.002 C 
ENDBRANCH  18  19
ENDBRANCH   1  18
TORSDOF 5
ENDMDL
MODEL 5
REMARK VINA RESULT:      -0.9      1.863      5.133
REMARK  5 active torsions:
REMARK  status: ('A' for Active; 'I' for Inactive)
REMARK    1  A    between atoms: C_7  and  N_1 
REMARK    2  A    between atoms: C_6  and  C_2 
REMARK    3  A    between atoms: C_8  and  C_6 
REMARK    4  A    between atoms: C_12  and  C_7 
REMARK    5  A    between atoms: C_9  and  C_8 
ROOT
ATOM      1  N   UNL d   1      56.698   0.049  33.115  0.00  0.00    -0.289 N 
ATOM      2  C   UNL d   1      56.406  -0.384  32.375  0.00  0.00     0.148 A 
ATOM      3  N   UNL d   1      55.503  -0.499  32.466  0.00  0.00    -0.227 NA
ATOM      4  C   UNL d   1      55.976   0.211  33.681  0.00  0.00     0.083 A 
ATOM      5  C   UNL d   1      55.226  -0.133  33.273  0.00  0.00     0.099 A 
ATOM      6  C   UNL d   1      55.909   0.620  34.498  0.00  0.00     0.019 A 
ATOM      7  C   UNL d   1      54.427  -0.060  33.693  0.00  0.00     0.021 A 
ATOM      8  C   UNL d   1      55.099   0.680  34.897  0.00  0.00     0.002 A 
ATOM      9  C   UNL d   1      54.350   0.336  34.490  0.00  0.00     0.002 A 
ENDROOT
BRANCH   2  10
ATOM     10  C   UNL d   1      57.093  -0.451  32.006  0.00  0.00     0.037 C 
BRANCH  10  11
ATOM     11  C   UNL d   1      57.173  -0.710  31.255  0.00  0.00     0.003 C 
BRANCH  11  12
ATOM     12  C   UNL d   1      57.640  -0.340  30.703  0.00  0.00     0.000 A 
ATOM     13  C   UNL d   1      58.405  -0.624  30.571  0.00  0.00     0.000 A 
ATOM     14  C   UNL d   1      58.882  -0.254  30.015  0.00  0.00     0.000 A 
ATOM     15  C   UNL d   1      58.611   0.388  29.593  0.00  0.00     0.000 A 
ATOM     16  C   UNL d   1      57.847   0.671  29.726  0.00  0.00     0.000 A 
ATOM     17  C   UNL d   1      57.380   0.304  30.275  0.00  0.00     0.000 A 
ENDBRANCH  11  12
ENDBRANCH  10  11
ENDBRANCH   2  10
BRANCH   1  18
ATOM     18  C   UNL d   1      57.018   0.430  33.743  0.00  0.00     0.082 C 
BRANCH  18  19
ATOM     19  C   UNL d   1      57.839   0.545  33.748  0.00  0.00     0.018 C 
ATOM     20  C   UNL d   1      58.234   0.553  34.470  0.00  0.00     0.002 C 
ATOM     21  C   UNL d   1      58.536   0.670  33.347  0.00  0.00     0.002 C 
ENDBRANCH  18  19
ENDBRANCH   1  18
TORSDOF 5
ENDMDL
