MODEL 1
REMARK VINA RESULT:      -2.0      0.000      0.000
REMARK  2 active torsions:
REMARK  status: ('A' for Active; 'I' for Inactive)
REMARK       I    between atoms: C_3  and  N_1 
REMARK       I    between atoms: C_4  and  N_2 
REMARK    1  A    between atoms: C_6  and  C_3 
REMARK    2  A    between atoms: C_8  and  C_4 
ROOT
ATOM      1  N   UNL d   1      31.851  17.075 -24.277  0.00  0.00    -0.270 N 
ATOM      2  N   UNL d   1      30.302  16.497 -24.373  0.00  0.00    -0.269 N 
ATOM      3  C   UNL d   1      32.620  17.361 -24.230  0.00  0.00     0.265 C 
ATOM      4  C   UNL d   1      29.531  16.205 -24.423  0.00  0.00     0.265 C 
ATOM      5  C   UNL d   1      31.689  16.385 -24.710  0.00  0.00     0.085 A 
ATOM      6  C   UNL d   1      30.923  16.092 -24.762  0.00  0.00     0.101 A 
ATOM      7  C   UNL d   1      31.234  17.470 -23.896  0.00  0.00     0.102 A 
ATOM      8  C   UNL d   1      30.453  17.178 -23.944  0.00  0.00     0.102 A 
ATOM      9  O   UNL d   1      33.238  16.963 -24.614  0.00  0.00    -0.267 OA
ATOM     10  O   UNL d   1      29.374  15.514 -24.858  0.00  0.00    -0.267 OA
ATOM     11  C   UNL d   1      32.309  15.984 -25.096  0.00  0.00     0.021 C 
ENDROOT
BRANCH   3  12
ATOM     12  C   UNL d   1      32.778  18.046 -23.800  0.00  0.00     0.057 A 
ATOM     13  C   UNL d   1      32.920  18.758 -24.194  0.00  0.00     0.005 A 
ATOM     14  C   UNL d   1      33.079  19.443 -23.764  0.00  0.00     0.000 A 
ATOM     15  C   UNL d   1      33.220  20.155 -24.158  0.00  0.00     0.000 C 
ATOM     16  C   UNL d   1      33.096  19.417 -22.940  0.00  0.00     0.000 A 
ATOM     17  C   UNL d   1      32.953  18.698 -22.543  0.00  0.00     0.000 A 
ATOM     18  C   UNL d   1      32.796  18.020 -22.976  0.00  0.00     0.005 A 
ENDBRANCH   3  12
BRANCH   4  19
ATOM     19  C   UNL d   1      28.918  16.602 -24.041  0.00  0.00     0.057 A 
ATOM     20  C   UNL d   1      28.432  16.190 -23.516  0.00  0.00     0.005 A 
ATOM     21  C   UNL d   1      27.818  16.586 -23.134  0.00  0.00     0.000 A 
ATOM     22  C   UNL d   1      27.328  16.181 -22.607  0.00  0.00     0.000 C 
ATOM     23  C   UNL d   1      27.691  17.395 -23.277  0.00  0.00     0.000 A 
ATOM     24  C   UNL d   1      28.174  17.800 -23.798  0.00  0.00     0.000 A 
ATOM     25  C   UNL d   1      28.795  17.404 -24.186  0.00  0.00     0.005 A 
ENDBRANCH   4  19
TORSDOF 2
ENDMDL
MODEL 2
REMARK VINA RESULT:      -1.7      2.130      4.690
REMARK  2 active torsions:
REMARK  status: ('A' for Active; 'I' for Inactive)
REMARK       I    between atoms: C_3  and  N_1 
REMARK       I    between atoms: C_4  and  N_2 
REMARK    1  A    between atoms: C_6  and  C_3 
REMARK    2  A    between atoms: C_8  and  C_4 
ROOT
ATOM      1  N   UNL d   1      32.860  18.339 -23.800  0.00  0.00    -0.270 N 
ATOM      2  N   UNL d   1      32.990  19.805 -23.040  0.00  0.00    -0.269 N 
ATOM      3  C   UNL d   1      32.796  17.611 -24.177  0.00  0.00     0.265 C 
ATOM      4  C   UNL d   1      33.056  20.538 -22.665  0.00  0.00     0.265 C 
ATOM      5  C   UNL d   1      33.032  19.022 -24.238  0.00  0.00     0.085 A 
ATOM      6  C   UNL d   1      33.099  19.753 -23.869  0.00  0.00     0.101 A 
ATOM      7  C   UNL d   1      32.754  18.396 -22.983  0.00  0.00     0.102 A 
ATOM      8  C   UNL d   1      32.820  19.135 -22.600  0.00  0.00     0.102 A 
ATOM      9  O   UNL d   1      32.902  17.556 -24.998  0.00  0.00    -0.267 OA
ATOM     10  O   UNL d   1      33.229  21.219 -23.109  0.00  0.00    -0.267 OA
ATOM     11  C   UNL d   1      33.140  18.969 -25.063  0.00  0.00     0.021 C 
ENDROOT
BRANCH   3  12
ATOM     12  C   UNL d   1      32.625  16.935 -23.740  0.00  0.00     0.057 A 
ATOM     13  C   UNL d   1      31.841  16.693 -23.642  0.00  0.00     0.005 A 
ATOM     14  C   UNL d   1      31.669  16.015 -23.205  0.00  0.00     0.000 A 
ATOM     15  C   UNL d   1      30.885  15.773 -23.107  0.00  0.00     0.000 C 
ATOM     16  C   UNL d   1      32.281  15.580 -22.865  0.00  0.00     0.000 A 
ATOM     17  C   UNL d   1      33.072  15.824 -22.964  0.00  0.00     0.000 A 
ATOM     18  C   UNL d   1      33.236  16.498 -23.400  0.00  0.00     0.005 A 
ENDBRANCH   3  12
BRANCH   4  19
ATOM     19  C   UNL d   1      32.950  20.591 -21.850  0.00  0.00     0.057 A 
ATOM     20  C   UNL d   1      32.600  21.267 -21.528  0.00  0.00     0.005 A 
ATOM     21  C   UNL d   1      32.494  21.320 -20.713  0.00  0.00     0.000 A 
ATOM     22  C   UNL d   1      32.145  21.993 -20.384  0.00  0.00     0.000 C 
ATOM     23  C   UNL d   1      32.737  20.698 -20.218  0.00  0.00     0.000 A 
ATOM     24  C   UNL d   1      33.083  20.030 -20.540  0.00  0.00     0.000 A 
ATOM     25  C   UNL d   1      33.192  19.972 -21.363  0.00  0.00     0.005 A 
ENDBRANCH   4  19
TORSDOF 2
ENDMDL
MODEL 3
REMARK VINA RESULT:      -1.3      2.519      4.409
REMARK  2 active torsions:
REMARK  status: ('A' for Active; 'I' for Inactive)
REMARK       I    between atoms: C_3  and  N_1 
REMARK       I    between atoms: C_4  and  N_2 
REMARK    1  A    between atoms: C_6  and  C_3 
REMARK    2  A    between atoms: C_8  and  C_4 
ROOT
ATOM      1  N   UNL d   1      32.968  20.930 -22.847  0.00  0.00    -0.270 N 
ATOM      2  N   UNL d   1      32.882  19.526 -23.720  0.00  0.00    -0.269 N 
ATOM      3  C   UNL d   1      33.011  21.627 -22.413  0.00  0.00     0.265 C 
ATOM      4  C   UNL d   1      32.839  18.828 -24.160  0.00  0.00     0.265 C 
ATOM      5  C   UNL d   1      33.082  20.942 -23.668  0.00  0.00     0.085 A 
ATOM      6  C   UNL d   1      33.041  20.250 -24.109  0.00  0.00     0.101 A 
ATOM      7  C   UNL d   1      32.811  20.212 -22.469  0.00  0.00     0.102 A 
ATOM      8  C   UNL d   1      32.768  19.504 -22.909  0.00  0.00     0.102 A 
ATOM      9  O   UNL d   1      33.168  22.346 -22.794  0.00  0.00    -0.267 OA
ATOM     10  O   UNL d   1      32.955  18.846 -24.983  0.00  0.00    -0.267 OA
ATOM     11  C   UNL d   1      33.240  21.664 -24.054  0.00  0.00     0.021 C 
ENDROOT
BRANCH   3  12
ATOM     12  C   UNL d   1      32.897  21.612 -21.597  0.00  0.00     0.057 A 
ATOM     13  C   UNL d   1      32.445  22.199 -21.233  0.00  0.00     0.005 A 
ATOM     14  C   UNL d   1      32.331  22.185 -20.416  0.00  0.00     0.000 A 
ATOM     15  C   UNL d   1      31.879  22.772 -20.051  0.00  0.00     0.000 C 
ATOM     16  C   UNL d   1      32.670  21.584 -19.965  0.00  0.00     0.000 A 
ATOM     17  C   UNL d   1      33.126  20.992 -20.333  0.00  0.00     0.000 A 
ATOM     18  C   UNL d   1      33.236  21.012 -21.145  0.00  0.00     0.005 A 
ENDBRANCH   3  12
BRANCH   4  19
ATOM     19  C   UNL d   1      32.683  18.113 -23.779  0.00  0.00     0.057 A 
ATOM     20  C   UNL d   1      31.967  17.726 -23.920  0.00  0.00     0.005 A 
ATOM     21  C   UNL d   1      31.811  17.011 -23.540  0.00  0.00     0.000 A 
ATOM     22  C   UNL d   1      31.098  16.618 -23.676  0.00  0.00     0.000 C 
ATOM     23  C   UNL d   1      32.370  16.685 -23.018  0.00  0.00     0.000 A 
ATOM     24  C   UNL d   1      33.078  17.072 -22.881  0.00  0.00     0.000 A 
ATOM     25  C   UNL d   1      33.240  17.793 -23.263  0.00  0.00     0.005 A 
ENDBRANCH   4  19
TORSDOF 2
ENDMDL
MODEL 4
REMARK VINA RESULT:      -1.2      1.751      3.003
REMARK  2 active torsions:
REMARK  status: ('A' for Active; 'I' for Inactive)
REMARK       I    between atoms: C_3  and  N_1 
REMARK       I    between atoms: C_4  and  N_2 
REMARK    1  A    between atoms: C_6  and  C_3 
REMARK    2  A    between atoms: C_8  and  C_4 
ROOT
ATOM      1  N   UNL d   1      32.754  19.373 -23.579  0.00  0.00    -0.270 N 
ATOM      2  N   UNL d   1      32.246  17.869 -24.050  0.00  0.00    -0.269 N 
ATOM      3  C   UNL d   1      33.005  20.120 -23.346  0.00  0.00     0.265 C 
ATOM      4  C   UNL d   1      31.994  17.119 -24.288  0.00  0.00     0.265 C 
ATOM      5  C   UNL d   1      32.725  19.176 -24.384  0.00  0.00     0.085 A 
ATOM      6  C   UNL d   1      32.475  18.431 -24.626  0.00  0.00     0.101 A 
ATOM      7  C   UNL d   1      32.527  18.815 -23.015  0.00  0.00     0.102 A 
ATOM      8  C   UNL d   1      32.271  18.056 -23.252  0.00  0.00     0.102 A 
ATOM      9  O   UNL d   1      33.233  20.680 -23.914  0.00  0.00    -0.267 OA
ATOM     10  O   UNL d   1      31.967  16.926 -25.097  0.00  0.00    -0.267 OA
ATOM     11  C   UNL d   1      32.953  19.737 -24.957  0.00  0.00     0.021 C 
ENDROOT
BRANCH   3  12
ATOM     12  C   UNL d   1      33.033  20.315 -22.546  0.00  0.00     0.057 A 
ATOM     13  C   UNL d   1      32.923  21.098 -22.307  0.00  0.00     0.005 A 
ATOM     14  C   UNL d   1      32.950  21.293 -21.506  0.00  0.00     0.000 A 
ATOM     15  C   UNL d   1      32.840  22.075 -21.267  0.00  0.00     0.000 C 
ATOM     16  C   UNL d   1      33.087  20.705 -20.945  0.00  0.00     0.000 A 
ATOM     17  C   UNL d   1      33.198  19.914 -21.186  0.00  0.00     0.000 A 
ATOM     18  C   UNL d   1      33.170  19.728 -21.984  0.00  0.00     0.005 A 
ENDBRANCH   3  12
BRANCH   4  19
ATOM     19  C   UNL d   1      31.768  16.564 -23.722  0.00  0.00     0.057 A 
ATOM     20  C   UNL d   1      30.966  16.431 -23.580  0.00  0.00     0.005 A 
ATOM     21  C   UNL d   1      30.740  15.875 -23.015  0.00  0.00     0.000 A 
ATOM     22  C   UNL d   1      29.939  15.736 -22.867  0.00  0.00     0.000 C 
ATOM     23  C   UNL d   1      31.318  15.453 -22.591  0.00  0.00     0.000 A 
ATOM     24  C   UNL d   1      32.112  15.588 -22.734  0.00  0.00     0.000 A 
ATOM     25  C   UNL d   1      32.344  16.148 -23.305  0.00  0.00     0.005 A 
ENDBRANCH   4  19
TORSDOF 2
ENDMDL
MODEL 5
REMARK VINA RESULT:       0.4      3.000      5.528
REMARK  2 active torsions:
REMARK  status: ('A' for Active; 'I' for Inactive)
REMARK       I    between atoms: C_3  and  N_1 
REMARK       I    between atoms: C_4  and  N_2 
REMARK    1  A    between atoms: C_6  and  C_3 
REMARK    2  A    between atoms: C_8  and  C_4 
ROOT
ATOM      1  N   UNL d   1      32.942  20.321 -23.741  0.00  0.00    -0.270 N 
ATOM      2  N   UNL d   1      32.863  21.845 -23.098  0.00  0.00    -0.269 N 
ATOM      3  C   UNL d   1      32.981  19.565 -24.060  0.00  0.00     0.265 C 
ATOM      4  C   UNL d   1      32.825  22.607 -22.781  0.00  0.00     0.265 C 
ATOM      5  C   UNL d   1      33.028  20.985 -24.230  0.00  0.00     0.085 A 
ATOM      6  C   UNL d   1      32.991  21.745 -23.919  0.00  0.00     0.101 A 
ATOM      7  C   UNL d   1      32.817  20.426 -22.931  0.00  0.00     0.102 A 
ATOM      8  C   UNL d   1      32.777  21.195 -22.607  0.00  0.00     0.102 A 
ATOM      9  O   UNL d   1      33.107  19.461 -24.873  0.00  0.00    -0.267 OA
ATOM     10  O   UNL d   1      32.912  23.269 -23.277  0.00  0.00    -0.267 OA
ATOM     11  C   UNL d   1      33.155  20.884 -25.048  0.00  0.00     0.021 C 
ENDROOT
BRANCH   3  12
ATOM     12  C   UNL d   1      32.895  18.907 -23.572  0.00  0.00     0.057 A 
ATOM     13  C   UNL d   1      32.464  18.253 -23.833  0.00  0.00     0.005 A 
ATOM     14  C   UNL d   1      32.377  17.593 -23.344  0.00  0.00     0.000 A 
ATOM     15  C   UNL d   1      31.946  16.939 -23.605  0.00  0.00     0.000 C 
ATOM     16  C   UNL d   1      32.722  17.589 -22.596  0.00  0.00     0.000 A 
ATOM     17  C   UNL d   1      33.158  18.250 -22.333  0.00  0.00     0.000 A 
ATOM     18  C   UNL d   1      33.240  18.901 -22.823  0.00  0.00     0.005 A 
ENDBRANCH   3  12
BRANCH   4  19
ATOM     19  C   UNL d   1      32.700  22.709 -21.973  0.00  0.00     0.057 A 
ATOM     20  C   UNL d   1      32.032  23.120 -21.713  0.00  0.00     0.005 A 
ATOM     21  C   UNL d   1      31.907  23.222 -20.905  0.00  0.00     0.000 A 
ATOM     22  C   UNL d   1      31.243  23.632 -20.637  0.00  0.00     0.000 C 
ATOM     23  C   UNL d   1      32.450  22.911 -20.356  0.00  0.00     0.000 A 
ATOM     24  C   UNL d   1      33.110  22.504 -20.617  0.00  0.00     0.000 A 
ATOM     25  C   UNL d   1      33.240  22.400 -21.433  0.00  0.00     0.005 A 
ENDBRANCH   4  19
TORSDOF 2
ENDMDL
