MODEL 1
REMARK VINA RESULT:      63.0      0.000      0.000
REMARK  3 active torsions:
REMARK  status: ('A' for Active; 'I' for Inactive)
REMARK    1  A    between atoms: N_4  and  C_2 
REMARK    2  A    between atoms: C_12  and  C_10 
REMARK    3  A    between atoms: C_19  and  C_11 
ROOT
ATOM      1  C   UNL d   1     -51.061  25.669  33.398  0.00  0.00     0.152 A 
ATOM      2  C   UNL d   1     -50.345  25.299  33.428  0.00  0.00     0.174 A 
ATOM      3  C   UNL d   1     -51.095  26.495  33.355  0.00  0.00     0.111 A 
ATOM      4  O   UNL d   1     -51.766  25.225  33.412  0.00  0.00    -0.302 OA
ATOM      5  N   UNL d   1     -49.652  25.729  33.415  0.00  0.00    -0.207 NA
ATOM      6  C   UNL d   1     -52.530  26.434  33.338  0.00  0.00     0.043 A 
ATOM      7  N   UNL d   1     -50.414  26.938  33.341  0.00  0.00    -0.225 NA
ATOM      8  C   UNL d   1     -52.496  25.617  33.381  0.00  0.00     0.102 A 
ATOM      9  C   UNL d   1     -49.687  26.555  33.371  0.00  0.00     0.164 A 
ATOM     10  C   UNL d   1     -53.258  26.817  33.308  0.00  0.00     0.004 A 
ATOM     11  C   UNL d   1     -53.194  25.177  33.394  0.00  0.00     0.025 A 
ATOM     12  C   UNL d   1     -53.956  26.382  33.321  0.00  0.00     0.000 A 
ATOM     13  C   UNL d   1     -53.930  25.556  33.364  0.00  0.00     0.002 A 
ENDROOT
BRANCH   2  14
ATOM     14  N   UNL d   1     -50.311  24.482  33.471  0.00  0.00    -0.284 N 
ATOM     15  C   UNL d   1     -49.663  24.032  33.681  0.00  0.00     0.130 A 
ATOM     16  C   UNL d   1     -49.874  23.244  33.650  0.00  0.00     0.025 A 
ATOM     17  C   UNL d   1     -50.660  23.198  33.420  0.00  0.00     0.021 A 
ATOM     18  C   UNL d   1     -50.936  23.967  33.307  0.00  0.00     0.082 A 
BRANCH  15  19
ATOM     19  C   UNL d   1     -48.893  24.334  33.896  0.00  0.00     0.228 C 
ATOM     20  O   UNL d   1     -48.738  24.566  34.697  0.00  0.00    -0.643 OA
ATOM     21  O   UNL d   1     -48.286  24.401  33.308  0.00  0.00    -0.643 OA
ENDBRANCH  15  19
ENDBRANCH   2  14
BRANCH   9  22
ATOM     22  C   UNL d   1     -48.959  27.009  33.358  0.00  0.00     0.039 C 
ATOM     23  C   UNL d   1     -48.942  27.787  33.686  0.00  0.00     0.003 C 
ENDBRANCH   9  22
TORSDOF 3
ENDMDL
