MODEL 1
REMARK VINA RESULT:      60.2      0.000      0.000
REMARK  7 active torsions:
REMARK  status: ('A' for Active; 'I' for Inactive)
REMARK    1  A    between atoms: C_3  and  C_1 
REMARK    2  A    between atoms: C_6  and  C_1 
REMARK    3  A    between atoms: C_2  and  C_3 
REMARK       I    between atoms: N_4  and  C_2 
REMARK    4  A    between atoms: C_12  and  N_4 
REMARK    5  A    between atoms: N_7  and  C_5 
REMARK    6  A    between atoms: C_16  and  N_7 
REMARK    7  A    between atoms: C_17  and  N_7 
ROOT
ATOM      1  C   UNL d   1     -51.134  26.542  34.052  0.00  0.00     0.279 C 
ATOM      2  N   UNL d   1     -51.027  27.006  34.722  0.00  0.00    -0.208 NA
ATOM      3  O   UNL d   1     -50.906  26.841  33.313  0.00  0.00    -0.265 OA
ENDROOT
BRANCH   2   4
ATOM      4  C   UNL d   1     -51.252  26.710  35.453  0.00  0.00     0.085 A 
ATOM      5  C   UNL d   1     -52.054  26.657  35.643  0.00  0.00     0.021 A 
ATOM      6  C   UNL d   1     -52.282  26.357  36.383  0.00  0.00     0.019 A 
ATOM      7  C   UNL d   1     -51.720  26.114  36.924  0.00  0.00     0.064 A 
ATOM      8  C   UNL d   1     -50.910  26.169  36.729  0.00  0.00     0.019 A 
ATOM      9  C   UNL d   1     -50.682  26.469  35.990  0.00  0.00     0.021 A 
BRANCH   7  10
ATOM     10  N   UNL d   1     -51.944  25.819  37.651  0.00  0.00    -0.304 N 
BRANCH  10  11
ATOM     11  C   UNL d   1     -52.534  25.232  37.695  0.00  0.00     0.080 C 
ATOM     12  C   UNL d   1     -53.205  25.357  38.171  0.00  0.00     0.021 C 
ENDBRANCH  10  11
BRANCH  10  13
ATOM     13  C   UNL d   1     -51.593  26.095  38.335  0.00  0.00     0.080 C 
ATOM     14  C   UNL d   1     -52.057  26.231  38.999  0.00  0.00     0.021 C 
ENDBRANCH  10  13
ENDBRANCH   7  10
ENDBRANCH   2   4
BRANCH   1  15
ATOM     15  C   UNL d   1     -51.459  25.793  34.097  0.00  0.00     0.063 C 
BRANCH  15  16
ATOM     16  C   UNL d   1     -51.398  25.275  33.458  0.00  0.00     0.006 C 
BRANCH  16  17
ATOM     17  C   UNL d   1     -51.885  24.614  33.408  0.00  0.00     0.011 A 
ATOM     18  C   UNL d   1     -51.574  23.861  33.363  0.00  0.00     0.058 A 
ATOM     19 CL   UNL d   1     -50.773  23.764  33.367  0.00  0.00    -0.082 Cl
ATOM     20  C   UNL d   1     -52.068  23.192  33.312  0.00  0.00     0.011 A 
ATOM     21  C   UNL d   1     -52.872  23.276  33.307  0.00  0.00     0.001 A 
ATOM     22  C   UNL d   1     -53.194  24.041  33.353  0.00  0.00     0.000 A 
ATOM     23  C   UNL d   1     -52.711  24.697  33.403  0.00  0.00     0.001 A 
ENDBRANCH  16  17
ENDBRANCH  15  16
ENDBRANCH   1  15
TORSDOF 7
ENDMDL
MODEL 2
REMARK VINA RESULT:      61.0      4.988      6.783
REMARK  7 active torsions:
REMARK  status: ('A' for Active; 'I' for Inactive)
REMARK    1  A    between atoms: C_3  and  C_1 
REMARK    2  A    between atoms: C_6  and  C_1 
REMARK    3  A    between atoms: C_2  and  C_3 
REMARK       I    between atoms: N_4  and  C_2 
REMARK    4  A    between atoms: C_12  and  N_4 
REMARK    5  A    between atoms: N_7  and  C_5 
REMARK    6  A    between atoms: C_16  and  N_7 
REMARK    7  A    between atoms: C_17  and  N_7 
ROOT
ATOM      1  C   UNL d   1     -47.416  30.151  35.893  0.00  0.00     0.279 C 
ATOM      2  N   UNL d   1     -47.566  29.361  36.063  0.00  0.00    -0.208 NA
ATOM      3  O   UNL d   1     -46.953  30.595  36.418  0.00  0.00    -0.265 OA
ENDROOT
BRANCH   2   4
ATOM      4  C   UNL d   1     -48.024  28.921  35.544  0.00  0.00     0.085 A 
ATOM      5  C   UNL d   1     -48.785  28.688  35.766  0.00  0.00     0.021 A 
ATOM      6  C   UNL d   1     -49.248  28.243  35.241  0.00  0.00     0.019 A 
ATOM      7  C   UNL d   1     -48.958  28.033  34.506  0.00  0.00     0.064 A 
ATOM      8  C   UNL d   1     -48.188  28.270  34.284  0.00  0.00     0.019 A 
ATOM      9  C   UNL d   1     -47.725  28.715  34.809  0.00  0.00     0.021 A 
BRANCH   7  10
ATOM     10  N   UNL d   1     -49.413  27.595  33.989  0.00  0.00    -0.304 N 
BRANCH  10  11
ATOM     11  C   UNL d   1     -50.060  27.953  33.604  0.00  0.00     0.080 C 
ATOM     12  C   UNL d   1     -50.677  27.480  33.308  0.00  0.00     0.021 C 
ENDBRANCH  10  11
BRANCH  10  13
ATOM     13  C   UNL d   1     -49.239  26.811  33.848  0.00  0.00     0.080 C 
ATOM     14  C   UNL d   1     -49.767  26.351  33.418  0.00  0.00     0.021 C 
ENDBRANCH  10  13
ENDBRANCH   7  10
ENDBRANCH   2   4
BRANCH   1  15
ATOM     15  C   UNL d   1     -47.711  30.507  35.220  0.00  0.00     0.063 C 
BRANCH  15  16
ATOM     16  C   UNL d   1     -47.301  31.130  34.866  0.00  0.00     0.006 C 
BRANCH  16  17
ATOM     17  C   UNL d   1     -47.706  31.713  34.448  0.00  0.00     0.011 A 
ATOM     18  C   UNL d   1     -47.339  32.407  34.229  0.00  0.00     0.058 A 
ATOM     19 CL   UNL d   1     -46.565  32.525  34.425  0.00  0.00    -0.082 Cl
ATOM     20  C   UNL d   1     -47.748  32.997  33.806  0.00  0.00     0.011 A 
ATOM     21  C   UNL d   1     -48.524  32.892  33.604  0.00  0.00     0.001 A 
ATOM     22  C   UNL d   1     -48.903  32.185  33.825  0.00  0.00     0.000 A 
ATOM     23  C   UNL d   1     -48.502  31.608  34.239  0.00  0.00     0.001 A 
ENDBRANCH  16  17
ENDBRANCH  15  16
ENDBRANCH   1  15
TORSDOF 7
ENDMDL
