MODEL 1
REMARK VINA RESULT:      -9.0      0.000      0.000
REMARK  2 active torsions:
REMARK  status: ('A' for Active; 'I' for Inactive)
REMARK    1  A    between atoms: C_6  and  N_1 
REMARK    2  A    between atoms: C_14  and  C_13 
ROOT
ATOM      1  C   UNL d   1      52.901  33.811  53.739  0.00  0.00     0.070 A 
ATOM      2  C   UNL d   1      52.270  33.283  53.785  0.00  0.00     0.018 A 
ATOM      3  C   UNL d   1      52.852  34.471  53.246  0.00  0.00     0.018 A 
ATOM      4  C   UNL d   1      51.583  33.412  53.337  0.00  0.00     0.002 A 
ATOM      5  C   UNL d   1      52.171  34.606  52.796  0.00  0.00     0.002 A 
ATOM      6  C   UNL d   1      51.534  34.072  52.844  0.00  0.00     0.000 A 
ENDROOT
BRANCH   1   7
ATOM      7  N   UNL d   1      53.574  33.674  54.185  0.00  0.00    -0.242 N 
ATOM      8  C   UNL d   1      53.769  34.062  54.886  0.00  0.00     0.267 A 
ATOM      9  C   UNL d   1      54.489  33.754  55.148  0.00  0.00     0.066 A 
ATOM     10  O   UNL d   1      53.326  34.650  55.255  0.00  0.00    -0.267 OA
ATOM     11  C   UNL d   1      54.737  33.181  54.617  0.00  0.00     0.066 A 
ATOM     12  C   UNL d   1      54.172  33.130  54.021  0.00  0.00     0.267 A 
ATOM     13  O   UNL d   1      54.202  32.620  53.369  0.00  0.00    -0.267 OA
ENDBRANCH   1   7
BRANCH   6  14
ATOM     14  C   UNL d   1      50.858  34.208  52.396  0.00  0.00     0.000 C 
ATOM     15  C   UNL d   1      50.166  34.461  52.774  0.00  0.00     0.000 C 
ENDBRANCH   6  14
TORSDOF 2
ENDMDL
MODEL 2
REMARK VINA RESULT:      -8.9      2.469      3.507
REMARK  2 active torsions:
REMARK  status: ('A' for Active; 'I' for Inactive)
REMARK    1  A    between atoms: C_6  and  N_1 
REMARK    2  A    between atoms: C_14  and  C_13 
ROOT
ATOM      1  C   UNL d   1      53.794  31.959  53.770  0.00  0.00     0.070 A 
ATOM      2  C   UNL d   1      53.635  32.194  54.544  0.00  0.00     0.018 A 
ATOM      3  C   UNL d   1      54.382  32.340  53.335  0.00  0.00     0.018 A 
ATOM      4  C   UNL d   1      54.065  32.815  54.888  0.00  0.00     0.002 A 
ATOM      5  C   UNL d   1      54.814  32.959  53.671  0.00  0.00     0.002 A 
ATOM      6  C   UNL d   1      54.653  33.196  54.453  0.00  0.00     0.000 A 
ENDROOT
BRANCH   1   7
ATOM      7  N   UNL d   1      53.363  31.345  53.440  0.00  0.00    -0.242 N 
ATOM      8  C   UNL d   1      52.729  31.432  52.921  0.00  0.00     0.267 A 
ATOM      9  C   UNL d   1      52.461  30.675  52.729  0.00  0.00     0.066 A 
ATOM     10  O   UNL d   1      52.420  32.144  52.646  0.00  0.00    -0.267 OA
ATOM     11  C   UNL d   1      52.922  30.125  53.123  0.00  0.00     0.066 A 
ATOM     12  C   UNL d   1      53.482  30.538  53.564  0.00  0.00     0.267 A 
ATOM     13  O   UNL d   1      54.062  30.199  54.048  0.00  0.00    -0.267 OA
ENDBRANCH   1   7
BRANCH   6  14
ATOM     14  C   UNL d   1      55.085  33.813  54.785  0.00  0.00     0.000 C 
ATOM     15  C   UNL d   1      55.189  33.837  55.606  0.00  0.00     0.000 C 
ENDBRANCH   6  14
TORSDOF 2
ENDMDL
MODEL 3
REMARK VINA RESULT:      -8.4      1.323      3.272
REMARK  2 active torsions:
REMARK  status: ('A' for Active; 'I' for Inactive)
REMARK    1  A    between atoms: C_6  and  N_1 
REMARK    2  A    between atoms: C_14  and  C_13 
ROOT
ATOM      1  C   UNL d   1      52.629  33.654  53.673  0.00  0.00     0.070 A 
ATOM      2  C   UNL d   1      52.779  34.133  54.327  0.00  0.00     0.018 A 
ATOM      3  C   UNL d   1      53.115  33.005  53.518  0.00  0.00     0.018 A 
ATOM      4  C   UNL d   1      53.417  33.966  54.830  0.00  0.00     0.002 A 
ATOM      5  C   UNL d   1      53.752  32.833  54.015  0.00  0.00     0.002 A 
ATOM      6  C   UNL d   1      53.902  33.317  54.675  0.00  0.00     0.000 A 
ENDROOT
BRANCH   1   7
ATOM      7  N   UNL d   1      51.997  33.828  53.183  0.00  0.00    -0.242 N 
ATOM      8  C   UNL d   1      52.006  34.380  52.571  0.00  0.00     0.267 A 
ATOM      9  C   UNL d   1      51.256  34.378  52.224  0.00  0.00     0.066 A 
ATOM     10  O   UNL d   1      52.645  34.848  52.347  0.00  0.00    -0.267 OA
ATOM     11  C   UNL d   1      50.788  33.831  52.616  0.00  0.00     0.066 A 
ATOM     12  C   UNL d   1      51.245  33.490  53.210  0.00  0.00     0.267 A 
ATOM     13  O   UNL d   1      50.990  32.908  53.742  0.00  0.00    -0.267 OA
ENDBRANCH   1   7
BRANCH   6  14
ATOM     14  C   UNL d   1      54.537  33.144  55.168  0.00  0.00     0.000 C 
ATOM     15  C   UNL d   1      55.184  33.659  55.192  0.00  0.00     0.000 C 
ENDBRANCH   6  14
TORSDOF 2
ENDMDL
MODEL 4
REMARK VINA RESULT:      -8.3      1.607      2.555
REMARK  2 active torsions:
REMARK  status: ('A' for Active; 'I' for Inactive)
REMARK    1  A    between atoms: C_6  and  N_1 
REMARK    2  A    between atoms: C_14  and  C_13 
ROOT
ATOM      1  C   UNL d   1      52.969  33.144  53.587  0.00  0.00     0.070 A 
ATOM      2  C   UNL d   1      53.676  32.732  53.487  0.00  0.00     0.018 A 
ATOM      3  C   UNL d   1      52.249  32.768  53.444  0.00  0.00     0.018 A 
ATOM      4  C   UNL d   1      53.667  31.940  53.243  0.00  0.00     0.002 A 
ATOM      5  C   UNL d   1      52.232  31.978  53.200  0.00  0.00     0.002 A 
ATOM      6  C   UNL d   1      52.947  31.563  53.100  0.00  0.00     0.000 A 
ENDROOT
BRANCH   1   7
ATOM      7  N   UNL d   1      52.990  33.926  53.829  0.00  0.00    -0.242 N 
ATOM      8  C   UNL d   1      53.221  34.189  54.575  0.00  0.00     0.267 A 
ATOM      9  C   UNL d   1      53.158  35.013  54.578  0.00  0.00     0.066 A 
ATOM     10  O   UNL d   1      53.470  33.716  55.202  0.00  0.00    -0.267 OA
ATOM     11  C   UNL d   1      52.891  35.257  53.844  0.00  0.00     0.066 A 
ATOM     12  C   UNL d   1      52.786  34.586  53.378  0.00  0.00     0.267 A 
ATOM     13  O   UNL d   1      52.522  34.579  52.594  0.00  0.00    -0.267 OA
ENDBRANCH   1   7
BRANCH   6  14
ATOM     14  C   UNL d   1      52.928  30.777  52.857  0.00  0.00     0.000 C 
ATOM     15  C   UNL d   1      53.238  30.193  53.354  0.00  0.00     0.000 C 
ENDBRANCH   6  14
TORSDOF 2
ENDMDL
