MODEL 1
REMARK VINA RESULT:      -8.3      0.000      0.000
REMARK  3 active torsions:
REMARK  status: ('A' for Active; 'I' for Inactive)
REMARK    1  A    between atoms: N_3  and  C_1 
REMARK       I    between atoms: C_5  and  N_3 
REMARK    2  A    between atoms: C_4  and  C_5 
REMARK    3  A    between atoms: C_12  and  C_6 
ROOT
ATOM      1  C   UNL d   1     -46.696  12.762  23.102  0.00  0.00     0.249 A 
ATOM      2  N   UNL d   1     -47.509  12.806  22.953  0.00  0.00    -0.210 NA
ATOM      3  C   UNL d   1     -47.700  13.606  22.811  0.00  0.00     0.091 A 
ATOM      4  S   UNL d   1     -46.374  13.519  23.056  0.00  0.00    -0.033 SA
ATOM      5  C   UNL d   1     -47.006  14.047  22.873  0.00  0.00     0.059 A 
ENDROOT
BRANCH   1   6
ATOM      6  N   UNL d   1     -46.277  12.072  23.269  0.00  0.00    -0.337 NA
ATOM      7  C   UNL d   1     -46.099  11.296  23.484  0.00  0.00     0.355 C 
ATOM      8  O   UNL d   1     -46.708  10.772  23.698  0.00  0.00    -0.249 OA
BRANCH   7   9
ATOM      9  C   UNL d   1     -45.311  11.034  23.488  0.00  0.00     0.197 A 
ATOM     10  O   UNL d   1     -44.638  11.486  23.283  0.00  0.00    -0.205 OA
ATOM     11  N   UNL d   1     -43.970  11.001  23.367  0.00  0.00    -0.124 NA
ATOM     12  C   UNL d   1     -44.225  10.254  23.621  0.00  0.00     0.130 A 
ATOM     13  C   UNL d   1     -45.052  10.268  23.698  0.00  0.00     0.056 A 
ENDBRANCH   7   9
ENDBRANCH   1   6
BRANCH   3  14
ATOM     14  C   UNL d   1     -48.446  13.902  22.641  0.00  0.00     0.018 A 
ATOM     15  C   UNL d   1     -48.846  13.648  21.974  0.00  0.00     0.002 A 
ATOM     16  C   UNL d   1     -49.595  13.944  21.801  0.00  0.00     0.000 A 
ATOM     17  C   UNL d   1     -49.938  14.498  22.305  0.00  0.00     0.000 A 
ATOM     18  C   UNL d   1     -49.540  14.758  22.978  0.00  0.00     0.000 A 
ATOM     19  C   UNL d   1     -50.692  14.800  22.136  0.00  0.00     0.000 C 
ATOM     20  C   UNL d   1     -48.786  14.457  23.148  0.00  0.00     0.002 A 
ENDBRANCH   3  14
TORSDOF 3
ENDMDL
MODEL 2
REMARK VINA RESULT:      -7.7      1.650      2.012
REMARK  3 active torsions:
REMARK  status: ('A' for Active; 'I' for Inactive)
REMARK    1  A    between atoms: N_3  and  C_1 
REMARK       I    between atoms: C_5  and  N_3 
REMARK    2  A    between atoms: C_4  and  C_5 
REMARK    3  A    between atoms: C_12  and  C_6 
ROOT
ATOM      1  C   UNL d   1     -46.647  12.870  22.637  0.00  0.00     0.249 A 
ATOM      2  N   UNL d   1     -47.288  13.098  22.166  0.00  0.00    -0.210 NA
ATOM      3  C   UNL d   1     -47.989  12.896  22.573  0.00  0.00     0.091 A 
ATOM      4  S   UNL d   1     -46.931  12.529  23.330  0.00  0.00    -0.033 SA
ATOM      5  C   UNL d   1     -47.773  12.546  23.288  0.00  0.00     0.059 A 
ENDROOT
BRANCH   1   6
ATOM      6  N   UNL d   1     -45.852  12.969  22.441  0.00  0.00    -0.337 NA
ATOM      7  C   UNL d   1     -45.128  13.318  22.256  0.00  0.00     0.355 C 
ATOM      8  O   UNL d   1     -45.060  14.145  22.218  0.00  0.00    -0.249 OA
BRANCH   7   9
ATOM      9  C   UNL d   1     -44.462  12.844  22.106  0.00  0.00     0.197 A 
ATOM     10  O   UNL d   1     -44.230  12.166  22.537  0.00  0.00    -0.205 OA
ATOM     11  N   UNL d   1     -43.535  11.871  22.193  0.00  0.00    -0.124 NA
ATOM     12  C   UNL d   1     -43.337  12.360  21.554  0.00  0.00     0.130 A 
ATOM     13  C   UNL d   1     -43.905  12.963  21.495  0.00  0.00     0.056 A 
ENDBRANCH   7   9
ENDBRANCH   1   6
BRANCH   3  14
ATOM     14  C   UNL d   1     -48.755  13.023  22.309  0.00  0.00     0.018 A 
ATOM     15  C   UNL d   1     -49.074  13.776  22.320  0.00  0.00     0.002 A 
ATOM     16  C   UNL d   1     -49.843  13.905  22.056  0.00  0.00     0.000 A 
ATOM     17  C   UNL d   1     -50.289  13.269  21.780  0.00  0.00     0.000 A 
ATOM     18  C   UNL d   1     -49.973  12.508  21.767  0.00  0.00     0.000 A 
ATOM     19  C   UNL d   1     -51.064  13.393  21.513  0.00  0.00     0.000 C 
ATOM     20  C   UNL d   1     -49.198  12.384  22.035  0.00  0.00     0.002 A 
ENDBRANCH   3  14
TORSDOF 3
ENDMDL
MODEL 3
REMARK VINA RESULT:      -7.3      2.023      4.977
REMARK  3 active torsions:
REMARK  status: ('A' for Active; 'I' for Inactive)
REMARK    1  A    between atoms: N_3  and  C_1 
REMARK       I    between atoms: C_5  and  N_3 
REMARK    2  A    between atoms: C_4  and  C_5 
REMARK    3  A    between atoms: C_12  and  C_6 
ROOT
ATOM      1  C   UNL d   1     -47.829  13.814  22.868  0.00  0.00     0.249 A 
ATOM      2  N   UNL d   1     -47.642  13.021  23.012  0.00  0.00    -0.210 NA
ATOM      3  C   UNL d   1     -46.811  12.958  23.060  0.00  0.00     0.091 A 
ATOM      4  S   UNL d   1     -47.132  14.249  22.824  0.00  0.00    -0.033 SA
ATOM      5  C   UNL d   1     -46.494  13.711  22.945  0.00  0.00     0.059 A 
ENDROOT
BRANCH   1   6
ATOM      6  N   UNL d   1     -48.591  14.117  22.781  0.00  0.00    -0.337 NA
ATOM      7  C   UNL d   1     -49.352  14.253  22.495  0.00  0.00     0.355 C 
ATOM      8  O   UNL d   1     -49.631  13.837  21.832  0.00  0.00    -0.249 OA
BRANCH   7   9
ATOM      9  C   UNL d   1     -49.845  14.808  22.869  0.00  0.00     0.197 A 
ATOM     10  O   UNL d   1     -49.618  15.561  23.153  0.00  0.00    -0.205 OA
ATOM     11  N   UNL d   1     -50.288  15.922  23.483  0.00  0.00    -0.124 NA
ATOM     12  C   UNL d   1     -50.926  15.398  23.406  0.00  0.00     0.130 A 
ATOM     13  C   UNL d   1     -50.660  14.709  23.028  0.00  0.00     0.056 A 
ENDBRANCH   7   9
ENDBRANCH   1   6
BRANCH   3  14
ATOM     14  C   UNL d   1     -46.385  12.271  23.197  0.00  0.00     0.018 A 
ATOM     15  C   UNL d   1     -46.744  11.630  23.558  0.00  0.00     0.002 A 
ATOM     16  C   UNL d   1     -46.317  10.939  23.697  0.00  0.00     0.000 A 
ATOM     17  C   UNL d   1     -45.526  10.898  23.469  0.00  0.00     0.000 A 
ATOM     18  C   UNL d   1     -45.159  11.541  23.104  0.00  0.00     0.000 A 
ATOM     19  C   UNL d   1     -45.092  10.205  23.606  0.00  0.00     0.000 C 
ATOM     20  C   UNL d   1     -45.594  12.234  22.967  0.00  0.00     0.002 A 
ENDBRANCH   3  14
TORSDOF 3
ENDMDL
MODEL 4
REMARK VINA RESULT:      -6.8      7.803      9.114
REMARK  3 active torsions:
REMARK  status: ('A' for Active; 'I' for Inactive)
REMARK    1  A    between atoms: N_3  and  C_1 
REMARK       I    between atoms: C_5  and  N_3 
REMARK    2  A    between atoms: C_4  and  C_5 
REMARK    3  A    between atoms: C_12  and  C_6 
ROOT
ATOM      1  C   UNL d   1     -40.454  14.825  19.807  0.00  0.00     0.249 A 
ATOM      2  N   UNL d   1     -39.851  14.480  20.256  0.00  0.00    -0.210 NA
ATOM      3  C   UNL d   1     -39.960  14.711  21.051  0.00  0.00     0.091 A 
ATOM      4  S   UNL d   1     -40.939  15.267  20.304  0.00  0.00    -0.033 SA
ATOM      5  C   UNL d   1     -40.627  15.195  21.084  0.00  0.00     0.059 A 
ENDROOT
BRANCH   1   6
ATOM      6  N   UNL d   1     -40.552  14.738  18.993  0.00  0.00    -0.337 NA
ATOM      7  C   UNL d   1     -40.624  14.400  18.244  0.00  0.00     0.355 C 
ATOM      8  O   UNL d   1     -40.578  13.576  18.150  0.00  0.00    -0.249 OA
BRANCH   7   9
ATOM      9  C   UNL d   1     -40.744  14.883  17.578  0.00  0.00     0.197 A 
ATOM     10  O   UNL d   1     -41.481  15.080  17.234  0.00  0.00    -0.205 OA
ATOM     11  N   UNL d   1     -41.335  15.573  16.584  0.00  0.00    -0.124 NA
ATOM     12  C   UNL d   1     -40.516  15.682  16.523  0.00  0.00     0.130 A 
ATOM     13  C   UNL d   1     -40.145  15.260  17.134  0.00  0.00     0.056 A 
ENDBRANCH   7   9
ENDBRANCH   1   6
BRANCH   3  14
ATOM     14  C   UNL d   1     -39.488  14.496  21.687  0.00  0.00     0.018 A 
ATOM     15  C   UNL d   1     -39.078  15.066  22.106  0.00  0.00     0.002 A 
ATOM     16  C   UNL d   1     -38.604  14.852  22.744  0.00  0.00     0.000 A 
ATOM     17  C   UNL d   1     -38.546  14.058  22.957  0.00  0.00     0.000 A 
ATOM     18  C   UNL d   1     -38.956  13.479  22.539  0.00  0.00     0.000 A 
ATOM     19  C   UNL d   1     -38.070  13.837  23.599  0.00  0.00     0.000 C 
ATOM     20  C   UNL d   1     -39.432  13.700  21.897  0.00  0.00     0.002 A 
ENDBRANCH   3  14
TORSDOF 3
ENDMDL
MODEL 5
REMARK VINA RESULT:      -6.4      1.933      4.864
REMARK  3 active torsions:
REMARK  status: ('A' for Active; 'I' for Inactive)
REMARK    1  A    between atoms: N_3  and  C_1 
REMARK       I    between atoms: C_5  and  N_3 
REMARK    2  A    between atoms: C_4  and  C_5 
REMARK    3  A    between atoms: C_12  and  C_6 
ROOT
ATOM      1  C   UNL d   1     -47.530  12.986  22.905  0.00  0.00     0.249 A 
ATOM      2  N   UNL d   1     -47.188  12.273  23.148  0.00  0.00    -0.210 NA
ATOM      3  C   UNL d   1     -46.366  12.323  23.010  0.00  0.00     0.091 A 
ATOM      4  S   UNL d   1     -46.939  13.482  22.617  0.00  0.00    -0.033 SA
ATOM      5  C   UNL d   1     -46.210  13.065  22.684  0.00  0.00     0.059 A 
ENDROOT
BRANCH   1   6
ATOM      6  N   UNL d   1     -48.333  13.169  22.945  0.00  0.00    -0.337 NA
ATOM      7  C   UNL d   1     -49.038  13.582  23.056  0.00  0.00     0.355 C 
ATOM      8  O   UNL d   1     -49.023  14.378  23.296  0.00  0.00    -0.249 OA
BRANCH   7   9
ATOM      9  C   UNL d   1     -49.767  13.205  22.929  0.00  0.00     0.197 A 
ATOM     10  O   UNL d   1     -50.059  12.923  22.198  0.00  0.00    -0.205 OA
ATOM     11  N   UNL d   1     -50.805  12.588  22.332  0.00  0.00    -0.124 NA
ATOM     12  C   UNL d   1     -50.977  12.661  23.140  0.00  0.00     0.130 A 
ATOM     13  C   UNL d   1     -50.341  13.041  23.514  0.00  0.00     0.056 A 
ENDBRANCH   7   9
ENDBRANCH   1   6
BRANCH   3  14
ATOM     14  C   UNL d   1     -45.813  11.739  23.169  0.00  0.00     0.018 A 
ATOM     15  C   UNL d   1     -46.042  11.045  23.537  0.00  0.00     0.002 A 
ATOM     16  C   UNL d   1     -45.487  10.458  23.698  0.00  0.00     0.000 A 
ATOM     17  C   UNL d   1     -44.699  10.575  23.486  0.00  0.00     0.000 A 
ATOM     18  C   UNL d   1     -44.462  11.273  23.115  0.00  0.00     0.000 A 
ATOM     19  C   UNL d   1     -44.137   9.988  23.645  0.00  0.00     0.000 C 
ATOM     20  C   UNL d   1     -45.025  11.860  22.955  0.00  0.00     0.002 A 
ENDBRANCH   3  14
TORSDOF 3
ENDMDL
MODEL 6
REMARK VINA RESULT:      -6.3      2.291      4.822
REMARK  3 active torsions:
REMARK  status: ('A' for Active; 'I' for Inactive)
REMARK    1  A    between atoms: N_3  and  C_1 
REMARK       I    between atoms: C_5  and  N_3 
REMARK    2  A    between atoms: C_4  and  C_5 
REMARK    3  A    between atoms: C_12  and  C_6 
ROOT
ATOM      1  C   UNL d   1     -48.357  12.751  23.086  0.00  0.00     0.249 A 
ATOM      2  N   UNL d   1     -47.708  12.993  22.633  0.00  0.00    -0.210 NA
ATOM      3  C   UNL d   1     -47.025  12.633  22.951  0.00  0.00     0.091 A 
ATOM      4  S   UNL d   1     -48.094  12.246  23.681  0.00  0.00    -0.033 SA
ATOM      5  C   UNL d   1     -47.259  12.173  23.595  0.00  0.00     0.059 A 
ENDROOT
BRANCH   1   6
ATOM      6  N   UNL d   1     -49.139  12.979  22.960  0.00  0.00    -0.337 NA
ATOM      7  C   UNL d   1     -49.959  12.952  22.871  0.00  0.00     0.355 C 
ATOM      8  O   UNL d   1     -50.364  12.230  22.942  0.00  0.00    -0.249 OA
BRANCH   7   9
ATOM      9  C   UNL d   1     -50.384  13.648  22.710  0.00  0.00     0.197 A 
ATOM     10  O   UNL d   1     -50.593  14.240  23.262  0.00  0.00    -0.205 OA
ATOM     11  N   UNL d   1     -51.013  14.829  22.857  0.00  0.00    -0.124 NA
ATOM     12  C   UNL d   1     -51.064  14.607  22.060  0.00  0.00     0.130 A 
ATOM     13  C   UNL d   1     -50.678  13.878  21.963  0.00  0.00     0.056 A 
ENDBRANCH   7   9
ENDBRANCH   1   6
BRANCH   3  14
ATOM     14  C   UNL d   1     -46.258  12.720  22.673  0.00  0.00     0.018 A 
ATOM     15  C   UNL d   1     -45.763  12.071  22.625  0.00  0.00     0.002 A 
ATOM     16  C   UNL d   1     -44.992  12.156  22.346  0.00  0.00     0.000 A 
ATOM     17  C   UNL d   1     -44.725  12.901  22.116  0.00  0.00     0.000 A 
ATOM     18  C   UNL d   1     -45.220  13.559  22.161  0.00  0.00     0.000 A 
ATOM     19  C   UNL d   1     -43.951  12.993  21.834  0.00  0.00     0.000 C 
ATOM     20  C   UNL d   1     -45.994  13.467  22.443  0.00  0.00     0.002 A 
ENDBRANCH   3  14
TORSDOF 3
ENDMDL
MODEL 7
REMARK VINA RESULT:      -6.3      8.074      9.511
REMARK  3 active torsions:
REMARK  status: ('A' for Active; 'I' for Inactive)
REMARK    1  A    between atoms: N_3  and  C_1 
REMARK       I    between atoms: C_5  and  N_3 
REMARK    2  A    between atoms: C_4  and  C_5 
REMARK    3  A    between atoms: C_12  and  C_6 
ROOT
ATOM      1  C   UNL d   1     -39.967  14.425  19.412  0.00  0.00     0.249 A 
ATOM      2  N   UNL d   1     -39.340  14.279  18.893  0.00  0.00    -0.210 NA
ATOM      3  C   UNL d   1     -39.653  14.229  18.121  0.00  0.00     0.091 A 
ATOM      4  S   UNL d   1     -40.667  14.468  18.981  0.00  0.00    -0.033 SA
ATOM      5  C   UNL d   1     -40.468  14.345  18.171  0.00  0.00     0.059 A 
ENDROOT
BRANCH   1   6
ATOM      6  N   UNL d   1     -39.900  14.514  20.229  0.00  0.00    -0.337 NA
ATOM      7  C   UNL d   1     -40.011  14.787  21.000  0.00  0.00     0.355 C 
ATOM      8  O   UNL d   1     -40.548  15.402  21.152  0.00  0.00    -0.249 OA
BRANCH   7   9
ATOM      9  C   UNL d   1     -39.585  14.448  21.628  0.00  0.00     0.197 A 
ATOM     10  O   UNL d   1     -39.659  13.664  21.910  0.00  0.00    -0.205 OA
ATOM     11  N   UNL d   1     -39.128  13.569  22.540  0.00  0.00    -0.124 NA
ATOM     12  C   UNL d   1     -38.728  14.287  22.650  0.00  0.00     0.130 A 
ATOM     13  C   UNL d   1     -39.006  14.834  22.090  0.00  0.00     0.056 A 
ENDBRANCH   7   9
ENDBRANCH   1   6
BRANCH   3  14
ATOM     14  C   UNL d   1     -39.227  14.090  17.434  0.00  0.00     0.018 A 
ATOM     15  C   UNL d   1     -39.229  14.642  16.830  0.00  0.00     0.002 A 
ATOM     16  C   UNL d   1     -38.802  14.504  16.140  0.00  0.00     0.000 A 
ATOM     17  C   UNL d   1     -38.372  13.805  16.062  0.00  0.00     0.000 A 
ATOM     18  C   UNL d   1     -38.366  13.244  16.667  0.00  0.00     0.000 A 
ATOM     19  C   UNL d   1     -37.940  13.660  15.369  0.00  0.00     0.000 C 
ATOM     20  C   UNL d   1     -38.798  13.389  17.359  0.00  0.00     0.002 A 
ENDBRANCH   3  14
TORSDOF 3
ENDMDL
MODEL 8
REMARK VINA RESULT:      -6.0      7.574      8.398
REMARK  3 active torsions:
REMARK  status: ('A' for Active; 'I' for Inactive)
REMARK    1  A    between atoms: N_3  and  C_1 
REMARK       I    between atoms: C_5  and  N_3 
REMARK    2  A    between atoms: C_4  and  C_5 
REMARK    3  A    between atoms: C_12  and  C_6 
ROOT
ATOM      1  C   UNL d   1     -40.013  14.440  20.983  0.00  0.00     0.249 A 
ATOM      2  N   UNL d   1     -39.761  14.599  20.211  0.00  0.00    -0.210 NA
ATOM      3  C   UNL d   1     -40.440  14.689  19.733  0.00  0.00     0.091 A 
ATOM      4  S   UNL d   1     -40.836  14.429  20.998  0.00  0.00    -0.033 SA
ATOM      5  C   UNL d   1     -41.102  14.585  20.214  0.00  0.00     0.059 A 
ENDROOT
BRANCH   1   6
ATOM      6  N   UNL d   1     -39.518  14.313  21.630  0.00  0.00    -0.337 NA
ATOM      7  C   UNL d   1     -39.073  14.439  22.313  0.00  0.00     0.355 C 
ATOM      8  O   UNL d   1     -39.051  15.192  22.664  0.00  0.00    -0.249 OA
BRANCH   7   9
ATOM      9  C   UNL d   1     -38.646  13.814  22.654  0.00  0.00     0.197 A 
ATOM     10  O   UNL d   1     -38.315  13.161  22.250  0.00  0.00    -0.205 OA
ATOM     11  N   UNL d   1     -37.940  12.678  22.809  0.00  0.00    -0.124 NA
ATOM     12  C   UNL d   1     -38.035  13.027  23.555  0.00  0.00     0.130 A 
ATOM     13  C   UNL d   1     -38.470  13.728  23.467  0.00  0.00     0.056 A 
ENDBRANCH   7   9
ENDBRANCH   1   6
BRANCH   3  14
ATOM     14  C   UNL d   1     -40.448  14.852  18.929  0.00  0.00     0.018 A 
ATOM     15  C   UNL d   1     -40.295  14.258  18.388  0.00  0.00     0.002 A 
ATOM     16  C   UNL d   1     -40.302  14.420  17.581  0.00  0.00     0.000 A 
ATOM     17  C   UNL d   1     -40.465  15.186  17.322  0.00  0.00     0.000 A 
ATOM     18  C   UNL d   1     -40.620  15.789  17.863  0.00  0.00     0.000 A 
ATOM     19  C   UNL d   1     -40.474  15.354  16.510  0.00  0.00     0.000 C 
ATOM     20  C   UNL d   1     -40.611  15.620  18.675  0.00  0.00     0.002 A 
ENDBRANCH   3  14
TORSDOF 3
ENDMDL
