MODEL 1
REMARK VINA RESULT:       4.2      0.000      0.000
REMARK  2 active torsions:
REMARK  status: ('A' for Active; 'I' for Inactive)
REMARK    1  A    between atoms: C_6  and  C_1 
REMARK    2  A    between atoms: C_8  and  C_5 
ROOT
ATOM      1  C   UNL d   1     -51.356  25.741  33.322  0.00  0.00     0.169 A 
ATOM      2  C   UNL d   1     -52.095  25.361  33.330  0.00  0.00     0.048 A 
ATOM      3  N   UNL d   1     -51.148  24.428  33.307  0.00  0.00    -0.148 NA
ATOM      4  N   UNL d   1     -50.767  25.160  33.308  0.00  0.00    -0.142 NA
ATOM      5  C   UNL d   1     -51.966  24.562  33.321  0.00  0.00     0.105 A 
ENDROOT
BRANCH   1   6
ATOM      6  C   UNL d   1     -51.227  26.556  33.328  0.00  0.00     0.231 C 
ATOM      7  O   UNL d   1     -51.865  27.078  33.311  0.00  0.00    -0.643 OA
ATOM      8  O   UNL d   1     -50.454  26.848  33.350  0.00  0.00    -0.643 OA
ENDBRANCH   1   6
BRANCH   5   9
ATOM      9  C   UNL d   1     -52.554  23.980  33.325  0.00  0.00     0.019 C 
ATOM     10  C   UNL d   1     -52.348  23.189  33.332  0.00  0.00     0.002 C 
ATOM     11  C   UNL d   1     -53.346  24.200  33.322  0.00  0.00     0.002 C 
ENDBRANCH   5   9
TORSDOF 2
ENDMDL
MODEL 2
REMARK VINA RESULT:       5.7      1.847      2.833
REMARK  2 active torsions:
REMARK  status: ('A' for Active; 'I' for Inactive)
REMARK    1  A    between atoms: C_6  and  C_1 
REMARK    2  A    between atoms: C_8  and  C_5 
ROOT
ATOM      1  C   UNL d   1     -51.914  24.496  33.399  0.00  0.00     0.169 A 
ATOM      2  C   UNL d   1     -51.231  24.968  33.399  0.00  0.00     0.048 A 
ATOM      3  N   UNL d   1     -52.288  25.769  33.306  0.00  0.00    -0.148 NA
ATOM      4  N   UNL d   1     -52.573  24.995  33.342  0.00  0.00    -0.142 NA
ATOM      5  C   UNL d   1     -51.460  25.742  33.342  0.00  0.00     0.105 A 
ENDROOT
BRANCH   1   6
ATOM      6  C   UNL d   1     -51.938  23.673  33.448  0.00  0.00     0.231 C 
ATOM      7  O   UNL d   1     -51.253  23.229  33.332  0.00  0.00    -0.643 OA
ATOM      8  O   UNL d   1     -52.654  23.293  33.615  0.00  0.00    -0.643 OA
ENDBRANCH   1   6
BRANCH   5   9
ATOM      9  C   UNL d   1     -50.952  26.395  33.324  0.00  0.00     0.019 C 
ATOM     10  C   UNL d   1     -50.142  26.285  33.324  0.00  0.00     0.002 C 
ATOM     11  C   UNL d   1     -51.265  27.154  33.306  0.00  0.00     0.002 C 
ENDBRANCH   5   9
TORSDOF 2
ENDMDL
