MODEL 1
REMARK VINA RESULT:      30.2      0.000      0.000
REMARK  5 active torsions:
REMARK  status: ('A' for Active; 'I' for Inactive)
REMARK    1  A    between atoms: N_2  and  C_1 
REMARK    2  A    between atoms: N_3  and  C_1 
REMARK       I    between atoms: C_6  and  N_3 
REMARK    3  A    between atoms: C_12  and  C_6 
REMARK    4  A    between atoms: O_11  and  C_12 
REMARK    5  A    between atoms: C_13  and  O_11 
ROOT
ATOM      1  C   UNL d   1     -56.678 -98.765 -44.404  0.00  0.00     0.209 C 
ATOM      2  S   UNL d   1     -56.494 -98.761 -45.201  0.00  0.00    -0.038 SA
ENDROOT
BRANCH   1   3
ATOM      3  N   UNL d   1     -57.474 -98.778 -44.173  0.00  0.00    -0.282 N 
ATOM      4  C   UNL d   1     -58.126 -98.773 -44.670  0.00  0.00     0.066 A 
ATOM      5  C   UNL d   1     -58.806 -98.790 -44.208  0.00  0.00     0.018 A 
ATOM      6  C   UNL d   1     -58.185 -98.756 -45.494  0.00  0.00     0.018 A 
ATOM      7  C   UNL d   1     -59.548 -98.790 -44.568  0.00  0.00     0.002 A 
ATOM      8  C   UNL d   1     -58.574 -98.805 -43.425  0.00  0.00     0.021 A 
ATOM      9  C   UNL d   1     -59.617 -98.772 -45.401  0.00  0.00     0.000 A 
ATOM     10  C   UNL d   1     -58.937 -98.755 -45.863  0.00  0.00     0.002 A 
ATOM     11  C   UNL d   1     -57.750 -98.798 -43.399  0.00  0.00     0.082 A 
ENDBRANCH   1   3
BRANCH   1  12
ATOM     12  N   UNL d   1     -56.084 -98.756 -43.842  0.00  0.00    -0.178 NA
ATOM     13  C   UNL d   1     -55.411 -99.228 -43.942  0.00  0.00     0.306 C 
ATOM     14  O   UNL d   1     -54.815 -99.216 -43.372  0.00  0.00    -0.263 OA
BRANCH  13  15
ATOM     15  C   UNL d   1     -55.340 -99.702 -44.601  0.00  0.00     0.185 C 
BRANCH  15  16
ATOM     16  O   UNL d   1     -54.719-100.241 -44.653  0.00  0.00    -0.300 OA
BRANCH  16  17
ATOM     17  C   UNL d   1     -54.866-101.048 -44.522  0.00  0.00     0.100 A 
ATOM     18  C   UNL d   1     -55.160-101.510 -45.129  0.00  0.00     0.025 A 
ATOM     19  C   UNL d   1     -55.307-102.313 -45.003  0.00  0.00     0.002 A 
ATOM     20  C   UNL d   1     -55.157-102.647 -44.261  0.00  0.00     0.000 A 
ATOM     21  C   UNL d   1     -54.861-102.179 -43.652  0.00  0.00     0.002 A 
ATOM     22  C   UNL d   1     -54.713-101.377 -43.778  0.00  0.00     0.025 A 
ENDBRANCH  16  17
ENDBRANCH  15  16
ENDBRANCH  13  15
ENDBRANCH   1  12
TORSDOF 5
ENDMDL
MODEL 2
REMARK VINA RESULT:      32.6      0.742      1.402
REMARK  5 active torsions:
REMARK  status: ('A' for Active; 'I' for Inactive)
REMARK    1  A    between atoms: N_2  and  C_1 
REMARK    2  A    between atoms: N_3  and  C_1 
REMARK       I    between atoms: C_6  and  N_3 
REMARK    3  A    between atoms: C_12  and  C_6 
REMARK    4  A    between atoms: O_11  and  C_12 
REMARK    5  A    between atoms: C_13  and  O_11 
ROOT
ATOM      1  C   UNL d   1     -56.850 -98.801 -44.076  0.00  0.00     0.209 C 
ATOM      2  S   UNL d   1     -56.766 -98.839 -43.263  0.00  0.00    -0.038 SA
ENDROOT
BRANCH   1   3
ATOM      3  N   UNL d   1     -57.612 -98.796 -44.403  0.00  0.00    -0.282 N 
ATOM      4  C   UNL d   1     -58.320 -98.782 -43.990  0.00  0.00     0.066 A 
ATOM      5  C   UNL d   1     -58.938 -98.783 -44.532  0.00  0.00     0.018 A 
ATOM      6  C   UNL d   1     -58.480 -98.768 -43.179  0.00  0.00     0.018 A 
ATOM      7  C   UNL d   1     -59.718 -98.770 -44.266  0.00  0.00     0.002 A 
ATOM      8  C   UNL d   1     -58.612 -98.798 -45.281  0.00  0.00     0.021 A 
ATOM      9  C   UNL d   1     -59.889 -98.756 -43.448  0.00  0.00     0.000 A 
ATOM     10  C   UNL d   1     -59.272 -98.755 -42.906  0.00  0.00     0.002 A 
ATOM     11  C   UNL d   1     -57.791 -98.806 -45.206  0.00  0.00     0.082 A 
ENDBRANCH   1   3
BRANCH   1  12
ATOM     12  N   UNL d   1     -56.192 -98.767 -44.560  0.00  0.00    -0.178 NA
ATOM     13  C   UNL d   1     -55.613 -99.357 -44.515  0.00  0.00     0.306 C 
ATOM     14  O   UNL d   1     -54.951 -99.319 -45.004  0.00  0.00    -0.263 OA
BRANCH  13  15
ATOM     15  C   UNL d   1     -55.698 -99.972 -43.986  0.00  0.00     0.185 C 
BRANCH  15  16
ATOM     16  O   UNL d   1     -55.075-100.499 -43.866  0.00  0.00    -0.300 OA
BRANCH  16  17
ATOM     17  C   UNL d   1     -55.121-101.265 -44.184  0.00  0.00     0.100 A 
ATOM     18  C   UNL d   1     -54.725-101.879 -43.817  0.00  0.00     0.025 A 
ATOM     19  C   UNL d   1     -54.768-102.642 -44.129  0.00  0.00     0.002 A 
ATOM     20  C   UNL d   1     -55.211-102.783 -44.813  0.00  0.00     0.000 A 
ATOM     21  C   UNL d   1     -55.608-102.162 -45.180  0.00  0.00     0.002 A 
ATOM     22  C   UNL d   1     -55.565-101.399 -44.868  0.00  0.00     0.025 A 
ENDBRANCH  16  17
ENDBRANCH  15  16
ENDBRANCH  13  15
ENDBRANCH   1  12
TORSDOF 5
ENDMDL
