MODEL 1
REMARK VINA RESULT:      66.5      0.000      0.000
REMARK  7 active torsions:
REMARK  status: ('A' for Active; 'I' for Inactive)
REMARK    1  A    between atoms: C_3  and  N_1 
REMARK       I    between atoms: C_2  and  N_4 
REMARK    2  A    between atoms: C_11  and  C_2 
REMARK    3  A    between atoms: N_4  and  C_12 
REMARK    4  A    between atoms: O_5  and  C_11 
REMARK    5  A    between atoms: C_6  and  O_5 
REMARK    6  A    between atoms: O_15  and  C_8 
REMARK    7  A    between atoms: C_20  and  O_15 
ROOT
ATOM      1  C   UNL d   1     -55.756 -99.093 -43.455  0.00  0.00     0.353 C 
ATOM      2  N   UNL d   1     -56.330 -99.051 -44.044  0.00  0.00    -0.363 NA
ATOM      3  O   UNL d   1     -55.955 -98.924 -42.672  0.00  0.00    -0.249 OA
ENDROOT
BRANCH   1   4
ATOM      4  C   UNL d   1     -54.982 -99.302 -43.640  0.00  0.00     0.199 C 
BRANCH   4   5
ATOM      5  O   UNL d   1     -54.715-100.076 -43.511  0.00  0.00    -0.297 OA
BRANCH   5   6
ATOM      6  C   UNL d   1     -54.791-100.648 -44.098  0.00  0.00     0.123 A 
ATOM      7  C   UNL d   1     -54.935-101.441 -43.891  0.00  0.00     0.123 A 
ATOM      8  C   UNL d   1     -55.011-102.014 -44.477  0.00  0.00     0.027 A 
ATOM      9  C   UNL d   1     -54.945-101.800 -45.270  0.00  0.00     0.002 A 
ATOM     10  C   UNL d   1     -54.802-101.015 -45.475  0.00  0.00     0.002 A 
ATOM     11  C   UNL d   1     -54.725-100.434 -44.890  0.00  0.00     0.027 A 
BRANCH   7  12
ATOM     12  O   UNL d   1     -55.001-101.653 -43.090  0.00  0.00    -0.303 OA
BRANCH  12  13
ATOM     13  C   UNL d   1     -55.109-102.445 -42.883  0.00  0.00     0.123 C 
ATOM     14  C   UNL d   1     -55.859-102.721 -42.682  0.00  0.00     0.029 C 
ENDBRANCH  12  13
ENDBRANCH   7  12
ENDBRANCH   5   6
ENDBRANCH   4   5
ENDBRANCH   1   4
BRANCH   2  15
ATOM     15  C   UNL d   1     -56.897 -99.012 -44.638  0.00  0.00     0.135 A 
ATOM     16  C   UNL d   1     -57.686 -99.167 -44.474  0.00  0.00     0.034 A 
ATOM     17  C   UNL d   1     -58.254 -99.127 -45.070  0.00  0.00     0.020 A 
ATOM     18  C   UNL d   1     -58.032 -98.930 -45.841  0.00  0.00     0.064 A 
ATOM     19  C   UNL d   1     -57.241 -98.773 -46.014  0.00  0.00     0.020 A 
ATOM     20  C   UNL d   1     -56.663 -98.811 -45.417  0.00  0.00     0.034 A 
BRANCH  18  21
ATOM     21  N   UNL d   1     -58.599 -98.891 -46.436  0.00  0.00    -0.304 N 
ATOM     22  C   UNL d   1     -58.368 -98.945 -47.227  0.00  0.00     0.080 A 
ATOM     23  C   UNL d   1     -58.928 -98.907 -47.819  0.00  0.00     0.019 A 
ATOM     24  C   UNL d   1     -59.729 -98.812 -47.630  0.00  0.00     0.003 A 
ATOM     25  C   UNL d   1     -59.959 -98.758 -46.840  0.00  0.00     0.019 A 
ATOM     26  C   UNL d   1     -59.395 -98.796 -46.233  0.00  0.00     0.080 A 
ENDBRANCH  18  21
ENDBRANCH   2  15
TORSDOF 7
ENDMDL
