MODEL 1
REMARK VINA RESULT:       3.5      0.000      0.000
REMARK  4 active torsions:
REMARK  status: ('A' for Active; 'I' for Inactive)
REMARK    1  A    between atoms: S_9  and  C_2 
REMARK    2  A    between atoms: C_11  and  C_3 
REMARK    3  A    between atoms: C_7  and  C_10 
REMARK       I    between atoms: N_8  and  C_7 
REMARK    4  A    between atoms: C_10  and  S_9 
ROOT
ATOM      1  N   UNL d   1     -41.627-122.436 -52.392  0.00  0.00    -0.220 NA
ATOM      2  C   UNL d   1     -41.425-122.017 -51.703  0.00  0.00     0.114 A 
ATOM      3  C   UNL d   1     -41.777-122.025 -53.087  0.00  0.00     0.163 A 
ATOM      4  N   UNL d   1     -41.728-121.202 -53.103  0.00  0.00    -0.227 NA
ATOM      5  C   UNL d   1     -41.376-121.193 -51.719  0.00  0.00     0.042 A 
ATOM      6  C   UNL d   1     -41.529-120.789 -52.425  0.00  0.00     0.085 A 
ATOM      7  C   UNL d   1     -41.179-120.786 -51.047  0.00  0.00     0.004 A 
ATOM      8  C   UNL d   1     -41.482-119.978 -52.446  0.00  0.00     0.019 A 
ATOM      9  C   UNL d   1     -41.130-119.963 -51.063  0.00  0.00     0.000 A 
ATOM     10  C   UNL d   1     -41.283-119.559 -51.769  0.00  0.00     0.002 A 
ENDROOT
BRANCH   2  11
ATOM     11  S   UNL d   1     -41.274-122.421 -51.004  0.00  0.00    -0.062 SA
BRANCH  11  12
ATOM     12  C   UNL d   1     -41.888-122.683 -50.536  0.00  0.00     0.098 C 
BRANCH  12  13
ATOM     13  C   UNL d   1     -41.756-123.236 -49.934  0.00  0.00     0.271 C 
ATOM     14  N   UNL d   1     -42.227-123.241 -49.260  0.00  0.00    -0.272 N 
ATOM     15  C   UNL d   1     -42.091-123.789 -48.669  0.00  0.00     0.083 A 
ATOM     16  C   UNL d   1     -42.835-122.688 -49.191  0.00  0.00     0.083 A 
ATOM     17  C   UNL d   1     -42.558-123.799 -47.994  0.00  0.00     0.019 A 
ATOM     18  C   UNL d   1     -43.171-123.252 -47.910  0.00  0.00     0.003 A 
ATOM     19  C   UNL d   1     -43.304-122.699 -48.510  0.00  0.00     0.019 A 
ATOM     20  O   UNL d   1     -41.144-123.785 -50.014  0.00  0.00    -0.266 OA
ENDBRANCH  12  13
ENDBRANCH  11  12
ENDBRANCH   2  11
BRANCH   3  21
ATOM     21  C   UNL d   1     -41.977-122.433 -53.770  0.00  0.00     0.036 A 
ATOM     22  C   UNL d   1     -41.747-123.220 -53.857  0.00  0.00     0.003 A 
ATOM     23  C   UNL d   1     -41.948-123.634 -54.547  0.00  0.00     0.000 A 
ATOM     24  C   UNL d   1     -42.376-123.253 -55.139  0.00  0.00     0.000 A 
ATOM     25  C   UNL d   1     -42.606-122.465 -55.053  0.00  0.00     0.000 A 
ATOM     26  C   UNL d   1     -42.408-122.058 -54.374  0.00  0.00     0.003 A 
ENDBRANCH   3  21
TORSDOF 4
ENDMDL
