MODEL 1
REMARK VINA RESULT:      44.2      0.000      0.000
REMARK  6 active torsions:
REMARK  status: ('A' for Active; 'I' for Inactive)
REMARK    1  A    between atoms: C_3  and  N_1 
REMARK       I    between atoms: C_2  and  N_10 
REMARK    2  A    between atoms: C_9  and  C_2 
REMARK    3  A    between atoms: C_15  and  N_4 
REMARK    4  A    between atoms: O_14  and  C_8 
REMARK    5  A    between atoms: N_10  and  C_13 
REMARK    6  A    between atoms: C_13  and  C_15 
ROOT
ATOM      1  N   UNL d   1     -51.275  25.488  33.498  0.00  0.00    -0.300 N 
ATOM      2  N   UNL d   1     -50.259  26.781  33.625  0.00  0.00    -0.299 N 
ATOM      3  C   UNL d   1     -50.481  25.407  33.306  0.00  0.00     0.100 A 
ATOM      4  C   UNL d   1     -51.566  26.221  33.756  0.00  0.00     0.100 A 
ATOM      5  C   UNL d   1     -49.974  26.052  33.369  0.00  0.00     0.100 A 
ATOM      6  C   UNL d   1     -51.062  26.862  33.819  0.00  0.00     0.100 A 
ENDROOT
BRANCH   2   7
ATOM      7  C   UNL d   1     -49.753  27.425  33.689  0.00  0.00     0.101 C 
BRANCH   7   8
ATOM      8  C   UNL d   1     -49.542  27.722  34.430  0.00  0.00     0.121 C 
BRANCH   8   9
ATOM      9  N   UNL d   1     -48.977  28.304  34.498  0.00  0.00    -0.205 NA
ATOM     10  C   UNL d   1     -48.677  28.502  35.236  0.00  0.00     0.279 C 
ATOM     11  O   UNL d   1     -48.943  28.119  35.906  0.00  0.00    -0.265 OA
BRANCH  10  12
ATOM     12  C   UNL d   1     -48.097  29.098  35.305  0.00  0.00     0.058 A 
ATOM     13  C   UNL d   1     -47.364  28.916  35.547  0.00  0.00     0.005 A 
ATOM     14  C   UNL d   1     -46.784  29.512  35.617  0.00  0.00     0.000 A 
ATOM     15  C   UNL d   1     -46.971  30.291  35.434  0.00  0.00     0.000 A 
ATOM     16  C   UNL d   1     -47.749  30.472  35.179  0.00  0.00     0.000 A 
ATOM     17  C   UNL d   1     -48.306  29.888  35.114  0.00  0.00     0.005 A 
ENDBRANCH  10  12
ENDBRANCH   8   9
ENDBRANCH   7   8
ENDBRANCH   2   7
BRANCH   1  18
ATOM     18  C   UNL d   1     -51.782  24.843  33.434  0.00  0.00     0.086 A 
ATOM     19  C   UNL d   1     -51.483  24.074  33.413  0.00  0.00     0.110 A 
ATOM     20  C   UNL d   1     -51.992  23.426  33.349  0.00  0.00     0.026 A 
ATOM     21  C   UNL d   1     -52.796  23.554  33.306  0.00  0.00     0.002 A 
ATOM     22  C   UNL d   1     -53.106  24.320  33.326  0.00  0.00     0.002 A 
ATOM     23  C   UNL d   1     -52.605  24.958  33.389  0.00  0.00     0.019 A 
BRANCH  19  24
ATOM     24  O   UNL d   1     -50.656  23.956  33.458  0.00  0.00    -0.327 OA
ATOM     25  C   UNL d   1     -50.356  23.189  33.380  0.00  0.00     0.181 C 
ENDBRANCH  19  24
ENDBRANCH   1  18
TORSDOF 6
ENDMDL
