MODEL 1
REMARK VINA RESULT:      70.3      0.000      0.000
REMARK  3 active torsions:
REMARK  status: ('A' for Active; 'I' for Inactive)
REMARK    1  A    between atoms: N_5  and  C_1 
REMARK    2  A    between atoms: C_8  and  C_3 
REMARK       I    between atoms: C_7  and  N_5 
REMARK    3  A    between atoms: C_13  and  C_7 
ROOT
ATOM      1  C   UNL d   1      60.923  48.333  50.138  0.00  0.00     0.297 A 
ATOM      2  O   UNL d   1      60.099  48.298  50.196  0.00  0.00    -0.253 OA
ATOM      3  C   UNL d   1      59.844  48.968  50.617  0.00  0.00     0.206 A 
ATOM      4  N   UNL d   1      60.512  49.407  50.813  0.00  0.00    -0.119 NA
ATOM      5  N   UNL d   1      61.177  49.015  50.518  0.00  0.00    -0.101 NA
ENDROOT
BRANCH   3   6
ATOM      6  C   UNL d   1      59.054  49.152  50.801  0.00  0.00     0.043 A 
ATOM      7  C   UNL d   1      58.481  49.129  50.207  0.00  0.00     0.004 A 
ATOM      8  C   UNL d   1      57.703  49.311  50.389  0.00  0.00     0.000 A 
ATOM      9  C   UNL d   1      57.134  49.286  49.789  0.00  0.00     0.000 A 
ATOM     10  C   UNL d   1      57.503  49.514  51.159  0.00  0.00     0.000 A 
ATOM     11  C   UNL d   1      56.358  49.465  49.962  0.00  0.00     0.000 A 
ATOM     12  C   UNL d   1      56.141  49.672  50.735  0.00  0.00     0.000 A 
ATOM     13  C   UNL d   1      56.702  49.699  51.339  0.00  0.00     0.000 A 
ATOM     14  C   UNL d   1      58.056  49.540  51.750  0.00  0.00     0.000 A 
ATOM     15  C   UNL d   1      58.837  49.360  51.578  0.00  0.00     0.004 A 
ENDBRANCH   3   6
BRANCH   1  16
ATOM     16  N   UNL d   1      61.401  47.772  49.760  0.00  0.00    -0.165 NA
ATOM     17  C   UNL d   1      61.356  46.983  49.971  0.00  0.00     0.282 C 
ATOM     18  O   UNL d   1      60.833  46.733  50.566  0.00  0.00    -0.265 OA
BRANCH  17  19
ATOM     19  C   UNL d   1      61.834  46.425  49.592  0.00  0.00     0.058 A 
ATOM     20  C   UNL d   1      61.481  45.771  49.235  0.00  0.00     0.005 A 
ATOM     21  C   UNL d   1      61.960  45.211  48.854  0.00  0.00     0.000 A 
ATOM     22  C   UNL d   1      62.780  45.306  48.832  0.00  0.00     0.000 A 
ATOM     23  C   UNL d   1      63.123  45.964  49.193  0.00  0.00     0.000 A 
ATOM     24  C   UNL d   1      62.651  46.527  49.575  0.00  0.00     0.005 A 
ENDBRANCH  17  19
ENDBRANCH   1  16
TORSDOF 3
ENDMDL
