MODEL 1
REMARK VINA RESULT:      -2.9      0.000      0.000
REMARK  1 active torsions:
REMARK  status: ('A' for Active; 'I' for Inactive)
REMARK    1  A    between atoms: C_8  and  CA_5 
ROOT
ATOM      1  N   UNL d   1      33.118  21.491 -22.081  0.00  0.00    -0.224 NA
ATOM      2  C   UNL d   1      32.817  22.226 -21.881  0.00  0.00     0.162 A 
ATOM      3  N   UNL d   1      33.000  22.880 -22.337  0.00  0.00    -0.225 NA
ATOM      4  C   UNL d   1      32.330  22.301 -21.219  0.00  0.00     0.036 A 
ATOM      5  CA  UNL d   1      32.940  20.827 -21.631  0.00  0.00     0.125 A 
ATOM      6  C   UNL d   1      32.147  21.641 -20.762  0.00  0.00     0.005 A 
ATOM      7  C   UNL d   1      32.453  20.902 -20.970  0.00  0.00     0.023 A 
ATOM      8  C   UNL d   1      32.694  23.619 -22.130  0.00  0.00     0.101 A 
ATOM      9  C   UNL d   1      32.024  23.031 -21.010  0.00  0.00     0.005 A 
ATOM     10  C   UNL d   1      32.207  23.695 -21.468  0.00  0.00     0.021 A 
ENDROOT
BRANCH   5  11
ATOM     11  C   UNL d   1      33.241  20.098 -21.833  0.00  0.00     0.253 C 
ATOM     12  O   UNL d   1      32.802  19.592 -22.315  0.00  0.00    -0.281 OA
ENDBRANCH   5  11
TORSDOF 1
ENDMDL
MODEL 2
REMARK VINA RESULT:      -2.6      5.934      6.559
REMARK  1 active torsions:
REMARK  status: ('A' for Active; 'I' for Inactive)
REMARK    1  A    between atoms: C_8  and  CA_5 
ROOT
ATOM      1  N   UNL d   1      29.868  16.082 -23.619  0.00  0.00    -0.224 NA
ATOM      2  C   UNL d   1      30.617  16.378 -23.763  0.00  0.00     0.162 A 
ATOM      3  N   UNL d   1      31.269  16.022 -23.420  0.00  0.00    -0.225 NA
ATOM      4  C   UNL d   1      30.710  17.034 -24.255  0.00  0.00     0.036 A 
ATOM      5  CA  UNL d   1      29.205  16.431 -23.958  0.00  0.00     0.125 A 
ATOM      6  C   UNL d   1      30.052  17.390 -24.599  0.00  0.00     0.005 A 
ATOM      7  C   UNL d   1      29.298  17.087 -24.450  0.00  0.00     0.023 A 
ATOM      8  C   UNL d   1      32.024  16.325 -23.569  0.00  0.00     0.101 A 
ATOM      9  C   UNL d   1      31.455  17.338 -24.405  0.00  0.00     0.005 A 
ATOM     10  C   UNL d   1      32.116  16.981 -24.060  0.00  0.00     0.021 A 
ENDROOT
BRANCH   5  11
ATOM     11  C   UNL d   1      28.461  16.135 -23.814  0.00  0.00     0.253 C 
ATOM     12  O   UNL d   1      27.937  16.558 -23.338  0.00  0.00    -0.281 OA
ENDBRANCH   5  11
TORSDOF 1
ENDMDL
MODEL 3
REMARK VINA RESULT:      -2.6      5.777      6.560
REMARK  1 active torsions:
REMARK  status: ('A' for Active; 'I' for Inactive)
REMARK    1  A    between atoms: C_8  and  CA_5 
ROOT
ATOM      1  N   UNL d   1      29.624  16.756 -24.169  0.00  0.00    -0.224 NA
ATOM      2  C   UNL d   1      30.440  16.797 -24.116  0.00  0.00     0.162 A 
ATOM      3  N   UNL d   1      30.848  17.371 -24.532  0.00  0.00    -0.225 NA
ATOM      4  C   UNL d   1      30.845  16.256 -23.642  0.00  0.00     0.036 A 
ATOM      5  CA  UNL d   1      29.203  16.184 -23.757  0.00  0.00     0.125 A 
ATOM      6  C   UNL d   1      30.432  15.679 -23.225  0.00  0.00     0.005 A 
ATOM      7  C   UNL d   1      29.608  15.644 -23.283  0.00  0.00     0.023 A 
ATOM      8  C   UNL d   1      31.672  17.407 -24.474  0.00  0.00     0.101 A 
ATOM      9  C   UNL d   1      31.661  16.288 -23.582  0.00  0.00     0.005 A 
ATOM     10  C   UNL d   1      32.077  16.867 -24.000  0.00  0.00     0.021 A 
ENDROOT
BRANCH   5  11
ATOM     11  C   UNL d   1      28.392  16.146 -23.811  0.00  0.00     0.253 C 
ATOM     12  O   UNL d   1      27.924  16.597 -23.303  0.00  0.00    -0.281 OA
ENDBRANCH   5  11
TORSDOF 1
ENDMDL
MODEL 4
REMARK VINA RESULT:      -2.6      2.576      3.126
REMARK  1 active torsions:
REMARK  status: ('A' for Active; 'I' for Inactive)
REMARK    1  A    between atoms: C_8  and  CA_5 
ROOT
ATOM      1  N   UNL d   1      32.454  23.698 -19.392  0.00  0.00    -0.224 NA
ATOM      2  C   UNL d   1      32.455  23.344 -20.130  0.00  0.00     0.162 A 
ATOM      3  N   UNL d   1      32.066  23.701 -20.755  0.00  0.00    -0.225 NA
ATOM      4  C   UNL d   1      32.849  22.627 -20.238  0.00  0.00     0.036 A 
ATOM      5  CA  UNL d   1      32.841  23.348 -18.757  0.00  0.00     0.125 A 
ATOM      6  C   UNL d   1      33.240  22.269 -19.609  0.00  0.00     0.005 A 
ATOM      7  C   UNL d   1      33.236  22.632 -18.866  0.00  0.00     0.023 A 
ATOM      8  C   UNL d   1      32.070  23.340 -21.498  0.00  0.00     0.101 A 
ATOM      9  C   UNL d   1      32.856  22.265 -20.973  0.00  0.00     0.005 A 
ATOM     10  C   UNL d   1      32.464  22.623 -21.606  0.00  0.00     0.021 A 
ENDROOT
BRANCH   5  11
ATOM     11  C   UNL d   1      32.839  23.702 -18.024  0.00  0.00     0.253 C 
ATOM     12  O   UNL d   1      32.521  23.303 -17.376  0.00  0.00    -0.281 OA
ENDBRANCH   5  11
TORSDOF 1
ENDMDL
MODEL 5
REMARK VINA RESULT:      -2.6      5.645      6.660
REMARK  1 active torsions:
REMARK  status: ('A' for Active; 'I' for Inactive)
REMARK    1  A    between atoms: C_8  and  CA_5 
ROOT
ATOM      1  N   UNL d   1      30.169  17.143 -24.402  0.00  0.00    -0.224 NA
ATOM      2  C   UNL d   1      29.701  16.604 -24.003  0.00  0.00     0.162 A 
ATOM      3  N   UNL d   1      28.887  16.636 -24.076  0.00  0.00    -0.225 NA
ATOM      4  C   UNL d   1      30.055  16.030 -23.527  0.00  0.00     0.036 A 
ATOM      5  CA  UNL d   1      30.988  17.121 -24.336  0.00  0.00     0.125 A 
ATOM      6  C   UNL d   1      30.874  15.999 -23.455  0.00  0.00     0.005 A 
ATOM      7  C   UNL d   1      31.342  16.547 -23.861  0.00  0.00     0.023 A 
ATOM      8  C   UNL d   1      28.419  16.089 -23.670  0.00  0.00     0.101 A 
ATOM      9  C   UNL d   1      29.596  15.485 -23.123  0.00  0.00     0.005 A 
ATOM     10  C   UNL d   1      28.773  15.515 -23.195  0.00  0.00     0.021 A 
ENDROOT
BRANCH   5  11
ATOM     11  C   UNL d   1      31.451  17.658 -24.735  0.00  0.00     0.253 C 
ATOM     12  O   UNL d   1      31.915  18.194 -24.312  0.00  0.00    -0.281 OA
ENDBRANCH   5  11
TORSDOF 1
ENDMDL
MODEL 6
REMARK VINA RESULT:      -2.6      5.972      6.701
REMARK  1 active torsions:
REMARK  status: ('A' for Active; 'I' for Inactive)
REMARK    1  A    between atoms: C_8  and  CA_5 
ROOT
ATOM      1  N   UNL d   1      30.855  15.934 -23.345  0.00  0.00    -0.224 NA
ATOM      2  C   UNL d   1      30.047  15.976 -23.467  0.00  0.00     0.162 A 
ATOM      3  N   UNL d   1      29.547  15.453 -23.085  0.00  0.00    -0.225 NA
ATOM      4  C   UNL d   1      29.741  16.549 -23.976  0.00  0.00     0.036 A 
ATOM      5  CA  UNL d   1      31.366  16.454 -23.723  0.00  0.00     0.125 A 
ATOM      6  C   UNL d   1      30.244  17.075 -24.359  0.00  0.00     0.005 A 
ATOM      7  C   UNL d   1      31.060  17.027 -24.232  0.00  0.00     0.023 A 
ATOM      8  C   UNL d   1      28.732  15.500 -23.212  0.00  0.00     0.101 A 
ATOM      9  C   UNL d   1      28.934  16.601 -24.105  0.00  0.00     0.005 A 
ATOM     10  C   UNL d   1      28.426  16.073 -23.721  0.00  0.00     0.021 A 
ENDROOT
BRANCH   5  11
ATOM     11  C   UNL d   1      32.169  16.410 -23.600  0.00  0.00     0.253 C 
ATOM     12  O   UNL d   1      32.563  17.033 -23.230  0.00  0.00    -0.281 OA
ENDBRANCH   5  11
TORSDOF 1
ENDMDL
MODEL 7
REMARK VINA RESULT:      -2.6      1.385      2.622
REMARK  1 active torsions:
REMARK  status: ('A' for Active; 'I' for Inactive)
REMARK    1  A    between atoms: C_8  and  CA_5 
ROOT
ATOM      1  N   UNL d   1      32.713  22.128 -22.069  0.00  0.00    -0.224 NA
ATOM      2  C   UNL d   1      32.860  21.331 -21.958  0.00  0.00     0.162 A 
ATOM      3  N   UNL d   1      33.093  20.867 -22.591  0.00  0.00    -0.225 NA
ATOM      4  C   UNL d   1      32.772  20.999 -21.208  0.00  0.00     0.036 A 
ATOM      5  CA  UNL d   1      32.478  22.603 -21.441  0.00  0.00     0.125 A 
ATOM      6  C   UNL d   1      32.538  21.467 -20.572  0.00  0.00     0.005 A 
ATOM      7  C   UNL d   1      32.390  22.272 -20.690  0.00  0.00     0.023 A 
ATOM      8  C   UNL d   1      33.241  20.063 -22.474  0.00  0.00     0.101 A 
ATOM      9  C   UNL d   1      32.917  20.202 -21.087  0.00  0.00     0.005 A 
ATOM     10  C   UNL d   1      33.153  19.731 -21.724  0.00  0.00     0.021 A 
ENDROOT
BRANCH   5  11
ATOM     11  C   UNL d   1      32.332  23.396 -21.553  0.00  0.00     0.253 C 
ATOM     12  O   UNL d   1      31.579  23.700 -21.405  0.00  0.00    -0.281 OA
ENDBRANCH   5  11
TORSDOF 1
ENDMDL
MODEL 8
REMARK VINA RESULT:      -2.5      2.419      3.155
REMARK  1 active torsions:
REMARK  status: ('A' for Active; 'I' for Inactive)
REMARK    1  A    between atoms: C_8  and  CA_5 
ROOT
ATOM      1  N   UNL d   1      33.206  22.420 -19.233  0.00  0.00    -0.224 NA
ATOM      2  C   UNL d   1      33.023  22.142 -19.980  0.00  0.00     0.162 A 
ATOM      3  N   UNL d   1      33.240  21.384 -20.199  0.00  0.00    -0.225 NA
ATOM      4  C   UNL d   1      32.620  22.630 -20.510  0.00  0.00     0.036 A 
ATOM      5  CA  UNL d   1      32.992  23.179 -19.002  0.00  0.00     0.125 A 
ATOM      6  C   UNL d   1      32.402  23.392 -20.288  0.00  0.00     0.005 A 
ATOM      7  C   UNL d   1      32.589  23.667 -19.531  0.00  0.00     0.023 A 
ATOM      8  C   UNL d   1      33.053  21.109 -20.955  0.00  0.00     0.101 A 
ATOM      9  C   UNL d   1      32.432  22.362 -21.261  0.00  0.00     0.005 A 
ATOM     10  C   UNL d   1      32.650  21.597 -21.485  0.00  0.00     0.021 A 
ENDROOT
BRANCH   5  11
ATOM     11  C   UNL d   1      33.175  23.453 -18.258  0.00  0.00     0.253 C 
ATOM     12  O   UNL d   1      32.597  23.459 -17.669  0.00  0.00    -0.281 OA
ENDBRANCH   5  11
TORSDOF 1
ENDMDL
MODEL 9
REMARK VINA RESULT:      -2.5      4.676      5.875
REMARK  1 active torsions:
REMARK  status: ('A' for Active; 'I' for Inactive)
REMARK    1  A    between atoms: C_8  and  CA_5 
ROOT
ATOM      1  N   UNL d   1      32.180  16.873 -23.224  0.00  0.00    -0.224 NA
ATOM      2  C   UNL d   1      31.499  16.601 -23.587  0.00  0.00     0.162 A 
ATOM      3  N   UNL d   1      31.188  15.873 -23.379  0.00  0.00    -0.225 NA
ATOM      4  C   UNL d   1      31.130  17.063 -24.161  0.00  0.00     0.036 A 
ATOM      5  CA  UNL d   1      32.501  17.602 -23.424  0.00  0.00     0.125 A 
ATOM      6  C   UNL d   1      31.444  17.796 -24.369  0.00  0.00     0.005 A 
ATOM      7  C   UNL d   1      32.132  18.065 -23.999  0.00  0.00     0.023 A 
ATOM      8  C   UNL d   1      30.501  15.603 -23.749  0.00  0.00     0.101 A 
ATOM      9  C   UNL d   1      30.448  16.800 -24.531  0.00  0.00     0.005 A 
ATOM     10  C   UNL d   1      30.132  16.065 -24.324  0.00  0.00     0.021 A 
ENDROOT
BRANCH   5  11
ATOM     11  C   UNL d   1      33.178  17.871 -23.061  0.00  0.00     0.253 C 
ATOM     12  O   UNL d   1      33.130  18.460 -22.485  0.00  0.00    -0.281 OA
ENDBRANCH   5  11
TORSDOF 1
ENDMDL
