MODEL 1
REMARK VINA RESULT:      -5.2      0.000      0.000
REMARK  7 active torsions:
REMARK  status: ('A' for Active; 'I' for Inactive)
REMARK    1  A    between atoms: C_3  and  C_1 
REMARK    2  A    between atoms: O_13  and  C_1 
REMARK       I    between atoms: C_2  and  N_7 
REMARK    3  A    between atoms: C_4  and  C_2 
REMARK    4  A    between atoms: C_6  and  C_4 
REMARK    5  A    between atoms: C_5  and  C_6 
REMARK    6  A    between atoms: O_14  and  C_5 
REMARK    7  A    between atoms: N_7  and  C_9 
ROOT
ATOM      1  C   UNL d   1      55.670  -0.100  33.427  0.00  0.00     0.063 A 
ATOM      2  C   UNL d   1      56.355   0.196  33.066  0.00  0.00     0.023 A 
ATOM      3  C   UNL d   1      56.765  -0.273  32.530  0.00  0.00     0.059 A 
ATOM      4  C   UNL d   1      55.399  -0.860  33.254  0.00  0.00     0.006 A 
ATOM      5  C   UNL d   1      55.811  -1.323  32.719  0.00  0.00     0.002 A 
ATOM      6  C   UNL d   1      56.494  -1.033  32.357  0.00  0.00     0.017 A 
ENDROOT
BRANCH   3   7
ATOM      7  N   UNL d   1      57.446   0.012  32.166  0.00  0.00    -0.321 N 
ATOM      8  C   UNL d   1      57.446   0.189  31.371  0.00  0.00     0.258 C 
ATOM      9  O   UNL d   1      56.757   0.079  30.941  0.00  0.00    -0.267 OA
ATOM     10  H   UNL d   1      58.130   0.118  32.605  0.00  0.00     0.169 HD
BRANCH   8  11
ATOM     11  C   UNL d   1      58.121   0.470  31.017  0.00  0.00     0.067 C 
BRANCH  11  12
ATOM     12  C   UNL d   1      58.272   0.291  30.234  0.00  0.00     0.072 C 
BRANCH  12  13
ATOM     13  C   UNL d   1      59.032   0.380  29.925  0.00  0.00     0.178 C 
ATOM     14  O   UNL d   1      59.126   0.579  29.131  0.00  0.00    -0.646 OA
BRANCH  13  15
ATOM     15  O   UNL d   1      59.696   0.270  30.403  0.00  0.00    -0.773 OA
ATOM     16  H   UNL d   1      59.970  -0.498  30.544  0.00  0.00     0.167 HD
ENDBRANCH  13  15
ENDBRANCH  12  13
ENDBRANCH  11  12
ENDBRANCH   8  11
ENDBRANCH   3   7
BRANCH   1  17
ATOM     17  C   UNL d   1      55.261   0.375  33.965  0.00  0.00     0.178 C 
ATOM     18  O   UNL d   1      54.518   0.680  33.774  0.00  0.00    -0.646 OA
BRANCH  17  19
ATOM     19  O   UNL d   1      55.599   0.544  34.698  0.00  0.00    -0.773 OA
ATOM     20  H   UNL d   1      55.492   0.030  35.334  0.00  0.00     0.167 HD
ENDBRANCH  17  19
ENDBRANCH   1  17
TORSDOF 7
ENDMDL
MODEL 2
REMARK VINA RESULT:      -4.5      1.173      1.456
REMARK  7 active torsions:
REMARK  status: ('A' for Active; 'I' for Inactive)
REMARK    1  A    between atoms: C_3  and  C_1 
REMARK    2  A    between atoms: O_13  and  C_1 
REMARK       I    between atoms: C_2  and  N_7 
REMARK    3  A    between atoms: C_4  and  C_2 
REMARK    4  A    between atoms: C_6  and  C_4 
REMARK    5  A    between atoms: C_5  and  C_6 
REMARK    6  A    between atoms: O_14  and  C_5 
REMARK    7  A    between atoms: N_7  and  C_9 
ROOT
ATOM      1  C   UNL d   1      56.116  -0.806  32.770  0.00  0.00     0.063 A 
ATOM      2  C   UNL d   1      56.816  -0.728  32.334  0.00  0.00     0.023 A 
ATOM      3  C   UNL d   1      57.058   0.018  32.088  0.00  0.00     0.059 A 
ATOM      4  C   UNL d   1      55.662  -0.144  32.959  0.00  0.00     0.006 A 
ATOM      5  C   UNL d   1      55.907   0.597  32.713  0.00  0.00     0.002 A 
ATOM      6  C   UNL d   1      56.604   0.681  32.278  0.00  0.00     0.017 A 
ENDROOT
BRANCH   3   7
ATOM      7  N   UNL d   1      57.752   0.107  31.655  0.00  0.00    -0.321 N 
ATOM      8  C   UNL d   1      57.733   0.101  30.840  0.00  0.00     0.258 C 
ATOM      9  O   UNL d   1      57.013   0.004  30.461  0.00  0.00    -0.267 OA
ATOM     10  H   UNL d   1      58.467   0.202  32.043  0.00  0.00     0.169 HD
BRANCH   8  11
ATOM     11  C   UNL d   1      58.421   0.188  30.417  0.00  0.00     0.067 C 
BRANCH  11  12
ATOM     12  C   UNL d   1      58.391   0.244  29.603  0.00  0.00     0.072 C 
BRANCH  12  13
ATOM     13  C   UNL d   1      59.086   0.241  29.158  0.00  0.00     0.178 C 
ATOM     14  O   UNL d   1      59.126   0.682  28.464  0.00  0.00    -0.646 OA
BRANCH  13  15
ATOM     15  O   UNL d   1      59.740  -0.201  29.403  0.00  0.00    -0.773 OA
ATOM     16  H   UNL d   1      60.078  -0.045  30.143  0.00  0.00     0.167 HD
ENDBRANCH  13  15
ENDBRANCH  12  13
ENDBRANCH  11  12
ENDBRANCH   8  11
ENDBRANCH   3   7
BRANCH   1  17
ATOM     17  C   UNL d   1      55.876  -1.558  33.015  0.00  0.00     0.178 C 
ATOM     18  O   UNL d   1      55.249  -1.941  32.638  0.00  0.00    -0.646 OA
BRANCH  17  19
ATOM     19  O   UNL d   1      56.267  -1.926  33.641  0.00  0.00    -0.773 OA
ATOM     20  H   UNL d   1      55.858  -2.120  34.331  0.00  0.00     0.167 HD
ENDBRANCH  17  19
ENDBRANCH   1  17
TORSDOF 7
ENDMDL
MODEL 3
REMARK VINA RESULT:      -2.7      8.954      9.629
REMARK  7 active torsions:
REMARK  status: ('A' for Active; 'I' for Inactive)
REMARK    1  A    between atoms: C_3  and  C_1 
REMARK    2  A    between atoms: O_13  and  C_1 
REMARK       I    between atoms: C_2  and  N_7 
REMARK    3  A    between atoms: C_4  and  C_2 
REMARK    4  A    between atoms: C_6  and  C_4 
REMARK    5  A    between atoms: C_5  and  C_6 
REMARK    6  A    between atoms: O_14  and  C_5 
REMARK    7  A    between atoms: N_7  and  C_9 
ROOT
ATOM      1  C   UNL d   1      60.060  -7.517  35.816  0.00  0.00     0.063 A 
ATOM      2  C   UNL d   1      59.701  -7.999  35.244  0.00  0.00     0.023 A 
ATOM      3  C   UNL d   1      60.035  -8.727  35.061  0.00  0.00     0.059 A 
ATOM      4  C   UNL d   1      60.747  -7.763  36.200  0.00  0.00     0.006 A 
ATOM      5  C   UNL d   1      61.076  -8.490  36.014  0.00  0.00     0.002 A 
ATOM      6  C   UNL d   1      60.722  -8.973  35.445  0.00  0.00     0.017 A 
ENDROOT
BRANCH   3   7
ATOM      7  N   UNL d   1      59.686  -9.212  34.495  0.00  0.00    -0.321 N 
ATOM      8  C   UNL d   1      59.941  -9.193  33.722  0.00  0.00     0.258 C 
ATOM      9  O   UNL d   1      60.549  -8.684  33.517  0.00  0.00    -0.267 OA
ATOM     10  H   UNL d   1      59.078  -9.718  34.710  0.00  0.00     0.169 HD
BRANCH   8  11
ATOM     11  C   UNL d   1      59.593  -9.674  33.167  0.00  0.00     0.067 C 
BRANCH  11  12
ATOM     12  C   UNL d   1      58.797  -9.593  33.002  0.00  0.00     0.072 C 
BRANCH  12  13
ATOM     13  C   UNL d   1      58.518  -9.688  32.231  0.00  0.00     0.178 C 
ATOM     14  O   UNL d   1      57.708  -9.653  32.086  0.00  0.00    -0.646 OA
BRANCH  13  15
ATOM     15  O   UNL d   1      59.043  -9.818  31.607  0.00  0.00    -0.773 OA
ATOM     16  H   UNL d   1      58.744  -9.906  30.840  0.00  0.00     0.167 HD
ENDBRANCH  13  15
ENDBRANCH  12  13
ENDBRANCH  11  12
ENDBRANCH   8  11
ENDBRANCH   3   7
BRANCH   1  17
ATOM     17  C   UNL d   1      59.721  -6.786  35.997  0.00  0.00     0.178 C 
ATOM     18  O   UNL d   1      60.197  -6.128  36.143  0.00  0.00    -0.646 OA
BRANCH  17  19
ATOM     19  O   UNL d   1      58.900  -6.716  36.032  0.00  0.00    -0.773 OA
ATOM     20  H   UNL d   1      58.474  -7.102  36.624  0.00  0.00     0.167 HD
ENDBRANCH  17  19
ENDBRANCH   1  17
TORSDOF 7
ENDMDL
MODEL 4
REMARK VINA RESULT:      -2.4      1.442      1.778
REMARK  7 active torsions:
REMARK  status: ('A' for Active; 'I' for Inactive)
REMARK    1  A    between atoms: C_3  and  C_1 
REMARK    2  A    between atoms: O_13  and  C_1 
REMARK       I    between atoms: C_2  and  N_7 
REMARK    3  A    between atoms: C_4  and  C_2 
REMARK    4  A    between atoms: C_6  and  C_4 
REMARK    5  A    between atoms: C_5  and  C_6 
REMARK    6  A    between atoms: O_14  and  C_5 
REMARK    7  A    between atoms: N_7  and  C_9 
ROOT
ATOM      1  C   UNL d   1      56.171  -0.765  32.745  0.00  0.00     0.063 A 
ATOM      2  C   UNL d   1      56.608  -0.940  32.064  0.00  0.00     0.023 A 
ATOM      3  C   UNL d   1      56.952  -0.329  31.635  0.00  0.00     0.059 A 
ATOM      4  C   UNL d   1      56.078   0.016  32.995  0.00  0.00     0.006 A 
ATOM      5  C   UNL d   1      56.422   0.621  32.565  0.00  0.00     0.002 A 
ATOM      6  C   UNL d   1      56.860   0.452  31.885  0.00  0.00     0.017 A 
ENDROOT
BRANCH   3   7
ATOM      7  N   UNL d   1      57.389  -0.493  30.957  0.00  0.00    -0.321 N 
ATOM      8  C   UNL d   1      58.181  -0.306  30.921  0.00  0.00     0.258 C 
ATOM      9  O   UNL d   1      58.534   0.048  31.570  0.00  0.00    -0.267 OA
ATOM     10  H   UNL d   1      57.026  -0.847  30.313  0.00  0.00     0.169 HD
BRANCH   8  11
ATOM     11  C   UNL d   1      58.607  -0.470  30.249  0.00  0.00     0.067 C 
BRANCH  11  12
ATOM     12  C   UNL d   1      58.298  -0.975  29.686  0.00  0.00     0.072 C 
BRANCH  12  13
ATOM     13  C   UNL d   1      58.741  -1.180  29.020  0.00  0.00     0.178 C 
ATOM     14  O   UNL d   1      58.914  -0.607  28.456  0.00  0.00    -0.646 OA
BRANCH  13  15
ATOM     15  O   UNL d   1      59.010  -1.954  28.917  0.00  0.00    -0.773 OA
ATOM     16  H   UNL d   1      58.931  -2.495  29.538  0.00  0.00     0.167 HD
ENDBRANCH  13  15
ENDBRANCH  12  13
ENDBRANCH  11  12
ENDBRANCH   8  11
ENDBRANCH   3   7
BRANCH   1  17
ATOM     17  C   UNL d   1      55.827  -1.382  33.173  0.00  0.00     0.178 C 
ATOM     18  O   UNL d   1      55.908  -2.163  32.921  0.00  0.00    -0.646 OA
BRANCH  17  19
ATOM     19  O   UNL d   1      55.398  -1.212  33.858  0.00  0.00    -0.773 OA
ATOM     20  H   UNL d   1      55.358  -0.439  34.144  0.00  0.00     0.167 HD
ENDBRANCH  17  19
ENDBRANCH   1  17
TORSDOF 7
ENDMDL
