MODEL 1
REMARK VINA RESULT:      63.1      0.000      0.000
REMARK  4 active torsions:
REMARK  status: ('A' for Active; 'I' for Inactive)
REMARK    1  A    between atoms: N_2  and  S_1 
REMARK    2  A    between atoms: C_3  and  S_1 
REMARK    3  A    between atoms: C_17  and  N_4 
REMARK    4  A    between atoms: C_16  and  C_17 
ROOT
ATOM      1  N   UNL d   1     -50.648  26.918  33.876  0.00  0.00    -0.226 N 
ATOM      2  N   UNL d   1     -49.180  27.366  34.460  0.00  0.00    -0.300 N 
ATOM      3  C   UNL d   1     -50.547  27.025  34.693  0.00  0.00     0.111 A 
ATOM      4  C   UNL d   1     -50.017  27.035  33.357  0.00  0.00     0.111 A 
ATOM      5  C   UNL d   1     -49.282  27.261  33.656  0.00  0.00     0.100 A 
ATOM      6  C   UNL d   1     -49.800  27.252  34.983  0.00  0.00     0.100 A 
ENDROOT
BRANCH   1   7
ATOM      7  S   UNL d   1     -51.384  26.693  33.590  0.00  0.00     0.272 S 
ATOM      8  O   UNL d   1     -52.116  26.470  33.306  0.00  0.00    -0.200 OA
ATOM      9  O   UNL d   1     -51.651  27.461  33.674  0.00  0.00    -0.200 OA
BRANCH   7  10
ATOM     10  C   UNL d   1     -51.115  25.918  33.506  0.00  0.00     0.106 A 
ATOM     11  C   UNL d   1     -51.660  25.288  33.534  0.00  0.00     0.043 A 
ATOM     12  C   UNL d   1     -51.388  24.505  33.449  0.00  0.00     0.141 A 
ATOM     13  F   UNL d   1     -51.922  23.877  33.477  0.00  0.00    -0.204 F 
ATOM     14  C   UNL d   1     -50.574  24.360  33.336  0.00  0.00     0.030 A 
ATOM     15  C   UNL d   1     -50.050  24.984  33.310  0.00  0.00     0.003 A 
ATOM     16  C   UNL d   1     -50.321  25.767  33.395  0.00  0.00     0.013 A 
ENDBRANCH   7  10
ENDBRANCH   1   7
BRANCH   2  17
ATOM     17  C   UNL d   1     -48.441  27.592  34.748  0.00  0.00     0.080 C 
BRANCH  17  18
ATOM     18  C   UNL d   1     -48.274  28.387  34.877  0.00  0.00     0.020 A 
ATOM     19  C   UNL d   1     -47.738  28.594  35.460  0.00  0.00     0.028 A 
ATOM     20  C   UNL d   1     -47.563  29.390  35.598  0.00  0.00     0.119 A 
ATOM     21  O   UNL d   1     -47.056  29.765  36.137  0.00  0.00    -0.300 OA
ATOM     22  C   UNL d   1     -47.934  29.969  35.142  0.00  0.00     0.119 A 
ATOM     23  C   UNL d   1     -47.116  30.583  36.011  0.00  0.00     0.304 A 
ATOM     24  O   UNL d   1     -47.661  30.710  35.394  0.00  0.00    -0.300 OA
ATOM     25  C   UNL d   1     -48.475  29.759  34.553  0.00  0.00     0.026 A 
ATOM     26  C   UNL d   1     -48.645  28.966  34.421  0.00  0.00     0.004 A 
ENDBRANCH  17  18
ENDBRANCH   2  17
TORSDOF 4
ENDMDL
MODEL 2
REMARK VINA RESULT:      63.7      1.447      2.001
REMARK  4 active torsions:
REMARK  status: ('A' for Active; 'I' for Inactive)
REMARK    1  A    between atoms: N_2  and  S_1 
REMARK    2  A    between atoms: C_3  and  S_1 
REMARK    3  A    between atoms: C_17  and  N_4 
REMARK    4  A    between atoms: C_16  and  C_17 
ROOT
ATOM      1  N   UNL d   1     -50.113  24.972  33.481  0.00  0.00    -0.226 N 
ATOM      2  N   UNL d   1     -49.843  26.590  33.556  0.00  0.00    -0.300 N 
ATOM      3  C   UNL d   1     -50.733  25.482  33.695  0.00  0.00     0.111 A 
ATOM      4  C   UNL d   1     -49.365  25.273  33.307  0.00  0.00     0.111 A 
ATOM      5  C   UNL d   1     -49.234  26.087  33.346  0.00  0.00     0.100 A 
ATOM      6  C   UNL d   1     -50.589  26.303  33.731  0.00  0.00     0.100 A 
ENDROOT
BRANCH   1   7
ATOM      7  S   UNL d   1     -50.254  24.165  33.446  0.00  0.00     0.272 S 
ATOM      8  O   UNL d   1     -50.395  23.361  33.411  0.00  0.00    -0.200 OA
ATOM      9  O   UNL d   1     -49.450  24.023  33.472  0.00  0.00    -0.200 OA
BRANCH   7  10
ATOM     10  C   UNL d   1     -51.067  24.308  33.420  0.00  0.00     0.106 A 
ATOM     11  C   UNL d   1     -51.600  23.670  33.482  0.00  0.00     0.043 A 
ATOM     12  C   UNL d   1     -52.420  23.814  33.455  0.00  0.00     0.141 A 
ATOM     13  F   UNL d   1     -52.952  23.188  33.515  0.00  0.00    -0.204 F 
ATOM     14  C   UNL d   1     -52.698  24.596  33.366  0.00  0.00     0.030 A 
ATOM     15  C   UNL d   1     -52.168  25.213  33.307  0.00  0.00     0.003 A 
ATOM     16  C   UNL d   1     -51.348  25.069  33.333  0.00  0.00     0.013 A 
ENDBRANCH   7  10
ENDBRANCH   1   7
BRANCH   2  17
ATOM     17  C   UNL d   1     -49.700  27.402  33.591  0.00  0.00     0.080 C 
BRANCH  17  18
ATOM     18  C   UNL d   1     -49.293  27.722  34.231  0.00  0.00     0.020 A 
ATOM     19  C   UNL d   1     -48.886  28.425  34.135  0.00  0.00     0.028 A 
ATOM     20  C   UNL d   1     -48.474  28.755  34.771  0.00  0.00     0.119 A 
ATOM     21  O   UNL d   1     -48.020  29.445  34.845  0.00  0.00    -0.300 OA
ATOM     22  C   UNL d   1     -48.477  28.367  35.499  0.00  0.00     0.119 A 
ATOM     23  C   UNL d   1     -47.743  29.481  35.626  0.00  0.00     0.304 A 
ATOM     24  O   UNL d   1     -48.026  28.812  36.032  0.00  0.00    -0.300 OA
ATOM     25  C   UNL d   1     -48.889  27.655  35.595  0.00  0.00     0.026 A 
ATOM     26  C   UNL d   1     -49.297  27.333  34.959  0.00  0.00     0.004 A 
ENDBRANCH  17  18
ENDBRANCH   2  17
TORSDOF 4
ENDMDL
