MODEL 1
REMARK VINA RESULT:      -5.0      0.000      0.000
REMARK  4 active torsions:
REMARK  status: ('A' for Active; 'I' for Inactive)
REMARK    1  A    between atoms: C_4  and  C_1 
REMARK    2  A    between atoms: C_2  and  C_3 
REMARK    3  A    between atoms: O_7  and  C_13 
REMARK    4  A    between atoms: C_12  and  O_7 
ROOT
ATOM      1  O   UNL d   1     -41.123-121.981 -51.985  0.00  0.00    -0.307 OA
ENDROOT
BRANCH   1   2
ATOM      2  C   UNL d   1     -41.517-122.325 -51.341  0.00  0.00     0.100 A 
ATOM      3  C   UNL d   1     -41.241-123.032 -51.042  0.00  0.00     0.025 A 
ATOM      4  C   UNL d   1     -41.628-123.389 -50.396  0.00  0.00     0.005 A 
ATOM      5  C   UNL d   1     -42.275-123.037 -50.065  0.00  0.00     0.039 A 
ATOM      6  C   UNL d   1     -42.560-122.314 -50.368  0.00  0.00     0.005 A 
ATOM      7  C   UNL d   1     -42.175-121.955 -51.015  0.00  0.00     0.025 A 
BRANCH   5   8
ATOM      8  C   UNL d   1     -42.661-123.393 -49.419  0.00  0.00     0.196 C 
ATOM      9  O   UNL d   1     -43.494-123.381 -49.363  0.00  0.00    -0.287 OA
ATOM     10  C   UNL d   1     -42.238-123.768 -48.819  0.00  0.00     0.045 C 
ENDBRANCH   5   8
ENDBRANCH   1   2
BRANCH   1  11
ATOM     11  C   UNL d   1     -41.414-122.058 -52.765  0.00  0.00     0.100 A 
ATOM     12  C   UNL d   1     -41.130-122.693 -53.212  0.00  0.00     0.025 A 
ATOM     13  C   UNL d   1     -41.421-122.772 -53.994  0.00  0.00     0.005 A 
ATOM     14  C   UNL d   1     -41.970-122.236 -54.308  0.00  0.00     0.039 A 
ATOM     15  C   UNL d   1     -42.228-121.619 -53.835  0.00  0.00     0.005 A 
ATOM     16  C   UNL d   1     -41.951-121.529 -53.065  0.00  0.00     0.025 A 
BRANCH  14  17
ATOM     17  C   UNL d   1     -42.249-122.312 -55.061  0.00  0.00     0.196 C 
ATOM     18  O   UNL d   1     -42.929-122.769 -55.213  0.00  0.00    -0.287 OA
ATOM     19  C   UNL d   1     -41.862-121.939 -55.679  0.00  0.00     0.045 C 
ENDBRANCH  14  17
ENDBRANCH   1  11
TORSDOF 4
ENDMDL
