MODEL 1
REMARK VINA RESULT:      -8.4      0.000      0.000
REMARK  5 active torsions:
REMARK  status: ('A' for Active; 'I' for Inactive)
REMARK    1  A    between atoms: N_2  and  C_1 
REMARK    2  A    between atoms: C_13  and  N_6 
REMARK    3  A    between atoms: C_12  and  C_7 
REMARK    4  A    between atoms: O_22  and  C_19 
REMARK    5  A    between atoms: C_25  and  O_22 
ROOT
ATOM      1  N   UNL d   1      53.830  33.481  54.490  0.00  0.00    -0.288 N 
ATOM      2  C   UNL d   1      53.269  34.040  54.245  0.00  0.00     0.196 A 
ATOM      3  S   UNL d   1      53.352  34.693  54.750  0.00  0.00    -0.092 SA
ATOM      4  C   UNL d   1      54.243  33.791  55.128  0.00  0.00     0.268 A 
ATOM      5  C   UNL d   1      53.924  34.558  55.276  0.00  0.00     0.093 A 
ATOM      6  O   UNL d   1      54.838  33.422  55.529  0.00  0.00    -0.266 OA
ENDROOT
BRANCH   1   7
ATOM      7  C   UNL d   1      53.889  32.777  54.104  0.00  0.00     0.139 A 
ATOM      8  C   UNL d   1      53.440  32.145  54.281  0.00  0.00     0.296 A 
ATOM      9  N   UNL d   1      53.644  31.530  53.786  0.00  0.00    -0.209 N 
ATOM     10  O   UNL d   1      52.855  32.128  54.884  0.00  0.00    -0.264 OA
ATOM     11  N   UNL d   1      54.229  31.796  53.298  0.00  0.00    -0.238 N 
ATOM     12  C   UNL d   1      54.382  32.592  53.505  0.00  0.00     0.102 A 
ATOM     13  C   UNL d   1      54.600  31.369  52.715  0.00  0.00     0.120 C 
ATOM     14  C   UNL d   1      54.947  33.116  53.158  0.00  0.00     0.022 C 
BRANCH   9  15
ATOM     15  C   UNL d   1      53.378  30.764  53.711  0.00  0.00     0.085 A 
ATOM     16  C   UNL d   1      53.647  30.178  54.218  0.00  0.00     0.019 A 
ATOM     17  C   UNL d   1      53.378  29.412  54.140  0.00  0.00     0.002 A 
ATOM     18  C   UNL d   1      52.835  29.209  53.557  0.00  0.00     0.000 A 
ATOM     19  C   UNL d   1      52.571  29.806  53.054  0.00  0.00     0.002 A 
ATOM     20  C   UNL d   1      52.837  30.568  53.129  0.00  0.00     0.019 A 
ENDBRANCH   9  15
ENDBRANCH   1   7
BRANCH   2  21
ATOM     21  C   UNL d   1      52.689  34.108  53.670  0.00  0.00    -0.001 A 
ATOM     22  C   UNL d   1      52.839  34.362  52.829  0.00  0.00    -0.000 A 
ATOM     23  C   UNL d   1      52.160  34.409  52.275  0.00  0.00     0.024 A 
ATOM     24  C   UNL d   1      51.374  34.204  52.579  0.00  0.00     0.100 A 
ATOM     25  C   UNL d   1      51.267  33.970  53.371  0.00  0.00     0.024 A 
ATOM     26  C   UNL d   1      51.896  33.915  53.925  0.00  0.00    -0.000 A 
BRANCH  24  27
ATOM     27  O   UNL d   1      50.763  34.255  52.048  0.00  0.00    -0.305 OA
BRANCH  27  28
ATOM     28  C   UNL d   1      49.951  34.487  52.346  0.00  0.00     0.123 C 
ATOM     29  C   UNL d   1      49.338  34.586  51.778  0.00  0.00     0.029 C 
ENDBRANCH  27  28
ENDBRANCH  24  27
ENDBRANCH   2  21
TORSDOF 5
ENDMDL
MODEL 2
REMARK VINA RESULT:      -5.9      1.208      3.671
REMARK  5 active torsions:
REMARK  status: ('A' for Active; 'I' for Inactive)
REMARK    1  A    between atoms: N_2  and  C_1 
REMARK    2  A    between atoms: C_13  and  N_6 
REMARK    3  A    between atoms: C_12  and  C_7 
REMARK    4  A    between atoms: O_22  and  C_19 
REMARK    5  A    between atoms: C_25  and  O_22 
ROOT
ATOM      1  N   UNL d   1      53.637  34.007  54.459  0.00  0.00    -0.288 N 
ATOM      2  C   UNL d   1      53.953  33.248  54.565  0.00  0.00     0.196 A 
ATOM      3  S   UNL d   1      54.476  33.299  55.207  0.00  0.00    -0.092 SA
ATOM      4  C   UNL d   1      53.962  34.505  55.024  0.00  0.00     0.268 A 
ATOM      5  C   UNL d   1      54.490  34.037  55.487  0.00  0.00     0.093 A 
ATOM      6  O   UNL d   1      53.800  35.290  55.111  0.00  0.00    -0.266 OA
ENDROOT
BRANCH   1   7
ATOM      7  C   UNL d   1      53.103  34.140  53.871  0.00  0.00     0.139 A 
ATOM      8  C   UNL d   1      52.319  34.049  53.965  0.00  0.00     0.296 A 
ATOM      9  N   UNL d   1      51.946  34.230  53.263  0.00  0.00    -0.209 N 
ATOM     10  O   UNL d   1      51.949  33.806  54.679  0.00  0.00    -0.264 OA
ATOM     11  N   UNL d   1      52.518  34.434  52.731  0.00  0.00    -0.238 N 
ATOM     12  C   UNL d   1      53.254  34.375  53.124  0.00  0.00     0.102 A 
ATOM     13  C   UNL d   1      52.399  34.656  51.959  0.00  0.00     0.120 C 
ATOM     14  C   UNL d   1      54.022  34.532  52.807  0.00  0.00     0.022 C 
BRANCH   9  15
ATOM     15  C   UNL d   1      51.165  34.236  53.033  0.00  0.00     0.085 A 
ATOM     16  C   UNL d   1      50.866  33.638  52.558  0.00  0.00     0.019 A 
ATOM     17  C   UNL d   1      50.082  33.648  52.329  0.00  0.00     0.002 A 
ATOM     18  C   UNL d   1      49.577  34.251  52.569  0.00  0.00     0.000 A 
ATOM     19  C   UNL d   1      49.889  34.846  53.047  0.00  0.00     0.002 A 
ATOM     20  C   UNL d   1      50.667  34.839  53.274  0.00  0.00     0.019 A 
ENDBRANCH   9  15
ENDBRANCH   1   7
BRANCH   2  21
ATOM     21  C   UNL d   1      53.886  32.507  54.220  0.00  0.00    -0.001 A 
ATOM     22  C   UNL d   1      54.254  32.276  53.443  0.00  0.00    -0.000 A 
ATOM     23  C   UNL d   1      54.132  31.459  53.145  0.00  0.00     0.024 A 
ATOM     24  C   UNL d   1      53.657  30.918  53.628  0.00  0.00     0.100 A 
ATOM     25  C   UNL d   1      53.326  31.166  54.351  0.00  0.00     0.024 A 
ATOM     26  C   UNL d   1      53.424  31.940  54.663  0.00  0.00    -0.000 A 
BRANCH  24  27
ATOM     27  O   UNL d   1      53.559  30.170  53.331  0.00  0.00    -0.305 OA
BRANCH  27  28
ATOM     28  C   UNL d   1      52.734  29.895  53.118  0.00  0.00     0.123 C 
ATOM     29  C   UNL d   1      52.599  29.067  53.060  0.00  0.00     0.029 C 
ENDBRANCH  27  28
ENDBRANCH  24  27
ENDBRANCH   2  21
TORSDOF 5
ENDMDL
