MODEL 1
REMARK VINA RESULT:      -2.9      0.000      0.000
REMARK  2 active torsions:
REMARK  status: ('A' for Active; 'I' for Inactive)
REMARK    1  A    between atoms: N_2  and  S_1 
REMARK    2  A    between atoms: C_3  and  S_1 
ROOT
ATOM      1  N   UNL d   1      30.326  16.925 -24.405  0.00  0.00    -0.231 N 
ATOM      2  C   UNL d   1      29.869  16.426 -23.925  0.00  0.00     0.075 A 
ATOM      3  C   UNL d   1      29.776  17.357 -24.877  0.00  0.00     0.092 A 
ATOM      4  C   UNL d   1      29.055  16.563 -24.111  0.00  0.00     0.018 A 
ATOM      5  C   UNL d   1      29.032  17.140 -24.699  0.00  0.00     0.021 A 
ATOM      6  C   UNL d   1      30.055  15.876 -23.354  0.00  0.00     0.018 A 
ATOM      7  C   UNL d   1      28.471  16.149 -23.724  0.00  0.00     0.002 A 
ATOM      8  C   UNL d   1      29.467  15.453 -22.959  0.00  0.00     0.002 A 
ATOM      9  C   UNL d   1      28.671  15.594 -23.148  0.00  0.00     0.000 A 
ENDROOT
BRANCH   1  10
ATOM     10  S   UNL d   1      31.131  17.046 -24.482  0.00  0.00     0.277 S 
ATOM     11  O   UNL d   1      31.097  17.688 -23.937  0.00  0.00    -0.199 OA
ATOM     12  O   UNL d   1      31.188  16.404 -25.032  0.00  0.00    -0.199 OA
BRANCH  10  13
ATOM     13  C   UNL d   1      31.938  17.178 -24.549  0.00  0.00     0.133 A 
ATOM     14  S   UNL d   1      32.473  16.825 -25.095  0.00  0.00    -0.074 SA
ATOM     15  C   UNL d   1      33.220  17.122 -24.958  0.00  0.00     0.036 A 
ATOM     16  C   UNL d   1      33.203  17.663 -24.339  0.00  0.00     0.008 A 
ATOM     17  C   UNL d   1      32.411  17.699 -24.085  0.00  0.00     0.020 A 
ENDBRANCH  10  13
ENDBRANCH   1  10
TORSDOF 2
ENDMDL
MODEL 2
REMARK VINA RESULT:      -2.9      1.284      3.487
REMARK  2 active torsions:
REMARK  status: ('A' for Active; 'I' for Inactive)
REMARK    1  A    between atoms: N_2  and  S_1 
REMARK    2  A    between atoms: C_3  and  S_1 
ROOT
ATOM      1  N   UNL d   1      31.265  16.073 -23.762  0.00  0.00    -0.231 N 
ATOM      2  C   UNL d   1      31.720  16.765 -23.819  0.00  0.00     0.075 A 
ATOM      3  C   UNL d   1      31.811  15.453 -23.589  0.00  0.00     0.092 A 
ATOM      4  C   UNL d   1      32.528  16.554 -23.680  0.00  0.00     0.018 A 
ATOM      5  C   UNL d   1      32.550  15.743 -23.542  0.00  0.00     0.021 A 
ATOM      6  C   UNL d   1      31.536  17.543 -23.972  0.00  0.00     0.018 A 
ATOM      7  C   UNL d   1      33.108  17.124 -23.701  0.00  0.00     0.002 A 
ATOM      8  C   UNL d   1      32.121  18.125 -23.994  0.00  0.00     0.002 A 
ATOM      9  C   UNL d   1      32.911  17.910 -23.857  0.00  0.00     0.000 A 
ENDROOT
BRANCH   1  10
ATOM     10  S   UNL d   1      30.466  15.920 -23.839  0.00  0.00     0.277 S 
ATOM     11  O   UNL d   1      30.359  16.000 -23.007  0.00  0.00    -0.199 OA
ATOM     12  O   UNL d   1      30.550  15.835 -24.678  0.00  0.00    -0.199 OA
BRANCH  10  13
ATOM     13  C   UNL d   1      29.663  15.767 -23.903  0.00  0.00     0.133 A 
ATOM     14  S   UNL d   1      29.234  15.545 -24.592  0.00  0.00    -0.074 SA
ATOM     15  C   UNL d   1      28.448  15.453 -24.393  0.00  0.00     0.036 A 
ATOM     16  C   UNL d   1      28.337  15.605 -23.593  0.00  0.00     0.008 A 
ATOM     17  C   UNL d   1      29.086  15.800 -23.287  0.00  0.00     0.020 A 
ENDBRANCH  10  13
ENDBRANCH   1  10
TORSDOF 2
ENDMDL
MODEL 3
REMARK VINA RESULT:      -2.8      0.950      1.508
REMARK  2 active torsions:
REMARK  status: ('A' for Active; 'I' for Inactive)
REMARK    1  A    between atoms: N_2  and  S_1 
REMARK    2  A    between atoms: C_3  and  S_1 
ROOT
ATOM      1  N   UNL d   1      31.178  16.758 -23.961  0.00  0.00    -0.231 N 
ATOM      2  C   UNL d   1      30.352  16.740 -24.040  0.00  0.00     0.075 A 
ATOM      3  C   UNL d   1      31.390  16.026 -23.597  0.00  0.00     0.092 A 
ATOM      4  C   UNL d   1      30.078  16.004 -23.726  0.00  0.00     0.018 A 
ATOM      5  C   UNL d   1      30.739  15.589 -23.462  0.00  0.00     0.021 A 
ATOM      6  C   UNL d   1      29.809  17.266 -24.343  0.00  0.00     0.018 A 
ATOM      7  C   UNL d   1      29.284  15.828 -23.728  0.00  0.00     0.002 A 
ATOM      8  C   UNL d   1      29.002  17.093 -24.348  0.00  0.00     0.002 A 
ATOM      9  C   UNL d   1      28.742  16.368 -24.038  0.00  0.00     0.000 A 
ENDROOT
BRANCH   1  10
ATOM     10  S   UNL d   1      31.748  17.309 -24.157  0.00  0.00     0.277 S 
ATOM     11  O   UNL d   1      31.732  17.622 -23.374  0.00  0.00    -0.199 OA
ATOM     12  O   UNL d   1      31.781  17.013 -24.950  0.00  0.00    -0.199 OA
BRANCH  10  13
ATOM     13  C   UNL d   1      32.320  17.868 -24.342  0.00  0.00     0.133 A 
ATOM     14  S   UNL d   1      32.688  18.419 -23.822  0.00  0.00    -0.074 SA
ATOM     15  C   UNL d   1      33.222  18.864 -24.248  0.00  0.00     0.036 A 
ATOM     16  C   UNL d   1      33.223  18.630 -25.037  0.00  0.00     0.008 A 
ATOM     17  C   UNL d   1      32.667  18.015 -25.097  0.00  0.00     0.020 A 
ENDBRANCH  10  13
ENDBRANCH   1  10
TORSDOF 2
ENDMDL
MODEL 4
REMARK VINA RESULT:      -2.6      1.063      3.228
REMARK  2 active torsions:
REMARK  status: ('A' for Active; 'I' for Inactive)
REMARK    1  A    between atoms: N_2  and  S_1 
REMARK    2  A    between atoms: C_3  and  S_1 
ROOT
ATOM      1  N   UNL d   1      30.778  17.071 -24.476  0.00  0.00    -0.231 N 
ATOM      2  C   UNL d   1      31.524  17.014 -24.116  0.00  0.00     0.075 A 
ATOM      3  C   UNL d   1      30.858  17.654 -25.081  0.00  0.00     0.092 A 
ATOM      4  C   UNL d   1      32.040  17.561 -24.506  0.00  0.00     0.018 A 
ATOM      5  C   UNL d   1      31.601  17.937 -25.093  0.00  0.00     0.021 A 
ATOM      6  C   UNL d   1      31.816  16.563 -23.506  0.00  0.00     0.018 A 
ATOM      7  C   UNL d   1      32.815  17.629 -24.271  0.00  0.00     0.002 A 
ATOM      8  C   UNL d   1      32.602  16.628 -23.263  0.00  0.00     0.002 A 
ATOM      9  C   UNL d   1      33.102  17.166 -23.651  0.00  0.00     0.000 A 
ENDROOT
BRANCH   1  10
ATOM     10  S   UNL d   1      30.065  16.693 -24.349  0.00  0.00     0.277 S 
ATOM     11  O   UNL d   1      29.782  17.351 -23.905  0.00  0.00    -0.199 OA
ATOM     12  O   UNL d   1      30.327  16.020 -24.792  0.00  0.00    -0.199 OA
BRANCH  10  13
ATOM     13  C   UNL d   1      29.344  16.325 -24.214  0.00  0.00     0.133 A 
ATOM     14  S   UNL d   1      29.003  15.687 -24.646  0.00  0.00    -0.074 SA
ATOM     15  C   UNL d   1      28.281  15.503 -24.313  0.00  0.00     0.036 A 
ATOM     16  C   UNL d   1      28.128  15.995 -23.673  0.00  0.00     0.008 A 
ATOM     17  C   UNL d   1      28.783  16.504 -23.609  0.00  0.00     0.020 A 
ENDBRANCH  10  13
ENDBRANCH   1  10
TORSDOF 2
ENDMDL
MODEL 5
REMARK VINA RESULT:      -1.6      1.756      2.587
REMARK  2 active torsions:
REMARK  status: ('A' for Active; 'I' for Inactive)
REMARK    1  A    between atoms: N_2  and  S_1 
REMARK    2  A    between atoms: C_3  and  S_1 
ROOT
ATOM      1  N   UNL d   1      32.112  17.669 -24.175  0.00  0.00    -0.231 N 
ATOM      2  C   UNL d   1      31.342  17.462 -24.404  0.00  0.00     0.075 A 
ATOM      3  C   UNL d   1      32.603  17.022 -24.406  0.00  0.00     0.092 A 
ATOM      4  C   UNL d   1      31.378  16.698 -24.768  0.00  0.00     0.018 A 
ATOM      5  C   UNL d   1      32.165  16.457 -24.754  0.00  0.00     0.021 A 
ATOM      6  C   UNL d   1      30.622  17.836 -24.343  0.00  0.00     0.018 A 
ATOM      7  C   UNL d   1      30.700  16.348 -25.051  0.00  0.00     0.002 A 
ATOM      8  C   UNL d   1      29.932  17.485 -24.629  0.00  0.00     0.002 A 
ATOM      9  C   UNL d   1      29.975  16.736 -24.985  0.00  0.00     0.000 A 
ENDROOT
BRANCH   1  10
ATOM     10  S   UNL d   1      32.429  18.324 -23.804  0.00  0.00     0.277 S 
ATOM     11  O   UNL d   1      32.185  18.818 -24.442  0.00  0.00    -0.199 OA
ATOM     12  O   UNL d   1      32.683  17.848 -23.150  0.00  0.00    -0.199 OA
BRANCH  10  13
ATOM     13  C   UNL d   1      32.743  18.991 -23.442  0.00  0.00     0.133 A 
ATOM     14  S   UNL d   1      32.941  19.090 -22.630  0.00  0.00    -0.074 SA
ATOM     15  C   UNL d   1      33.235  19.843 -22.523  0.00  0.00     0.036 A 
ATOM     16  C   UNL d   1      33.241  20.251 -23.237  0.00  0.00     0.008 A 
ATOM     17  C   UNL d   1      32.937  19.727 -23.806  0.00  0.00     0.020 A 
ENDBRANCH  10  13
ENDBRANCH   1  10
TORSDOF 2
ENDMDL
MODEL 6
REMARK VINA RESULT:      -1.3      5.817      7.077
REMARK  2 active torsions:
REMARK  status: ('A' for Active; 'I' for Inactive)
REMARK    1  A    between atoms: N_2  and  S_1 
REMARK    2  A    between atoms: C_3  and  S_1 
ROOT
ATOM      1  N   UNL d   1      32.630  21.724 -21.213  0.00  0.00    -0.231 N 
ATOM      2  C   UNL d   1      32.846  21.783 -22.013  0.00  0.00     0.075 A 
ATOM      3  C   UNL d   1      32.519  20.901 -21.066  0.00  0.00     0.092 A 
ATOM      4  C   UNL d   1      32.861  21.000 -22.334  0.00  0.00     0.018 A 
ATOM      5  C   UNL d   1      32.656  20.482 -21.728  0.00  0.00     0.021 A 
ATOM      6  C   UNL d   1      33.029  22.412 -22.496  0.00  0.00     0.018 A 
ATOM      7  C   UNL d   1      33.057  20.883 -23.115  0.00  0.00     0.002 A 
ATOM      8  C   UNL d   1      33.228  22.299 -23.289  0.00  0.00     0.002 A 
ATOM      9  C   UNL d   1      33.240  21.527 -23.597  0.00  0.00     0.000 A 
ENDROOT
BRANCH   1  10
ATOM     10  S   UNL d   1      32.523  22.275 -20.620  0.00  0.00     0.277 S 
ATOM     11  O   UNL d   1      33.241  22.034 -20.250  0.00  0.00    -0.199 OA
ATOM     12  O   UNL d   1      31.798  22.535 -20.974  0.00  0.00    -0.199 OA
BRANCH  10  13
ATOM     13  C   UNL d   1      32.427  22.825 -20.018  0.00  0.00     0.133 A 
ATOM     14  S   UNL d   1      33.024  23.166 -19.532  0.00  0.00    -0.074 SA
ATOM     15  C   UNL d   1      32.672  23.683 -19.010  0.00  0.00     0.036 A 
ATOM     16  C   UNL d   1      31.859  23.700 -19.129  0.00  0.00     0.008 A 
ATOM     17  C   UNL d   1      31.705  23.170 -19.751  0.00  0.00     0.020 A 
ENDBRANCH  10  13
ENDBRANCH   1  10
TORSDOF 2
ENDMDL
MODEL 7
REMARK VINA RESULT:      -1.0      6.941      7.974
REMARK  2 active torsions:
REMARK  status: ('A' for Active; 'I' for Inactive)
REMARK    1  A    between atoms: N_2  and  S_1 
REMARK    2  A    between atoms: C_3  and  S_1 
ROOT
ATOM      1  N   UNL d   1      32.583  22.744 -20.070  0.00  0.00    -0.231 N 
ATOM      2  C   UNL d   1      32.763  22.092 -20.550  0.00  0.00     0.075 A 
ATOM      3  C   UNL d   1      32.203  23.304 -20.574  0.00  0.00     0.092 A 
ATOM      4  C   UNL d   1      32.492  22.266 -21.333  0.00  0.00     0.018 A 
ATOM      5  C   UNL d   1      32.154  23.017 -21.314  0.00  0.00     0.021 A 
ATOM      6  C   UNL d   1      33.125  21.377 -20.407  0.00  0.00     0.018 A 
ATOM      7  C   UNL d   1      32.594  21.723 -21.930  0.00  0.00     0.002 A 
ATOM      8  C   UNL d   1      33.230  20.823 -21.010  0.00  0.00     0.002 A 
ATOM      9  C   UNL d   1      32.962  21.001 -21.775  0.00  0.00     0.000 A 
ENDROOT
BRANCH   1  10
ATOM     10  S   UNL d   1      32.702  22.907 -19.278  0.00  0.00     0.277 S 
ATOM     11  O   UNL d   1      32.410  22.145 -19.065  0.00  0.00    -0.199 OA
ATOM     12  O   UNL d   1      32.999  23.678 -19.467  0.00  0.00    -0.199 OA
BRANCH  10  13
ATOM     13  C   UNL d   1      32.817  23.057 -18.479  0.00  0.00     0.133 A 
ATOM     14  S   UNL d   1      32.541  22.605 -17.825  0.00  0.00    -0.074 SA
ATOM     15  C   UNL d   1      32.788  22.964 -17.136  0.00  0.00     0.036 A 
ATOM     16  C   UNL d   1      33.221  23.643 -17.307  0.00  0.00     0.008 A 
ATOM     17  C   UNL d   1      33.240  23.702 -18.136  0.00  0.00     0.020 A 
ENDBRANCH  10  13
ENDBRANCH   1  10
TORSDOF 2
ENDMDL
