MODEL 1
REMARK VINA RESULT:      -3.3      0.000      0.000
REMARK  7 active torsions:
REMARK  status: ('A' for Active; 'I' for Inactive)
REMARK    1  A    between atoms: C_2  and  C_1 
REMARK    2  A    between atoms: C_16  and  N_4 
REMARK    3  A    between atoms: C_14  and  C_21 
REMARK    4  A    between atoms: C_22  and  C_16 
REMARK    5  A    between atoms: C_21  and  C_23 
REMARK    6  A    between atoms: C_25  and  C_22 
REMARK    7  A    between atoms: C_23  and  C_25 
ROOT
ATOM      1  C   UNL d   1      58.948  -1.202  29.007  0.00  0.00     0.093 A 
ATOM      2  N   UNL d   1      58.345  -0.278  29.713  0.00  0.00    -0.259 N 
ATOM      3  C   UNL d   1      58.357  -0.034  28.939  0.00  0.00     0.153 A 
ATOM      4  C   UNL d   1      58.710  -0.998  29.752  0.00  0.00     0.272 A 
ATOM      5  S   UNL d   1      58.732  -0.610  28.500  0.00  0.00    -0.053 SA
ATOM      6  S   UNL d   1      58.036   0.682  28.667  0.00  0.00    -0.052 SA
ATOM      7  O   UNL d   1      58.822  -1.456  30.456  0.00  0.00    -0.266 OA
ENDROOT
BRANCH   1   8
ATOM      8  C   UNL d   1      59.343  -1.926  28.881  0.00  0.00     0.069 A 
ATOM      9  C   UNL d   1      60.165  -2.004  28.874  0.00  0.00     0.265 A 
ATOM     10  N   UNL d   1      60.354  -2.777  28.737  0.00  0.00    -0.272 N 
ATOM     11  O   UNL d   1      60.717  -1.387  28.991  0.00  0.00    -0.267 OA
ATOM     12  C   UNL d   1      61.133  -3.084  28.689  0.00  0.00     0.102 C 
ATOM     13  C   UNL d   1      59.655  -3.196  28.655  0.00  0.00     0.067 A 
ATOM     14  C   UNL d   1      59.020  -2.663  28.745  0.00  0.00     0.021 A 
ATOM     15  C   UNL d   1      59.504  -3.982  28.512  0.00  0.00     0.018 A 
ATOM     16  C   UNL d   1      58.244  -2.936  28.688  0.00  0.00     0.002 A 
ATOM     17  C   UNL d   1      58.066  -3.727  28.544  0.00  0.00     0.000 A 
ATOM     18  C   UNL d   1      58.719  -4.257  28.455  0.00  0.00     0.002 A 
ENDBRANCH   1   8
BRANCH   2  19
ATOM     19  C   UNL d   1      58.012   0.149  30.351  0.00  0.00     0.084 C 
BRANCH  19  20
ATOM     20  C   UNL d   1      57.431  -0.195  30.798  0.00  0.00     0.019 C 
BRANCH  20  21
ATOM     21  C   UNL d   1      57.192   0.170  31.511  0.00  0.00     0.002 C 
BRANCH  21  22
ATOM     22  C   UNL d   1      56.519  -0.085  31.880  0.00  0.00     0.006 C 
BRANCH  22  23
ATOM     23  C   UNL d   1      56.521  -0.190  32.709  0.00  0.00     0.070 C 
BRANCH  23  24
ATOM     24  C   UNL d   1      55.823  -0.185  33.119  0.00  0.00     0.211 C 
ATOM     25  O   UNL d   1      55.272   0.422  32.998  0.00  0.00    -0.644 OA
ATOM     26  O   UNL d   1      55.644  -0.775  33.661  0.00  0.00    -0.644 OA
ENDBRANCH  23  24
ENDBRANCH  22  23
ENDBRANCH  21  22
ENDBRANCH  20  21
ENDBRANCH  19  20
ENDBRANCH   2  19
TORSDOF 7
ENDMDL
