MODEL 1
REMARK VINA RESULT:      -6.9      0.000      0.000
REMARK  2 active torsions:
REMARK  status: ('A' for Active; 'I' for Inactive)
REMARK    1  A    between atoms: C_3  and  C_1 
REMARK       I    between atoms: C_2  and  N_4 
REMARK    2  A    between atoms: N_4  and  C_12 
ROOT
ATOM      1  C   UNL d   1     -46.875  12.978  22.720  0.00  0.00     0.072 A 
ATOM      2  C   UNL d   1     -47.509  12.964  22.191  0.00  0.00     0.005 A 
ATOM      3  C   UNL d   1     -46.900  12.521  23.408  0.00  0.00     0.005 A 
ATOM      4  C   UNL d   1     -48.192  12.035  23.038  0.00  0.00     0.100 A 
ATOM      5  C   UNL d   1     -48.167  12.493  22.350  0.00  0.00     0.020 A 
ATOM      6  C   UNL d   1     -47.559  12.049  23.566  0.00  0.00     0.020 A 
ENDROOT
BRANCH   1   7
ATOM      7  C   UNL d   1     -46.213  13.451  22.561  0.00  0.00     0.419 C 
ATOM      8  F   UNL d   1     -45.613  13.880  22.418  0.00  0.00    -0.166 F 
ATOM      9  F   UNL d   1     -45.456  13.234  22.202  0.00  0.00    -0.166 F 
ATOM     10  F   UNL d   1     -46.096  14.293  22.712  0.00  0.00    -0.166 F 
ENDBRANCH   1   7
BRANCH   4  11
ATOM     11  N   UNL d   1     -48.849  11.562  23.201  0.00  0.00    -0.056 NA
ATOM     12  C   UNL d   1     -49.533  11.894  23.531  0.00  0.00     0.787 C 
ATOM     13  N   UNL d   1     -50.192  11.425  23.696  0.00  0.00     0.064 N 
ATOM     14  N   UNL d   1     -49.550  12.704  23.696  0.00  0.00     0.064 N 
ENDBRANCH   4  11
TORSDOF 2
ENDMDL
MODEL 2
REMARK VINA RESULT:      -6.5      1.529      1.868
REMARK  2 active torsions:
REMARK  status: ('A' for Active; 'I' for Inactive)
REMARK    1  A    between atoms: C_3  and  C_1 
REMARK       I    between atoms: C_2  and  N_4 
REMARK    2  A    between atoms: N_4  and  C_12 
ROOT
ATOM      1  C   UNL d   1     -47.395  13.702  22.555  0.00  0.00     0.072 A 
ATOM      2  C   UNL d   1     -47.641  13.026  22.149  0.00  0.00     0.005 A 
ATOM      3  C   UNL d   1     -47.886  14.365  22.592  0.00  0.00     0.005 A 
ATOM      4  C   UNL d   1     -48.871  13.678  21.817  0.00  0.00     0.100 A 
ATOM      5  C   UNL d   1     -48.379  13.015  21.780  0.00  0.00     0.020 A 
ATOM      6  C   UNL d   1     -48.624  14.353  22.222  0.00  0.00     0.020 A 
ENDROOT
BRANCH   1   7
ATOM      7  C   UNL d   1     -46.654  13.715  22.926  0.00  0.00     0.419 C 
ATOM      8  F   UNL d   1     -45.981  13.727  23.262  0.00  0.00    -0.166 F 
ATOM      9  F   UNL d   1     -46.420  13.401  23.698  0.00  0.00    -0.166 F 
ATOM     10  F   UNL d   1     -45.908  14.047  22.644  0.00  0.00    -0.166 F 
ENDBRANCH   1   7
BRANCH   4  11
ATOM     11  N   UNL d   1     -49.610  13.671  21.448  0.00  0.00    -0.056 NA
ATOM     12  C   UNL d   1     -50.280  13.404  21.858  0.00  0.00     0.787 C 
ATOM     13  N   UNL d   1     -51.020  13.395  21.495  0.00  0.00     0.064 N 
ATOM     14  N   UNL d   1     -50.198  13.145  22.639  0.00  0.00     0.064 N 
ENDBRANCH   4  11
TORSDOF 2
ENDMDL
MODEL 3
REMARK VINA RESULT:      -6.3      2.950      3.600
REMARK  2 active torsions:
REMARK  status: ('A' for Active; 'I' for Inactive)
REMARK    1  A    between atoms: C_3  and  C_1 
REMARK       I    between atoms: C_2  and  N_4 
REMARK    2  A    between atoms: N_4  and  C_12 
ROOT
ATOM      1  C   UNL d   1     -49.504  12.286  22.908  0.00  0.00     0.072 A 
ATOM      2  C   UNL d   1     -49.021  11.928  22.341  0.00  0.00     0.005 A 
ATOM      3  C   UNL d   1     -49.269  12.993  23.265  0.00  0.00     0.005 A 
ATOM      4  C   UNL d   1     -48.069  12.986  22.490  0.00  0.00     0.100 A 
ATOM      5  C   UNL d   1     -48.304  12.279  22.132  0.00  0.00     0.020 A 
ATOM      6  C   UNL d   1     -48.551  13.343  23.056  0.00  0.00     0.020 A 
ENDROOT
BRANCH   1   7
ATOM      7  C   UNL d   1     -50.225  11.935  23.118  0.00  0.00     0.419 C 
ATOM      8  F   UNL d   1     -50.879  11.617  23.308  0.00  0.00    -0.166 F 
ATOM      9  F   UNL d   1     -50.382  11.300  23.684  0.00  0.00    -0.166 F 
ATOM     10  F   UNL d   1     -51.020  12.107  22.829  0.00  0.00    -0.166 F 
ENDBRANCH   1   7
BRANCH   4  11
ATOM     11  N   UNL d   1     -47.351  13.340  22.284  0.00  0.00    -0.056 NA
ATOM     12  C   UNL d   1     -46.660  13.163  22.706  0.00  0.00     0.787 C 
ATOM     13  N   UNL d   1     -45.942  13.514  22.504  0.00  0.00     0.064 N 
ATOM     14  N   UNL d   1     -46.697  12.628  23.335  0.00  0.00     0.064 N 
ENDBRANCH   4  11
TORSDOF 2
ENDMDL
MODEL 4
REMARK VINA RESULT:      -6.2      2.608      3.308
REMARK  2 active torsions:
REMARK  status: ('A' for Active; 'I' for Inactive)
REMARK    1  A    between atoms: C_3  and  C_1 
REMARK       I    between atoms: C_2  and  N_4 
REMARK    2  A    between atoms: N_4  and  C_12 
ROOT
ATOM      1  C   UNL d   1     -49.877  12.921  21.923  0.00  0.00     0.072 A 
ATOM      2  C   UNL d   1     -50.039  12.576  22.656  0.00  0.00     0.005 A 
ATOM      3  C   UNL d   1     -49.182  12.731  21.520  0.00  0.00     0.005 A 
ATOM      4  C   UNL d   1     -48.808  11.849  22.581  0.00  0.00     0.100 A 
ATOM      5  C   UNL d   1     -49.503  12.040  22.984  0.00  0.00     0.020 A 
ATOM      6  C   UNL d   1     -48.647  12.194  21.849  0.00  0.00     0.020 A 
ENDROOT
BRANCH   1   7
ATOM      7  C   UNL d   1     -50.414  13.460  21.592  0.00  0.00     0.419 C 
ATOM      8  F   UNL d   1     -50.900  13.947  21.292  0.00  0.00    -0.166 F 
ATOM      9  F   UNL d   1     -50.472  14.316  21.704  0.00  0.00    -0.166 F 
ATOM     10  F   UNL d   1     -51.063  13.314  21.043  0.00  0.00    -0.166 F 
ENDBRANCH   1   7
BRANCH   4  11
ATOM     11  N   UNL d   1     -48.270  11.313  22.906  0.00  0.00    -0.056 NA
ATOM     12  C   UNL d   1     -47.639  11.583  23.371  0.00  0.00     0.787 C 
ATOM     13  N   UNL d   1     -47.100  11.052  23.698  0.00  0.00     0.064 N 
ATOM     14  N   UNL d   1     -47.555  12.395  23.506  0.00  0.00     0.064 N 
ENDBRANCH   4  11
TORSDOF 2
ENDMDL
