MODEL 1
REMARK VINA RESULT:      -6.7      0.000      0.000
REMARK  5 active torsions:
REMARK  status: ('A' for Active; 'I' for Inactive)
REMARK    1  A    between atoms: N_2  and  S_1 
REMARK    2  A    between atoms: C_4  and  S_1 
REMARK    3  A    between atoms: C_3  and  N_2 
REMARK    4  A    between atoms: N_7  and  C_3 
REMARK    5  A    between atoms: C_12  and  N_7 
ROOT
ATOM      1  S   UNL d   1     -41.538-122.621 -53.124  0.00  0.00     0.287 S 
ATOM      2  O   UNL d   1     -41.206-121.871 -53.009  0.00  0.00    -0.198 OA
ATOM      3  O   UNL d   1     -41.875-123.370 -53.257  0.00  0.00    -0.198 OA
ENDROOT
BRANCH   1   4
ATOM      4  N   UNL d   1     -41.342-122.837 -52.350  0.00  0.00    -0.128 NA
BRANCH   4   5
ATOM      5  C   UNL d   1     -41.451-122.727 -51.538  0.00  0.00     0.232 C 
ATOM      6  S   UNL d   1     -41.123-122.074 -51.160  0.00  0.00    -0.036 SA
BRANCH   5   7
ATOM      7  N   UNL d   1     -41.890-123.277 -51.113  0.00  0.00    -0.217 NA
BRANCH   7   8
ATOM      8  C   UNL d   1     -41.817-123.309 -50.293  0.00  0.00     0.084 A 
ATOM      9  C   UNL d   1     -42.371-122.931 -49.823  0.00  0.00     0.019 A 
ATOM     10  C   UNL d   1     -42.304-122.959 -49.007  0.00  0.00     0.002 A 
ATOM     11  C   UNL d   1     -41.678-123.368 -48.661  0.00  0.00     0.000 A 
ATOM     12  C   UNL d   1     -41.126-123.744 -49.145  0.00  0.00     0.002 A 
ATOM     13  C   UNL d   1     -41.194-123.715 -49.949  0.00  0.00     0.019 A 
ENDBRANCH   7   8
ENDBRANCH   5   7
ENDBRANCH   4   5
ENDBRANCH   1   4
BRANCH   1  14
ATOM     14  C   UNL d   1     -41.736-122.403 -53.907  0.00  0.00     0.105 A 
ATOM     15  C   UNL d   1     -41.306-122.716 -54.541  0.00  0.00     0.015 A 
ATOM     16  C   UNL d   1     -41.499-122.504 -55.312  0.00  0.00     0.030 A 
ATOM     17  C   UNL d   1     -42.127-121.973 -55.470  0.00  0.00     0.140 A 
ATOM     18  C   UNL d   1     -42.554-121.663 -54.826  0.00  0.00     0.030 A 
ATOM     19  F   UNL d   1     -42.311-121.768 -56.239  0.00  0.00    -0.204 F 
ATOM     20  C   UNL d   1     -42.361-121.876 -54.050  0.00  0.00     0.015 A 
ENDBRANCH   1  14
TORSDOF 5
ENDMDL
MODEL 2
REMARK VINA RESULT:      -6.0      2.147      4.801
REMARK  5 active torsions:
REMARK  status: ('A' for Active; 'I' for Inactive)
REMARK    1  A    between atoms: N_2  and  S_1 
REMARK    2  A    between atoms: C_4  and  S_1 
REMARK    3  A    between atoms: C_3  and  N_2 
REMARK    4  A    between atoms: N_7  and  C_3 
REMARK    5  A    between atoms: C_12  and  N_7 
ROOT
ATOM      1  S   UNL d   1     -41.778-122.691 -51.005  0.00  0.00     0.287 S 
ATOM      2  O   UNL d   1     -42.432-122.183 -51.004  0.00  0.00    -0.198 OA
ATOM      3  O   UNL d   1     -41.123-123.204 -50.989  0.00  0.00    -0.198 OA
ENDROOT
BRANCH   1   4
ATOM      4  N   UNL d   1     -41.672-122.568 -51.816  0.00  0.00    -0.128 NA
BRANCH   4   5
ATOM      5  C   UNL d   1     -41.380-122.842 -52.539  0.00  0.00     0.232 C 
ATOM      6  S   UNL d   1     -41.346-123.650 -52.694  0.00  0.00    -0.036 SA
BRANCH   5   7
ATOM      7  N   UNL d   1     -41.123-122.300 -53.101  0.00  0.00    -0.217 NA
BRANCH   7   8
ATOM      8  C   UNL d   1     -41.475-122.289 -53.845  0.00  0.00     0.084 A 
ATOM      9  C   UNL d   1     -42.105-121.785 -53.986  0.00  0.00     0.019 A 
ATOM     10  C   UNL d   1     -42.460-121.769 -54.725  0.00  0.00     0.002 A 
ATOM     11  C   UNL d   1     -42.181-122.260 -55.324  0.00  0.00     0.000 A 
ATOM     12  C   UNL d   1     -41.545-122.763 -55.170  0.00  0.00     0.002 A 
ATOM     13  C   UNL d   1     -41.197-122.777 -54.441  0.00  0.00     0.019 A 
ENDBRANCH   7   8
ENDBRANCH   5   7
ENDBRANCH   4   5
ENDBRANCH   1   4
BRANCH   1  14
ATOM     14  C   UNL d   1     -41.884-122.816 -50.185  0.00  0.00     0.105 A 
ATOM     15  C   UNL d   1     -42.634-122.716 -49.849  0.00  0.00     0.015 A 
ATOM     16  C   UNL d   1     -42.742-122.838 -49.042  0.00  0.00     0.030 A 
ATOM     17  C   UNL d   1     -42.102-123.064 -48.550  0.00  0.00     0.140 A 
ATOM     18  C   UNL d   1     -41.351-123.162 -48.896  0.00  0.00     0.030 A 
ATOM     19  F   UNL d   1     -42.218-123.183 -47.751  0.00  0.00    -0.204 F 
ATOM     20  C   UNL d   1     -41.242-123.039 -49.708  0.00  0.00     0.015 A 
ENDBRANCH   1  14
TORSDOF 5
ENDMDL
MODEL 3
REMARK VINA RESULT:      -4.0      1.488      2.264
REMARK  5 active torsions:
REMARK  status: ('A' for Active; 'I' for Inactive)
REMARK    1  A    between atoms: N_2  and  S_1 
REMARK    2  A    between atoms: C_4  and  S_1 
REMARK    3  A    between atoms: C_3  and  N_2 
REMARK    4  A    between atoms: N_7  and  C_3 
REMARK    5  A    between atoms: C_12  and  N_7 
ROOT
ATOM      1  S   UNL d   1     -41.721-122.936 -51.225  0.00  0.00     0.287 S 
ATOM      2  O   UNL d   1     -41.817-123.756 -51.299  0.00  0.00    -0.198 OA
ATOM      3  O   UNL d   1     -41.621-122.112 -51.168  0.00  0.00    -0.198 OA
ENDROOT
BRANCH   1   4
ATOM      4  N   UNL d   1     -41.871-122.983 -50.413  0.00  0.00    -0.128 NA
BRANCH   4   5
ATOM      5  C   UNL d   1     -42.421-122.987 -49.796  0.00  0.00     0.232 C 
ATOM      6  S   UNL d   1     -43.137-123.382 -49.882  0.00  0.00    -0.036 SA
BRANCH   5   7
ATOM      7  N   UNL d   1     -42.245-122.594 -49.096  0.00  0.00    -0.217 NA
BRANCH   7   8
ATOM      8  C   UNL d   1     -42.278-123.002 -48.381  0.00  0.00     0.084 A 
ATOM      9  C   UNL d   1     -41.623-123.007 -47.889  0.00  0.00     0.019 A 
ATOM     10  C   UNL d   1     -41.649-123.410 -47.176  0.00  0.00     0.002 A 
ATOM     11  C   UNL d   1     -42.335-123.810 -46.957  0.00  0.00     0.000 A 
ATOM     12  C   UNL d   1     -42.989-123.797 -47.461  0.00  0.00     0.002 A 
ATOM     13  C   UNL d   1     -42.960-123.399 -48.162  0.00  0.00     0.019 A 
ENDBRANCH   7   8
ENDBRANCH   5   7
ENDBRANCH   4   5
ENDBRANCH   1   4
BRANCH   1  14
ATOM     14  C   UNL d   1     -41.569-122.888 -52.046  0.00  0.00     0.105 A 
ATOM     15  C   UNL d   1     -41.694-122.175 -52.445  0.00  0.00     0.015 A 
ATOM     16  C   UNL d   1     -41.546-122.124 -53.253  0.00  0.00     0.030 A 
ATOM     17  C   UNL d   1     -41.269-122.788 -53.683  0.00  0.00     0.140 A 
ATOM     18  C   UNL d   1     -41.146-123.502 -53.274  0.00  0.00     0.030 A 
ATOM     19  F   UNL d   1     -41.124-122.729 -54.484  0.00  0.00    -0.204 F 
ATOM     20  C   UNL d   1     -41.295-123.553 -52.461  0.00  0.00     0.015 A 
ENDBRANCH   1  14
TORSDOF 5
ENDMDL
