MODEL 1
REMARK VINA RESULT:      -2.9      0.000      0.000
REMARK  3 active torsions:
REMARK  status: ('A' for Active; 'I' for Inactive)
REMARK    1  A    between atoms: C_4  and  C_1 
REMARK       I    between atoms: N_8  and  C_1 
REMARK    2  A    between atoms: S_14  and  C_2 
REMARK    3  A    between atoms: C_10  and  N_8 
ROOT
ATOM      1  C   UNL d   1      32.819  23.265 -18.289  0.00  0.00     0.136 A 
ATOM      2  N   UNL d   1      32.477  23.687 -18.909  0.00  0.00    -0.232 NA
ATOM      3  S   UNL d   1      33.149  22.580 -18.545  0.00  0.00    -0.060 SA
ATOM      4  C   UNL d   1      33.016  22.557 -19.365  0.00  0.00     0.051 A 
ATOM      5  C   UNL d   1      32.600  23.243 -19.584  0.00  0.00     0.089 A 
ATOM      6  C   UNL d   1      33.219  22.001 -19.936  0.00  0.00     0.027 A 
ATOM      7  C   UNL d   1      33.009  22.124 -20.733  0.00  0.00     0.085 A 
ATOM      8  C   UNL d   1      32.393  23.365 -20.372  0.00  0.00     0.021 A 
ATOM      9  C   UNL d   1      32.596  22.809 -20.943  0.00  0.00     0.021 A 
ENDROOT
BRANCH   7  10
ATOM     10  N   UNL d   1      33.216  21.560 -21.314  0.00  0.00    -0.208 NA
ATOM     11  C   UNL d   1      32.631  21.060 -21.612  0.00  0.00     0.283 C 
ATOM     12  O   UNL d   1      31.858  21.104 -21.354  0.00  0.00    -0.265 OA
BRANCH  11  13
ATOM     13  C   UNL d   1      32.837  20.498 -22.190  0.00  0.00     0.113 A 
ATOM     14  C   UNL d   1      32.934  20.744 -22.971  0.00  0.00     0.147 A 
ATOM     15  F   UNL d   1      32.829  21.551 -23.190  0.00  0.00    -0.204 F 
ATOM     16  C   UNL d   1      33.142  20.176 -23.555  0.00  0.00     0.030 A 
ATOM     17  C   UNL d   1      33.241  19.393 -23.327  0.00  0.00     0.005 A 
ATOM     18  C   UNL d   1      33.145  19.150 -22.556  0.00  0.00     0.030 A 
ATOM     19  C   UNL d   1      32.937  19.718 -21.971  0.00  0.00     0.147 A 
ATOM     20  F   UNL d   1      32.835  19.484 -21.177  0.00  0.00    -0.204 F 
ENDBRANCH  11  13
ENDBRANCH   7  10
BRANCH   1  21
ATOM     21  S   UNL d   1      32.819  23.517 -17.510  0.00  0.00    -0.087 SA
ATOM     22  C   UNL d   1      33.039  23.003 -16.921  0.00  0.00     0.076 C 
ENDBRANCH   1  21
TORSDOF 3
ENDMDL
MODEL 2
REMARK VINA RESULT:      -2.9      2.365      4.766
REMARK  3 active torsions:
REMARK  status: ('A' for Active; 'I' for Inactive)
REMARK    1  A    between atoms: C_4  and  C_1 
REMARK       I    between atoms: N_8  and  C_1 
REMARK    2  A    between atoms: S_14  and  C_2 
REMARK    3  A    between atoms: C_10  and  N_8 
ROOT
ATOM      1  C   UNL d   1      33.139  17.930 -23.247  0.00  0.00     0.136 A 
ATOM      2  N   UNL d   1      33.127  18.513 -23.829  0.00  0.00    -0.232 NA
ATOM      3  S   UNL d   1      33.170  18.247 -22.511  0.00  0.00    -0.060 SA
ATOM      4  C   UNL d   1      33.179  19.071 -22.620  0.00  0.00     0.051 A 
ATOM      5  C   UNL d   1      33.152  19.230 -23.435  0.00  0.00     0.089 A 
ATOM      6  C   UNL d   1      33.209  19.693 -22.083  0.00  0.00     0.027 A 
ATOM      7  C   UNL d   1      33.211  20.481 -22.354  0.00  0.00     0.085 A 
ATOM      8  C   UNL d   1      33.155  20.009 -23.704  0.00  0.00     0.021 A 
ATOM      9  C   UNL d   1      33.184  20.631 -23.167  0.00  0.00     0.021 A 
ENDROOT
BRANCH   7  10
ATOM     10  N   UNL d   1      33.241  21.113 -21.808  0.00  0.00    -0.208 NA
ATOM     11  C   UNL d   1      32.580  21.269 -21.340  0.00  0.00     0.283 C 
ATOM     12  O   UNL d   1      31.899  20.822 -21.398  0.00  0.00    -0.265 OA
BRANCH  11  13
ATOM     13  C   UNL d   1      32.610  21.899 -20.797  0.00  0.00     0.113 A 
ATOM     14  C   UNL d   1      32.306  22.633 -21.018  0.00  0.00     0.147 A 
ATOM     15  F   UNL d   1      31.969  22.754 -21.781  0.00  0.00    -0.204 F 
ATOM     16  C   UNL d   1      32.336  23.269 -20.469  0.00  0.00     0.030 A 
ATOM     17  C   UNL d   1      32.668  23.136 -19.728  0.00  0.00     0.005 A 
ATOM     18  C   UNL d   1      32.967  22.411 -19.510  0.00  0.00     0.030 A 
ATOM     19  C   UNL d   1      32.937  21.775 -20.059  0.00  0.00     0.147 A 
ATOM     20  F   UNL d   1      33.241  21.026 -19.850  0.00  0.00    -0.204 F 
ENDBRANCH  11  13
ENDBRANCH   7  10
BRANCH   1  21
ATOM     21  S   UNL d   1      33.120  17.127 -23.406  0.00  0.00    -0.087 SA
ATOM     22  C   UNL d   1      32.546  16.827 -23.898  0.00  0.00     0.076 C 
ENDBRANCH   1  21
TORSDOF 3
ENDMDL
MODEL 3
REMARK VINA RESULT:      -2.2      2.171      3.342
REMARK  3 active torsions:
REMARK  status: ('A' for Active; 'I' for Inactive)
REMARK    1  A    between atoms: C_4  and  C_1 
REMARK       I    between atoms: N_8  and  C_1 
REMARK    2  A    between atoms: S_14  and  C_2 
REMARK    3  A    between atoms: C_10  and  N_8 
ROOT
ATOM      1  C   UNL d   1      33.003  21.604 -21.098  0.00  0.00     0.136 A 
ATOM      2  N   UNL d   1      33.087  21.844 -21.882  0.00  0.00    -0.232 NA
ATOM      3  S   UNL d   1      32.991  20.805 -21.032  0.00  0.00    -0.060 SA
ATOM      4  C   UNL d   1      33.071  20.513 -21.806  0.00  0.00     0.051 A 
ATOM      5  C   UNL d   1      33.130  21.159 -22.326  0.00  0.00     0.089 A 
ATOM      6  C   UNL d   1      33.098  19.746 -22.101  0.00  0.00     0.027 A 
ATOM      7  C   UNL d   1      33.183  19.615 -22.920  0.00  0.00     0.085 A 
ATOM      8  C   UNL d   1      33.215  21.030 -23.136  0.00  0.00     0.021 A 
ATOM      9  C   UNL d   1      33.241  20.263 -23.431  0.00  0.00     0.021 A 
ENDROOT
BRANCH   7  10
ATOM     10  N   UNL d   1      33.210  18.835 -23.219  0.00  0.00    -0.208 NA
ATOM     11  C   UNL d   1      32.507  18.471 -23.451  0.00  0.00     0.283 C 
ATOM     12  O   UNL d   1      31.788  18.853 -23.394  0.00  0.00    -0.265 OA
BRANCH  11  13
ATOM     13  C   UNL d   1      32.534  17.695 -23.749  0.00  0.00     0.113 A 
ATOM     14  C   UNL d   1      32.511  17.579 -24.565  0.00  0.00     0.147 A 
ATOM     15  F   UNL d   1      32.462  18.231 -25.097  0.00  0.00    -0.204 F 
ATOM     16  C   UNL d   1      32.538  16.794 -24.867  0.00  0.00     0.030 A 
ATOM     17  C   UNL d   1      32.587  16.169 -24.336  0.00  0.00     0.005 A 
ATOM     18  C   UNL d   1      32.609  16.283 -23.530  0.00  0.00     0.030 A 
ATOM     19  C   UNL d   1      32.582  17.068 -23.228  0.00  0.00     0.147 A 
ATOM     20  F   UNL d   1      32.604  17.201 -22.404  0.00  0.00    -0.204 F 
ENDBRANCH  11  13
ENDBRANCH   7  10
BRANCH   1  21
ATOM     21  S   UNL d   1      32.940  22.123 -20.467  0.00  0.00    -0.087 SA
ATOM     22  C   UNL d   1      32.737  22.899 -20.603  0.00  0.00     0.076 C 
ENDBRANCH   1  21
TORSDOF 3
ENDMDL
MODEL 4
REMARK VINA RESULT:      -2.1      2.812      5.131
REMARK  3 active torsions:
REMARK  status: ('A' for Active; 'I' for Inactive)
REMARK    1  A    between atoms: C_4  and  C_1 
REMARK       I    between atoms: N_8  and  C_1 
REMARK    2  A    between atoms: S_14  and  C_2 
REMARK    3  A    between atoms: C_10  and  N_8 
ROOT
ATOM      1  C   UNL d   1      32.875  17.041 -23.735  0.00  0.00     0.136 A 
ATOM      2  N   UNL d   1      32.557  17.614 -24.236  0.00  0.00    -0.232 NA
ATOM      3  S   UNL d   1      33.179  17.366 -23.068  0.00  0.00    -0.060 SA
ATOM      4  C   UNL d   1      33.055  18.184 -23.138  0.00  0.00     0.051 A 
ATOM      5  C   UNL d   1      32.671  18.332 -23.860  0.00  0.00     0.089 A 
ATOM      6  C   UNL d   1      33.241  18.810 -22.638  0.00  0.00     0.027 A 
ATOM      7  C   UNL d   1      33.046  19.591 -22.855  0.00  0.00     0.085 A 
ATOM      8  C   UNL d   1      32.478  19.104 -24.074  0.00  0.00     0.021 A 
ATOM      9  C   UNL d   1      32.664  19.730 -23.575  0.00  0.00     0.021 A 
ENDROOT
BRANCH   7  10
ATOM     10  N   UNL d   1      33.236  20.228 -22.347  0.00  0.00    -0.208 NA
ATOM     11  C   UNL d   1      32.646  20.545 -21.866  0.00  0.00     0.283 C 
ATOM     12  O   UNL d   1      31.883  20.254 -21.875  0.00  0.00    -0.265 OA
BRANCH  11  13
ATOM     13  C   UNL d   1      32.834  21.179 -21.361  0.00  0.00     0.113 A 
ATOM     14  C   UNL d   1      32.820  21.947 -21.659  0.00  0.00     0.147 A 
ATOM     15  F   UNL d   1      32.618  22.099 -22.463  0.00  0.00    -0.204 F 
ATOM     16  C   UNL d   1      33.010  22.587 -21.148  0.00  0.00     0.030 A 
ATOM     17  C   UNL d   1      33.205  22.424 -20.366  0.00  0.00     0.005 A 
ATOM     18  C   UNL d   1      33.220  21.665 -20.071  0.00  0.00     0.030 A 
ATOM     19  C   UNL d   1      33.029  21.025 -20.583  0.00  0.00     0.147 A 
ATOM     20  F   UNL d   1      33.039  20.241 -20.295  0.00  0.00    -0.204 F 
ENDBRANCH  11  13
ENDBRANCH   7  10
BRANCH   1  21
ATOM     21  S   UNL d   1      32.876  16.239 -23.903  0.00  0.00    -0.087 SA
ATOM     22  C   UNL d   1      32.520  15.720 -23.389  0.00  0.00     0.076 C 
ENDBRANCH   1  21
TORSDOF 3
ENDMDL
MODEL 5
REMARK VINA RESULT:      -1.5      1.032      1.740
REMARK  3 active torsions:
REMARK  status: ('A' for Active; 'I' for Inactive)
REMARK    1  A    between atoms: C_4  and  C_1 
REMARK       I    between atoms: N_8  and  C_1 
REMARK    2  A    between atoms: S_14  and  C_2 
REMARK    3  A    between atoms: C_10  and  N_8 
ROOT
ATOM      1  C   UNL d   1      32.768  22.837 -17.098  0.00  0.00     0.136 A 
ATOM      2  N   UNL d   1      32.377  23.427 -17.520  0.00  0.00    -0.232 NA
ATOM      3  S   UNL d   1      33.133  22.315 -17.586  0.00  0.00    -0.060 SA
ATOM      4  C   UNL d   1      32.973  22.577 -18.358  0.00  0.00     0.051 A 
ATOM      5  C   UNL d   1      32.506  23.264 -18.311  0.00  0.00     0.089 A 
ATOM      6  C   UNL d   1      33.191  22.280 -19.092  0.00  0.00     0.027 A 
ATOM      7  C   UNL d   1      32.946  22.665 -19.790  0.00  0.00     0.085 A 
ATOM      8  C   UNL d   1      32.263  23.645 -19.001  0.00  0.00     0.021 A 
ATOM      9  C   UNL d   1      32.481  23.347 -19.735  0.00  0.00     0.021 A 
ENDROOT
BRANCH   7  10
ATOM     10  N   UNL d   1      33.168  22.363 -20.537  0.00  0.00    -0.208 NA
ATOM     11  C   UNL d   1      32.585  22.230 -21.104  0.00  0.00     0.283 C 
ATOM     12  O   UNL d   1      31.797  22.387 -20.954  0.00  0.00    -0.265 OA
BRANCH  11  13
ATOM     13  C   UNL d   1      32.806  21.929 -21.848  0.00  0.00     0.113 A 
ATOM     14  C   UNL d   1      32.906  21.115 -21.936  0.00  0.00     0.147 A 
ATOM     15  F   UNL d   1      32.789  20.589 -21.289  0.00  0.00    -0.204 F 
ATOM     16  C   UNL d   1      33.130  20.811 -22.688  0.00  0.00     0.030 A 
ATOM     17  C   UNL d   1      33.241  21.337 -23.310  0.00  0.00     0.005 A 
ATOM     18  C   UNL d   1      33.141  22.141 -23.222  0.00  0.00     0.030 A 
ATOM     19  C   UNL d   1      32.918  22.445 -22.471  0.00  0.00     0.147 A 
ATOM     20  F   UNL d   1      32.812  23.266 -22.366  0.00  0.00    -0.204 F 
ENDBRANCH  11  13
ENDBRANCH   7  10
BRANCH   1  21
ATOM     21  S   UNL d   1      32.779  22.793 -16.280  0.00  0.00    -0.087 SA
ATOM     22  C   UNL d   1      33.241  23.311 -15.856  0.00  0.00     0.076 C 
ENDBRANCH   1  21
TORSDOF 3
ENDMDL
