MODEL 1
REMARK VINA RESULT:      18.3      0.000      0.000
REMARK  2 active torsions:
REMARK  status: ('A' for Active; 'I' for Inactive)
REMARK    1  A    between atoms: S_2  and  N_1 
REMARK    2  A    between atoms: C_10  and  S_2 
ROOT
ATOM      1  S   UNL d   1      13.805  12.749  -2.665  0.00  0.00     0.273 S 
ATOM      2  O   UNL d   1      13.945  13.559  -2.736  0.00  0.00    -0.200 OA
ATOM      3  O   UNL d   1      13.663  11.940  -2.603  0.00  0.00    -0.200 OA
ENDROOT
BRANCH   1   4
ATOM      4  N   UNL d   1      13.505  12.730  -3.434  0.00  0.00    -0.207 N 
ATOM      5  C   UNL d   1      13.524  11.989  -3.797  0.00  0.00     0.148 A 
ATOM      6  N   UNL d   1      13.267  11.782  -4.561  0.00  0.00    -0.198 NA
ATOM      7  C   UNL d   1      12.937  12.257  -5.130  0.00  0.00     0.066 A 
ATOM      8  C   UNL d   1      13.244  12.678  -4.122  0.00  0.00     0.169 A 
ATOM      9  C   UNL d   1      12.771  13.064  -5.100  0.00  0.00     0.066 A 
ATOM     10  N   UNL d   1      12.901  13.594  -4.479  0.00  0.00    -0.198 NA
ATOM     11  C   UNL d   1      13.227  13.442  -3.740  0.00  0.00     0.148 A 
ENDBRANCH   1   4
BRANCH   1  12
ATOM     12  C   UNL d   1      14.104  12.765  -1.898  0.00  0.00     0.104 A 
ATOM     13  C   UNL d   1      14.356  13.478  -1.567  0.00  0.00     0.013 A 
ATOM     14  C   UNL d   1      14.655  13.493  -0.800  0.00  0.00     0.001 A 
ATOM     15  C   UNL d   1      14.703  12.796  -0.362  0.00  0.00     0.000 A 
ATOM     16  C   UNL d   1      14.451  12.083  -0.691  0.00  0.00     0.001 A 
ATOM     17  C   UNL d   1      14.152  12.067  -1.459  0.00  0.00     0.013 A 
ENDBRANCH   1  12
TORSDOF 2
ENDMDL
