MODEL 1
REMARK VINA RESULT:     133.3      0.000      0.000
REMARK  5 active torsions:
REMARK  status: ('A' for Active; 'I' for Inactive)
REMARK    1  A    between atoms: N_2  and  C_1 
REMARK    2  A    between atoms: C_13  and  N_6 
REMARK    3  A    between atoms: C_12  and  C_7 
REMARK    4  A    between atoms: O_22  and  C_19 
REMARK    5  A    between atoms: C_25  and  O_22 
ROOT
ATOM      1  N   UNL d   1      58.667  39.504  55.421  0.00  0.00    -0.288 N 
ATOM      2  C   UNL d   1      58.784  38.687  55.497  0.00  0.00     0.196 A 
ATOM      3  S   UNL d   1      59.513  38.588  55.880  0.00  0.00    -0.092 SA
ATOM      4  C   UNL d   1      59.312  39.890  55.751  0.00  0.00     0.268 A 
ATOM      5  C   UNL d   1      59.835  39.292  56.035  0.00  0.00     0.093 A 
ATOM      6  O   UNL d   1      59.415  40.689  55.790  0.00  0.00    -0.266 OA
ENDROOT
BRANCH   1   7
ATOM      7  C   UNL d   1      58.000  39.782  55.068  0.00  0.00     0.139 A 
ATOM      8  C   UNL d   1      57.927  39.868  54.281  0.00  0.00     0.296 A 
ATOM      9  N   UNL d   1      57.183  40.161  54.115  0.00  0.00    -0.209 N 
ATOM     10  O   UNL d   1      58.526  39.682  53.722  0.00  0.00    -0.264 OA
ATOM     11  N   UNL d   1      56.798  40.255  54.818  0.00  0.00    -0.238 N 
ATOM     12  C   UNL d   1      57.323  40.013  55.423  0.00  0.00     0.102 A 
ATOM     13  C   UNL d   1      56.042  40.534  54.919  0.00  0.00     0.120 C 
ATOM     14  C   UNL d   1      57.182  40.005  56.256  0.00  0.00     0.022 C 
BRANCH   9  15
ATOM     15  C   UNL d   1      56.804  40.355  53.421  0.00  0.00     0.085 A 
ATOM     16  C   UNL d   1      56.739  39.807  52.815  0.00  0.00     0.019 A 
ATOM     17  C   UNL d   1      56.358  40.005  52.121  0.00  0.00     0.002 A 
ATOM     18  C   UNL d   1      56.033  40.753  52.013  0.00  0.00     0.000 A 
ATOM     19  C   UNL d   1      56.105  41.296  52.630  0.00  0.00     0.002 A 
ATOM     20  C   UNL d   1      56.483  41.101  53.320  0.00  0.00     0.019 A 
ENDBRANCH   9  15
ENDBRANCH   1   7
BRANCH   2  21
ATOM     21  C   UNL d   1      58.388  37.996  55.304  0.00  0.00    -0.001 A 
ATOM     22  C   UNL d   1      58.472  37.565  54.529  0.00  0.00    -0.000 A 
ATOM     23  C   UNL d   1      58.011  36.829  54.403  0.00  0.00     0.024 A 
ATOM     24  C   UNL d   1      57.495  36.559  55.046  0.00  0.00     0.100 A 
ATOM     25  C   UNL d   1      57.439  36.985  55.760  0.00  0.00     0.024 A 
ATOM     26  C   UNL d   1      57.867  37.692  55.910  0.00  0.00    -0.000 A 
BRANCH  24  27
ATOM     27  O   UNL d   1      57.081  35.877  54.905  0.00  0.00    -0.305 OA
BRANCH  27  28
ATOM     28  C   UNL d   1      56.435  35.886  54.283  0.00  0.00     0.123 C 
ATOM     29  C   UNL d   1      56.516  36.426  53.643  0.00  0.00     0.029 C 
ENDBRANCH  27  28
ENDBRANCH  24  27
ENDBRANCH   2  21
TORSDOF 5
ENDMDL
