MODEL 1
REMARK VINA RESULT:      17.0      0.000      0.000
REMARK  4 active torsions:
REMARK  status: ('A' for Active; 'I' for Inactive)
REMARK    1  A    between atoms: C_6  and  S_1 
REMARK    2  A    between atoms: N_12  and  S_1 
REMARK    3  A    between atoms: N_4  and  C_2 
REMARK       I    between atoms: C_7  and  N_4 
REMARK    4  A    between atoms: C_10  and  C_7 
ROOT
ATOM      1  C   UNL d   1      46.134 -16.845  43.699  0.00  0.00     0.197 A 
ATOM      2  N   UNL d   1      45.660 -16.705  44.359  0.00  0.00    -0.221 NA
ATOM      3  S   UNL d   1      46.303 -16.120  43.344  0.00  0.00    -0.047 SA
ATOM      4  C   UNL d   1      45.480 -14.247  44.236  0.00  0.00     0.105 A 
ATOM      5  C   UNL d   1      45.929 -15.527  43.788  0.00  0.00     0.051 A 
ATOM      6  C   UNL d   1      45.531 -15.884  44.416  0.00  0.00     0.090 A 
ATOM      7  C   UNL d   1      45.904 -14.705  43.698  0.00  0.00     0.021 A 
ATOM      8  C   UNL d   1      45.079 -14.611  44.869  0.00  0.00     0.015 A 
ATOM      9  C   UNL d   1      45.107 -15.424  44.955  0.00  0.00     0.020 A 
ENDROOT
BRANCH   1  10
ATOM     10  N   UNL d   1      46.394 -17.583  43.439  0.00  0.00    -0.182 NA
ATOM     11  C   UNL d   1      45.918 -18.092  43.022  0.00  0.00     0.287 C 
ATOM     12  O   UNL d   1      45.146 -17.878  42.845  0.00  0.00    -0.265 OA
BRANCH  11  13
ATOM     13  C   UNL d   1      46.192 -18.815  42.775  0.00  0.00     0.087 A 
ATOM     14  S   UNL d   1      46.367 -18.860  41.986  0.00  0.00    -0.082 SA
ATOM     15  C   UNL d   1      46.634 -19.607  41.809  0.00  0.00     0.036 A 
ATOM     16  C   UNL d   1      46.625 -20.042  42.512  0.00  0.00     0.008 A 
ATOM     17  C   UNL d   1      46.354 -19.559  43.109  0.00  0.00     0.012 A 
ENDBRANCH  11  13
ENDBRANCH   1  10
BRANCH   4  18
ATOM     18  S   UNL d   1      45.447 -13.428  44.156  0.00  0.00     0.272 S 
ATOM     19  O   UNL d   1      46.154 -13.439  44.879  0.00  0.00    -0.200 OA
ATOM     20  O   UNL d   1      44.757 -13.340  43.448  0.00  0.00    -0.200 OA
BRANCH  18  21
ATOM     21  N   UNL d   1      45.560 -12.613  44.227  0.00  0.00    -0.226 N 
ATOM     22  C   UNL d   1      45.893 -12.305  44.920  0.00  0.00     0.111 C 
ATOM     23  C   UNL d   1      45.344 -12.109  43.610  0.00  0.00     0.111 C 
ENDBRANCH  18  21
ENDBRANCH   4  18
TORSDOF 4
ENDMDL
MODEL 2
REMARK VINA RESULT:      17.4      1.134      5.170
REMARK  4 active torsions:
REMARK  status: ('A' for Active; 'I' for Inactive)
REMARK    1  A    between atoms: C_6  and  S_1 
REMARK    2  A    between atoms: N_12  and  S_1 
REMARK    3  A    between atoms: N_4  and  C_2 
REMARK       I    between atoms: C_7  and  N_4 
REMARK    4  A    between atoms: C_10  and  C_7 
ROOT
ATOM      1  C   UNL d   1      45.699 -15.851  44.375  0.00  0.00     0.197 A 
ATOM      2  N   UNL d   1      45.924 -16.392  44.955  0.00  0.00    -0.221 NA
ATOM      3  S   UNL d   1      45.680 -16.242  43.648  0.00  0.00    -0.047 SA
ATOM      4  C   UNL d   1      46.202 -18.410  43.561  0.00  0.00     0.105 A 
ATOM      5  C   UNL d   1      45.896 -17.032  43.781  0.00  0.00     0.051 A 
ATOM      6  C   UNL d   1      46.047 -17.129  44.586  0.00  0.00     0.090 A 
ATOM      7  C   UNL d   1      45.974 -17.675  43.267  0.00  0.00     0.021 A 
ATOM      8  C   UNL d   1      46.354 -18.505  44.375  0.00  0.00     0.015 A 
ATOM      9  C   UNL d   1      46.276 -17.865  44.881  0.00  0.00     0.020 A 
ENDROOT
BRANCH   1  10
ATOM     10  N   UNL d   1      45.522 -15.055  44.500  0.00  0.00    -0.182 NA
ATOM     11  C   UNL d   1      45.969 -14.454  44.186  0.00  0.00     0.287 C 
ATOM     12  O   UNL d   1      46.625 -14.629  43.726  0.00  0.00    -0.265 OA
BRANCH  11  13
ATOM     13  C   UNL d   1      45.780 -13.676  44.321  0.00  0.00     0.087 A 
ATOM     14  S   UNL d   1      45.421 -13.301  43.699  0.00  0.00    -0.082 SA
ATOM     15  C   UNL d   1      45.261 -12.530  43.902  0.00  0.00     0.036 A 
ATOM     16  C   UNL d   1      45.528 -12.421  44.676  0.00  0.00     0.008 A 
ATOM     17  C   UNL d   1      45.848 -13.123  44.938  0.00  0.00     0.012 A 
ENDBRANCH  11  13
ENDBRANCH   1  10
BRANCH   4  18
ATOM     18  S   UNL d   1      46.283 -19.058  43.059  0.00  0.00     0.272 S 
ATOM     19  O   UNL d   1      45.922 -18.422  42.361  0.00  0.00    -0.200 OA
ATOM     20  O   UNL d   1      46.640 -19.736  43.690  0.00  0.00    -0.200 OA
BRANCH  18  21
ATOM     21  N   UNL d   1      46.288 -19.572  42.413  0.00  0.00    -0.226 N 
ATOM     22  C   UNL d   1      46.647 -19.335  41.706  0.00  0.00     0.111 C 
ATOM     23  C   UNL d   1      45.938 -20.317  42.473  0.00  0.00     0.111 C 
ENDBRANCH  18  21
ENDBRANCH   4  18
TORSDOF 4
ENDMDL
