MODEL 1
REMARK VINA RESULT:      20.2      0.000      0.000
REMARK  2 active torsions:
REMARK  status: ('A' for Active; 'I' for Inactive)
REMARK    1  A    between atoms: C_5  and  C_1 
REMARK    2  A    between atoms: C_7  and  C_5 
ROOT
ATOM      1  C   UNL d   1      46.449 -18.550  43.565  0.00  0.00     0.158 A 
ATOM      2  C   UNL d   1      46.448 -19.374  43.567  0.00  0.00     0.131 A 
ATOM      3  O   UNL d   1      46.499 -18.144  42.842  0.00  0.00    -0.302 OA
ATOM      4  C   UNL d   1      46.547 -19.378  42.116  0.00  0.00     0.044 A 
ATOM      5  C   UNL d   1      46.548 -18.554  42.113  0.00  0.00     0.102 A 
ATOM      6  N   UNL d   1      46.399 -19.773  44.279  0.00  0.00    -0.146 N 
ATOM      7  C   UNL d   1      46.596 -19.785  41.394  0.00  0.00     0.004 A 
ATOM      8  C   UNL d   1      46.598 -18.148  41.390  0.00  0.00     0.025 A 
ATOM      9  C   UNL d   1      46.646 -19.382  40.678  0.00  0.00     0.000 A 
ATOM     10  C   UNL d   1      46.647 -18.558  40.676  0.00  0.00     0.002 A 
ENDROOT
BRANCH   1  11
ATOM     11  C   UNL d   1      46.401 -18.147  44.274  0.00  0.00     0.220 C 
ATOM     12  O   UNL d   1      46.644 -18.511  44.955  0.00  0.00    -0.284 OA
BRANCH  11  13
ATOM     13  C   UNL d   1      46.121 -17.400  44.320  0.00  0.00     0.041 A 
ATOM     14  C   UNL d   1      46.408 -16.805  43.827  0.00  0.00     0.003 A 
ATOM     15  C   UNL d   1      46.104 -16.030  43.888  0.00  0.00     0.000 A 
ATOM     16  C   UNL d   1      45.500 -15.858  44.456  0.00  0.00     0.000 A 
ATOM     17  C   UNL d   1      45.223 -16.467  44.943  0.00  0.00     0.000 A 
ATOM     18  C   UNL d   1      45.193 -15.093  44.523  0.00  0.00     0.000 C 
ATOM     19  C   UNL d   1      45.517 -17.228  44.888  0.00  0.00     0.003 A 
ENDBRANCH  11  13
ENDBRANCH   1  11
TORSDOF 2
ENDMDL
MODEL 2
REMARK VINA RESULT:      20.8      0.947      3.742
REMARK  2 active torsions:
REMARK  status: ('A' for Active; 'I' for Inactive)
REMARK    1  A    between atoms: C_5  and  C_1 
REMARK    2  A    between atoms: C_7  and  C_5 
ROOT
ATOM      1  C   UNL d   1      45.940 -17.222  44.427  0.00  0.00     0.158 A 
ATOM      2  C   UNL d   1      45.188 -17.224  44.765  0.00  0.00     0.131 A 
ATOM      3  O   UNL d   1      46.298 -16.498  44.234  0.00  0.00    -0.302 OA
ATOM      4  C   UNL d   1      45.161 -15.770  44.713  0.00  0.00     0.044 A 
ATOM      5  C   UNL d   1      45.913 -15.768  44.375  0.00  0.00     0.102 A 
ATOM      6  N   UNL d   1      44.836 -17.936  44.955  0.00  0.00    -0.146 N 
ATOM      7  C   UNL d   1      44.778 -15.048  44.854  0.00  0.00     0.004 A 
ATOM      8  C   UNL d   1      46.271 -15.044  44.182  0.00  0.00     0.025 A 
ATOM      9  C   UNL d   1      45.134 -14.330  44.662  0.00  0.00     0.000 A 
ATOM     10  C   UNL d   1      45.886 -14.328  44.324  0.00  0.00     0.002 A 
ENDROOT
BRANCH   1  11
ATOM     11  C   UNL d   1      46.319 -17.932  44.288  0.00  0.00     0.220 C 
ATOM     12  O   UNL d   1      46.640 -18.340  44.909  0.00  0.00    -0.284 OA
BRANCH  11  13
ATOM     13  C   UNL d   1      46.384 -18.242  43.554  0.00  0.00     0.041 A 
ATOM     14  C   UNL d   1      46.267 -17.777  42.883  0.00  0.00     0.003 A 
ATOM     15  C   UNL d   1      46.339 -18.117  42.124  0.00  0.00     0.000 A 
ATOM     16  C   UNL d   1      46.533 -18.938  42.046  0.00  0.00     0.000 A 
ATOM     17  C   UNL d   1      46.647 -19.389  42.730  0.00  0.00     0.000 A 
ATOM     18  C   UNL d   1      46.606 -19.282  41.298  0.00  0.00     0.000 C 
ATOM     19  C   UNL d   1      46.577 -19.063  43.476  0.00  0.00     0.003 A 
ENDBRANCH  11  13
ENDBRANCH   1  11
TORSDOF 2
ENDMDL
MODEL 3
REMARK VINA RESULT:      22.9      3.446      5.157
REMARK  2 active torsions:
REMARK  status: ('A' for Active; 'I' for Inactive)
REMARK    1  A    between atoms: C_5  and  C_1 
REMARK    2  A    between atoms: C_7  and  C_5 
ROOT
ATOM      1  C   UNL d   1      45.494 -13.424  44.142  0.00  0.00     0.158 A 
ATOM      2  C   UNL d   1      46.121 -13.487  44.673  0.00  0.00     0.131 A 
ATOM      3  O   UNL d   1      45.132 -14.115  43.855  0.00  0.00    -0.302 OA
ATOM      4  C   UNL d   1      46.016 -14.938  44.626  0.00  0.00     0.044 A 
ATOM      5  C   UNL d   1      45.389 -14.875  44.095  0.00  0.00     0.102 A 
ATOM      6  N   UNL d   1      46.477 -12.808  44.955  0.00  0.00    -0.146 N 
ATOM      7  C   UNL d   1      46.272 -15.690  44.863  0.00  0.00     0.004 A 
ATOM      8  C   UNL d   1      45.027 -15.566  43.808  0.00  0.00     0.025 A 
ATOM      9  C   UNL d   1      45.912 -16.374  44.579  0.00  0.00     0.000 A 
ATOM     10  C   UNL d   1      45.285 -16.311  44.048  0.00  0.00     0.002 A 
ENDROOT
BRANCH   1  11
ATOM     11  C   UNL d   1      45.240 -12.684  43.907  0.00  0.00     0.220 C 
ATOM     12  O   UNL d   1      45.224 -12.080  44.445  0.00  0.00    -0.284 OA
BRANCH  11  13
ATOM     13  C   UNL d   1      45.006 -12.534  43.158  0.00  0.00     0.041 A 
ATOM     14  C   UNL d   1      45.551 -12.349  42.568  0.00  0.00     0.003 A 
ATOM     15  C   UNL d   1      45.289 -12.195  41.791  0.00  0.00     0.000 A 
ATOM     16  C   UNL d   1      44.462 -12.231  41.611  0.00  0.00     0.000 A 
ATOM     17  C   UNL d   1      43.928 -12.419  42.215  0.00  0.00     0.000 A 
ATOM     18  C   UNL d   1      44.193 -12.080  40.844  0.00  0.00     0.000 C 
ATOM     19  C   UNL d   1      44.179 -12.570  42.978  0.00  0.00     0.003 A 
ENDBRANCH  11  13
ENDBRANCH   1  11
TORSDOF 2
ENDMDL
