MODEL 1
REMARK VINA RESULT:      -2.6      0.000      0.000
REMARK  5 active torsions:
REMARK  status: ('A' for Active; 'I' for Inactive)
REMARK    1  A    between atoms: C_6  and  N_2 
REMARK    2  A    between atoms: C_8  and  C_6 
REMARK    3  A    between atoms: C_13  and  C_8 
REMARK    4  A    between atoms: C_9  and  O_12 
REMARK    5  A    between atoms: O_12  and  C_13 
ROOT
ATOM      1  N   UNL d   1      32.092  16.489 -23.472  0.00  0.00    -0.227 NA
ATOM      2  N   UNL d   1      32.507  17.760 -23.410  0.00  0.00    -0.289 N 
ATOM      3  C   UNL d   1      32.653  16.993 -23.107  0.00  0.00     0.148 A 
ATOM      4  C   UNL d   1      31.882  17.727 -23.936  0.00  0.00     0.083 A 
ATOM      5  C   UNL d   1      31.613  16.905 -23.977  0.00  0.00     0.099 A 
ATOM      6  C   UNL d   1      33.239  16.774 -22.556  0.00  0.00     0.041 C 
ATOM      7  C   UNL d   1      31.521  18.307 -24.379  0.00  0.00     0.019 A 
ATOM      8  C   UNL d   1      30.973  16.758 -24.491  0.00  0.00     0.021 A 
ATOM      9  C   UNL d   1      30.904  18.091 -24.857  0.00  0.00     0.002 A 
ATOM     10  C   UNL d   1      30.654  17.324 -24.894  0.00  0.00     0.002 A 
ENDROOT
BRANCH   2  11
ATOM     11  C   UNL d   1      32.997  18.321 -23.120  0.00  0.00     0.084 C 
BRANCH  11  12
ATOM     12  C   UNL d   1      32.808  18.781 -22.462  0.00  0.00     0.046 C 
BRANCH  12  13
ATOM     13  C   UNL d   1      33.166  19.497 -22.295  0.00  0.00     0.124 C 
BRANCH  13  14
ATOM     14  O   UNL d   1      32.956  19.964 -21.658  0.00  0.00    -0.305 OA
BRANCH  14  15
ATOM     15  C   UNL d   1      32.920  20.787 -21.690  0.00  0.00     0.100 A 
ATOM     16  C   UNL d   1      32.537  21.191 -21.064  0.00  0.00     0.025 A 
ATOM     17  C   UNL d   1      32.487  22.028 -21.074  0.00  0.00     0.002 A 
ATOM     18  C   UNL d   1      32.819  22.460 -21.709  0.00  0.00     0.000 A 
ATOM     19  C   UNL d   1      33.202  22.056 -22.336  0.00  0.00     0.002 A 
ATOM     20  C   UNL d   1      33.239  21.235 -22.304  0.00  0.00     0.025 A 
ENDBRANCH  14  15
ENDBRANCH  13  14
ENDBRANCH  12  13
ENDBRANCH  11  12
ENDBRANCH   2  11
TORSDOF 5
ENDMDL
MODEL 2
REMARK VINA RESULT:      -2.3      0.848      1.183
REMARK  5 active torsions:
REMARK  status: ('A' for Active; 'I' for Inactive)
REMARK    1  A    between atoms: C_6  and  N_2 
REMARK    2  A    between atoms: C_8  and  C_6 
REMARK    3  A    between atoms: C_13  and  C_8 
REMARK    4  A    between atoms: C_9  and  O_12 
REMARK    5  A    between atoms: O_12  and  C_13 
ROOT
ATOM      1  N   UNL d   1      31.033  15.851 -23.612  0.00  0.00    -0.227 NA
ATOM      2  N   UNL d   1      31.749  16.975 -23.739  0.00  0.00    -0.289 N 
ATOM      3  C   UNL d   1      31.771  16.199 -23.424  0.00  0.00     0.148 A 
ATOM      4  C   UNL d   1      31.026  17.096 -24.103  0.00  0.00     0.083 A 
ATOM      5  C   UNL d   1      30.564  16.370 -24.021  0.00  0.00     0.099 A 
ATOM      6  C   UNL d   1      32.401  15.844 -23.009  0.00  0.00     0.041 C 
ATOM      7  C   UNL d   1      30.723  17.745 -24.491  0.00  0.00     0.019 A 
ATOM      8  C   UNL d   1      29.802  16.386 -24.362  0.00  0.00     0.021 A 
ATOM      9  C   UNL d   1      29.976  17.688 -24.796  0.00  0.00     0.002 A 
ATOM     10  C   UNL d   1      29.543  17.010 -24.720  0.00  0.00     0.002 A 
ENDROOT
BRANCH   2  11
ATOM     11  C   UNL d   1      32.416  17.395 -23.611  0.00  0.00     0.084 C 
BRANCH  11  12
ATOM     12  C   UNL d   1      32.498  17.921 -22.981  0.00  0.00     0.046 C 
BRANCH  12  13
ATOM     13  C   UNL d   1      32.883  18.640 -23.040  0.00  0.00     0.124 C 
BRANCH  13  14
ATOM     14  O   UNL d   1      32.999  19.139 -22.404  0.00  0.00    -0.305 OA
BRANCH  14  15
ATOM     15  C   UNL d   1      33.080  19.956 -22.477  0.00  0.00     0.100 A 
ATOM     16  C   UNL d   1      33.083  20.417 -21.777  0.00  0.00     0.025 A 
ATOM     17  C   UNL d   1      33.164  21.251 -21.826  0.00  0.00     0.002 A 
ATOM     18  C   UNL d   1      33.241  21.623 -22.571  0.00  0.00     0.000 A 
ATOM     19  C   UNL d   1      33.238  21.162 -23.271  0.00  0.00     0.002 A 
ATOM     20  C   UNL d   1      33.157  20.346 -23.200  0.00  0.00     0.025 A 
ENDBRANCH  14  15
ENDBRANCH  13  14
ENDBRANCH  12  13
ENDBRANCH  11  12
ENDBRANCH   2  11
TORSDOF 5
ENDMDL
MODEL 3
REMARK VINA RESULT:      -2.2      1.466      2.381
REMARK  5 active torsions:
REMARK  status: ('A' for Active; 'I' for Inactive)
REMARK    1  A    between atoms: C_6  and  N_2 
REMARK    2  A    between atoms: C_8  and  C_6 
REMARK    3  A    between atoms: C_13  and  C_8 
REMARK    4  A    between atoms: C_9  and  O_12 
REMARK    5  A    between atoms: O_12  and  C_13 
ROOT
ATOM      1  N   UNL d   1      30.388  15.522 -24.664  0.00  0.00    -0.227 NA
ATOM      2  N   UNL d   1      31.042  16.689 -24.703  0.00  0.00    -0.289 N 
ATOM      3  C   UNL d   1      31.148  15.860 -24.761  0.00  0.00     0.148 A 
ATOM      4  C   UNL d   1      30.250  16.850 -24.575  0.00  0.00     0.083 A 
ATOM      5  C   UNL d   1      29.827  16.095 -24.550  0.00  0.00     0.099 A 
ATOM      6  C   UNL d   1      31.865  15.455 -24.890  0.00  0.00     0.041 C 
ATOM      7  C   UNL d   1      29.854  17.555 -24.480  0.00  0.00     0.019 A 
ATOM      8  C   UNL d   1      29.004  16.145 -24.424  0.00  0.00     0.021 A 
ATOM      9  C   UNL d   1      29.053  17.526 -24.360  0.00  0.00     0.002 A 
ATOM     10  C   UNL d   1      28.659  16.821 -24.337  0.00  0.00     0.002 A 
ENDROOT
BRANCH   2  11
ATOM     11  C   UNL d   1      31.717  17.108 -24.783  0.00  0.00     0.084 C 
BRANCH  11  12
ATOM     12  C   UNL d   1      32.167  17.356 -24.138  0.00  0.00     0.046 C 
BRANCH  12  13
ATOM     13  C   UNL d   1      32.627  18.033 -24.142  0.00  0.00     0.124 C 
BRANCH  13  14
ATOM     14  O   UNL d   1      33.203  18.185 -23.584  0.00  0.00    -0.305 OA
BRANCH  14  15
ATOM     15  C   UNL d   1      33.205  18.857 -23.105  0.00  0.00     0.100 A 
ATOM     16  C   UNL d   1      33.237  19.607 -23.477  0.00  0.00     0.025 A 
ATOM     17  C   UNL d   1      33.241  20.305 -23.012  0.00  0.00     0.002 A 
ATOM     18  C   UNL d   1      33.213  20.253 -22.177  0.00  0.00     0.000 A 
ATOM     19  C   UNL d   1      33.181  19.503 -21.805  0.00  0.00     0.002 A 
ATOM     20  C   UNL d   1      33.178  18.832 -22.282  0.00  0.00     0.025 A 
ENDBRANCH  14  15
ENDBRANCH  13  14
ENDBRANCH  12  13
ENDBRANCH  11  12
ENDBRANCH   2  11
TORSDOF 5
ENDMDL
