MODEL 1
REMARK VINA RESULT:      12.4      0.000      0.000
REMARK  5 active torsions:
REMARK  status: ('A' for Active; 'I' for Inactive)
REMARK    1  A    between atoms: C_2  and  S_1 
REMARK    2  A    between atoms: N_11  and  S_1 
REMARK    3  A    between atoms: N_3  and  C_17 
REMARK    4  A    between atoms: C_16  and  N_11 
REMARK    5  A    between atoms: C_17  and  C_16 
ROOT
ATOM      1  S   UNL d   1      45.156 -15.373  44.712  0.00  0.00     0.285 S 
ATOM      2  O   UNL d   1      44.387 -15.200  44.955  0.00  0.00    -0.198 OA
ATOM      3  O   UNL d   1      45.033 -16.175  44.876  0.00  0.00    -0.198 OA
ENDROOT
BRANCH   1   4
ATOM      4  C   UNL d   1      45.300 -14.571  44.540  0.00  0.00     0.105 A 
ATOM      5  C   UNL d   1      44.690 -14.100  44.248  0.00  0.00     0.012 A 
ATOM      6  C   UNL d   1      44.826 -13.310  44.077  0.00  0.00     0.001 A 
ATOM      7  C   UNL d   1      43.935 -14.420  44.124  0.00  0.00     0.001 C 
ATOM      8  C   UNL d   1      45.580 -12.981  44.199  0.00  0.00     0.000 A 
ATOM      9  C   UNL d   1      46.189 -13.464  44.494  0.00  0.00     0.001 A 
ATOM     10  C   UNL d   1      45.731 -12.189  44.032  0.00  0.00     0.000 C 
ATOM     11  C   UNL d   1      46.040 -14.259  44.662  0.00  0.00     0.012 A 
ATOM     12  C   UNL d   1      46.647 -14.733  44.955  0.00  0.00     0.001 C 
ENDBRANCH   1   4
BRANCH   1  13
ATOM     13  N   UNL d   1      45.862 -15.752  44.522  0.00  0.00    -0.155 NA
BRANCH  13  14
ATOM     14  C   UNL d   1      45.947 -16.562  44.649  0.00  0.00     0.131 C 
BRANCH  14  15
ATOM     15  C   UNL d   1      46.285 -17.036  44.065  0.00  0.00     0.102 C 
BRANCH  15  16
ATOM     16  N   UNL d   1      46.331 -17.853  44.173  0.00  0.00    -0.303 N 
ATOM     17  C   UNL d   1      46.306 -18.248  44.901  0.00  0.00     0.080 A 
ATOM     18  C   UNL d   1      46.369 -19.056  44.756  0.00  0.00     0.021 A 
ATOM     19  C   UNL d   1      46.435 -19.170  43.941  0.00  0.00     0.018 A 
ATOM     20  C   UNL d   1      46.412 -18.427  43.579  0.00  0.00     0.064 A 
ATOM     21  C   UNL d   1      46.513 -19.842  43.474  0.00  0.00     0.002 A 
ATOM     22  C   UNL d   1      46.466 -18.355  42.761  0.00  0.00     0.018 A 
ATOM     23  C   UNL d   1      46.544 -19.029  42.295  0.00  0.00     0.002 A 
ATOM     24  C   UNL d   1      46.569 -19.785  42.646  0.00  0.00     0.000 A 
ENDBRANCH  15  16
ENDBRANCH  14  15
ENDBRANCH  13  14
ENDBRANCH   1  13
TORSDOF 5
ENDMDL
MODEL 2
REMARK VINA RESULT:      13.8      1.196      4.879
REMARK  5 active torsions:
REMARK  status: ('A' for Active; 'I' for Inactive)
REMARK    1  A    between atoms: C_2  and  S_1 
REMARK    2  A    between atoms: N_11  and  S_1 
REMARK    3  A    between atoms: N_3  and  C_17 
REMARK    4  A    between atoms: C_16  and  N_11 
REMARK    5  A    between atoms: C_17  and  C_16 
ROOT
ATOM      1  S   UNL d   1      46.235 -18.320  44.129  0.00  0.00     0.285 S 
ATOM      2  O   UNL d   1      46.203 -19.025  44.557  0.00  0.00    -0.198 OA
ATOM      3  O   UNL d   1      46.133 -17.886  44.827  0.00  0.00    -0.198 OA
ENDROOT
BRANCH   1   4
ATOM      4  C   UNL d   1      46.338 -18.738  43.417  0.00  0.00     0.105 A 
ATOM      5  C   UNL d   1      46.236 -18.351  42.697  0.00  0.00     0.012 A 
ATOM      6  C   UNL d   1      46.337 -18.759  41.993  0.00  0.00     0.001 A 
ATOM      7  C   UNL d   1      46.031 -17.547  42.678  0.00  0.00     0.001 C 
ATOM      8  C   UNL d   1      46.542 -19.564  42.003  0.00  0.00     0.000 A 
ATOM      9  C   UNL d   1      46.644 -19.945  42.735  0.00  0.00     0.001 A 
ATOM     10  C   UNL d   1      46.647 -19.986  41.303  0.00  0.00     0.000 C 
ATOM     11  C   UNL d   1      46.540 -19.525  43.438  0.00  0.00     0.012 A 
ATOM     12  C   UNL d   1      46.641 -19.909  44.160  0.00  0.00     0.001 C 
ENDBRANCH   1   4
BRANCH   1  13
ATOM     13  N   UNL d   1      46.239 -17.528  43.904  0.00  0.00    -0.155 NA
BRANCH  13  14
ATOM     14  C   UNL d   1      46.105 -16.936  44.462  0.00  0.00     0.131 C 
BRANCH  14  15
ATOM     15  C   UNL d   1      46.212 -16.145  44.255  0.00  0.00     0.102 C 
BRANCH  15  16
ATOM     16  N   UNL d   1      45.653 -15.581  44.482  0.00  0.00    -0.303 N 
ATOM     17  C   UNL d   1      44.901 -15.739  44.790  0.00  0.00     0.080 A 
ATOM     18  C   UNL d   1      44.529 -15.021  44.940  0.00  0.00     0.021 A 
ATOM     19  C   UNL d   1      45.043 -14.412  44.727  0.00  0.00     0.018 A 
ATOM     20  C   UNL d   1      45.740 -14.756  44.443  0.00  0.00     0.064 A 
ATOM     21  C   UNL d   1      44.981 -13.592  44.750  0.00  0.00     0.002 A 
ATOM     22  C   UNL d   1      46.366 -14.288  44.186  0.00  0.00     0.018 A 
ATOM     23  C   UNL d   1      46.302 -13.468  44.209  0.00  0.00     0.002 A 
ATOM     24  C   UNL d   1      45.605 -13.107  44.493  0.00  0.00     0.000 A 
ENDBRANCH  15  16
ENDBRANCH  14  15
ENDBRANCH  13  14
ENDBRANCH   1  13
TORSDOF 5
ENDMDL
