MODEL 1
REMARK VINA RESULT:      23.9      0.000      0.000
REMARK  5 active torsions:
REMARK  status: ('A' for Active; 'I' for Inactive)
REMARK    1  A    between atoms: C_2  and  C_1 
REMARK    2  A    between atoms: C_6  and  C_2 
REMARK    3  A    between atoms: C_3  and  O_5 
REMARK    4  A    between atoms: C_11  and  C_3 
REMARK    5  A    between atoms: O_5  and  C_6 
ROOT
ATOM      1  O   UNL d   1     -51.257  25.034  33.413  0.00  0.00    -0.268 OA
ENDROOT
BRANCH   1   2
ATOM      2  C   UNL d   1     -51.425  25.832  33.567  0.00  0.00     0.300 C 
ATOM      3  O   UNL d   1     -52.175  26.040  33.802  0.00  0.00    -0.259 OA
BRANCH   2   4
ATOM      4  C   UNL d   1     -50.845  26.405  33.484  0.00  0.00     0.064 A 
ATOM      5  C   UNL d   1     -50.057  26.193  33.431  0.00  0.00     0.005 A 
ATOM      6  C   UNL d   1     -49.482  26.766  33.348  0.00  0.00     0.000 A 
ATOM      7  C   UNL d   1     -49.686  27.556  33.318  0.00  0.00     0.000 A 
ATOM      8  C   UNL d   1     -50.479  27.775  33.372  0.00  0.00     0.000 A 
ATOM      9  C   UNL d   1     -51.064  27.201  33.455  0.00  0.00     0.005 A 
ENDBRANCH   2   4
ENDBRANCH   1   2
BRANCH   1  10
ATOM     10  C   UNL d   1     -51.891  24.497  33.307  0.00  0.00     0.168 C 
BRANCH  10  11
ATOM     11  C   UNL d   1     -51.963  23.827  33.772  0.00  0.00     0.226 C 
ATOM     12  O   UNL d   1     -51.307  23.390  34.018  0.00  0.00    -0.284 OA
BRANCH  11  13
ATOM     13  C   UNL d   1     -52.760  23.587  34.003  0.00  0.00     0.070 A 
ATOM     14  S   UNL d   1     -53.410  23.402  33.473  0.00  0.00    -0.083 SA
ATOM     15  C   UNL d   1     -54.100  23.190  33.950  0.00  0.00     0.035 A 
ATOM     16  C   UNL d   1     -53.875  23.244  34.783  0.00  0.00     0.008 A 
ATOM     17  C   UNL d   1     -53.049  23.489  34.820  0.00  0.00     0.010 A 
ENDBRANCH  11  13
ENDBRANCH  10  11
ENDBRANCH   1  10
TORSDOF 5
ENDMDL
