MODEL 1
REMARK VINA RESULT:      65.6      0.000      0.000
REMARK  3 active torsions:
REMARK  status: ('A' for Active; 'I' for Inactive)
REMARK    1  A    between atoms: C_4  and  C_1 
REMARK       I    between atoms: C_5  and  N_6 
REMARK    2  A    between atoms: C_8  and  C_5 
REMARK    3  A    between atoms: N_6  and  C_7 
ROOT
ATOM      1  C   UNL d   1      58.571  49.496  51.990  0.00  0.00     0.042 A 
ATOM      2  C   UNL d   1      59.359  49.249  52.000  0.00  0.00     0.087 A 
ATOM      3  C   UNL d   1      58.203  49.708  52.697  0.00  0.00     0.004 A 
ATOM      4  C   UNL d   1      59.779  49.213  52.709  0.00  0.00     0.019 A 
ATOM      5  C   UNL d   1      58.611  49.675  53.409  0.00  0.00     0.000 A 
ATOM      6  C   UNL d   1      59.406  49.426  53.414  0.00  0.00     0.002 A 
ENDROOT
BRANCH   1   7
ATOM      7  C   UNL d   1      58.154  49.531  51.278  0.00  0.00     0.112 A 
ATOM      8  N   UNL d   1      58.409  49.641  50.510  0.00  0.00    -0.238 NA
ATOM      9  C   UNL d   1      57.747  49.627  50.021  0.00  0.00     0.088 A 
ATOM     10  C   UNL d   1      57.659  49.706  49.209  0.00  0.00     0.020 A 
ATOM     11  C   UNL d   1      57.088  49.508  50.493  0.00  0.00     0.049 A 
ATOM     12  C   UNL d   1      56.908  49.666  48.869  0.00  0.00     0.002 A 
ATOM     13  C   UNL d   1      56.249  49.547  49.342  0.00  0.00     0.001 A 
ATOM     14  C   UNL d   1      56.337  49.468  50.153  0.00  0.00     0.008 A 
ATOM     15  S   UNL d   1      57.346  49.449  51.277  0.00  0.00    -0.066 SA
ENDBRANCH   1   7
BRANCH   2  16
ATOM     16  N   UNL d   1      59.728  49.037  51.294  0.00  0.00    -0.206 NA
ATOM     17  C   UNL d   1      60.519  49.261  51.153  0.00  0.00     0.302 C 
ATOM     18  O   UNL d   1      60.928  49.694  51.722  0.00  0.00    -0.263 OA
BRANCH  17  19
ATOM     19  C   UNL d   1      60.891  49.051  50.448  0.00  0.00     0.158 A 
ATOM     20  O   UNL d   1      61.144  48.321  50.150  0.00  0.00    -0.300 OA
ATOM     21  C   UNL d   1      61.478  48.456  49.417  0.00  0.00     0.123 A 
ATOM     22  C   UNL d   1      61.440  49.261  49.246  0.00  0.00     0.029 A 
ATOM     23  C   UNL d   1      61.074  49.629  49.889  0.00  0.00     0.032 A 
ENDBRANCH  17  19
ENDBRANCH   2  16
TORSDOF 3
ENDMDL
