MODEL 1
REMARK VINA RESULT:     118.1      0.000      0.000
REMARK  6 active torsions:
REMARK  status: ('A' for Active; 'I' for Inactive)
REMARK    1  A    between atoms: O_8  and  C_2 
REMARK    2  A    between atoms: C_10  and  C_5 
REMARK    3  A    between atoms: C_21  and  O_8 
REMARK    4  A    between atoms: N_9  and  C_10 
REMARK    5  A    between atoms: C_12  and  C_15 
REMARK    6  A    between atoms: O_26  and  C_12 
ROOT
ATOM      1  C   UNL d   1     -54.865-100.710 -42.356  0.00  0.00     0.108 A 
ATOM      2  C   UNL d   1     -54.862-101.798 -41.100  0.00  0.00     0.161 A 
ATOM      3  C   UNL d   1     -54.788-100.441 -41.567  0.00  0.00     0.064 A 
ATOM      4  C   UNL d   1     -54.787-100.978 -40.946  0.00  0.00     0.222 A 
ATOM      5  C   UNL d   1     -54.866-100.167 -42.983  0.00  0.00     0.079 A 
ATOM      6  O   UNL d   1     -54.940-101.521 -42.518  0.00  0.00    -0.305 OA
ATOM      7  C   UNL d   1     -54.938-102.066 -41.882  0.00  0.00     0.126 A 
ATOM      8  C   UNL d   1     -54.714 -99.625 -41.424  0.00  0.00     0.009 A 
ATOM      9  C   UNL d   1     -54.792 -99.361 -42.832  0.00  0.00     0.199 A 
ATOM     10  O   UNL d   1     -54.712-100.716 -40.167  0.00  0.00    -0.284 OA
ATOM     11  C   UNL d   1     -54.716 -99.088 -42.049  0.00  0.00     0.042 A 
ATOM     12  O   UNL d   1     -54.793 -98.823 -43.450  0.00  0.00    -0.286 OA
ATOM     13  C   UNL d   1     -55.012-102.872 -42.033  0.00  0.00     0.029 C 
ENDROOT
BRANCH   2  14
ATOM     14  O   UNL d   1     -54.861-102.335 -40.476  0.00  0.00    -0.302 OA
BRANCH  14  15
ATOM     15  C   UNL d   1     -54.891-102.062 -39.700  0.00  0.00     0.100 A 
ATOM     16  C   UNL d   1     -54.711-101.276 -39.534  0.00  0.00     0.025 A 
ATOM     17  C   UNL d   1     -54.741-101.003 -38.759  0.00  0.00     0.007 A 
ATOM     18  C   UNL d   1     -54.950-101.517 -38.148  0.00  0.00     0.063 A 
ATOM     19  C   UNL d   1     -55.132-102.313 -38.321  0.00  0.00     0.007 A 
ATOM     20  C   UNL d   1     -55.101-102.579 -39.092  0.00  0.00     0.025 A 
BRANCH  18  21
ATOM     21  C   UNL d   1     -54.981-101.246 -37.368  0.00  0.00     0.296 C 
ATOM     22  O   UNL d   1     -54.711-100.490 -37.178  0.00  0.00    -0.259 OA
BRANCH  21  23
ATOM     23  O   UNL d   1     -55.283-101.730 -36.769  0.00  0.00    -0.296 OA
ATOM     24  C   UNL d   1     -54.765-102.092 -36.239  0.00  0.00     0.185 C 
ENDBRANCH  21  23
ENDBRANCH  18  21
ENDBRANCH  14  15
ENDBRANCH   2  14
BRANCH   5  25
ATOM     25  C   UNL d   1     -54.941-100.434 -43.751  0.00  0.00     0.086 C 
BRANCH  25  26
ATOM     26  N   UNL d   1     -55.451-100.047 -44.275  0.00  0.00    -0.300 N 
ATOM     27  C   UNL d   1     -56.253-100.240 -44.286  0.00  0.00     0.100 A 
ATOM     28  C   UNL d   1     -56.758 -99.855 -44.806  0.00  0.00     0.100 A 
ATOM     29  N   UNL d   1     -56.470 -99.280 -45.316  0.00  0.00    -0.299 N 
ATOM     30  C   UNL d   1     -55.664 -99.086 -45.305  0.00  0.00     0.100 A 
ATOM     31  C   UNL d   1     -56.981 -98.890 -45.843  0.00  0.00     0.100 C 
ATOM     32  C   UNL d   1     -55.153 -99.473 -44.781  0.00  0.00     0.100 A 
ENDBRANCH  25  26
ENDBRANCH   5  25
TORSDOF 6
ENDMDL
