MODEL 1
REMARK VINA RESULT:      23.9      0.000      0.000
REMARK  2 active torsions:
REMARK  status: ('A' for Active; 'I' for Inactive)
REMARK    1  A    between atoms: C_9  and  C_1 
REMARK    2  A    between atoms: O_13  and  C_11 
ROOT
ATOM      1  C   UNL d   1     -52.278  25.296  33.319  0.00  0.00     0.064 A 
ATOM      2  C   UNL d   1     -51.460  25.247  33.319  0.00  0.00     0.199 A 
ATOM      3  C   UNL d   1     -50.979  25.923  33.319  0.00  0.00     0.062 A 
ATOM      4  C   UNL d   1     -52.646  26.060  33.318  0.00  0.00     0.126 A 
ATOM      5  C   UNL d   1     -51.338  26.667  33.319  0.00  0.00     0.105 A 
ATOM      6  O   UNL d   1     -52.181  26.741  33.318  0.00  0.00    -0.305 OA
ATOM      7  C   UNL d   1     -50.186  25.862  33.320  0.00  0.00     0.007 A 
ATOM      8  C   UNL d   1     -50.907  27.356  33.318  0.00  0.00     0.049 A 
ATOM      9  O   UNL d   1     -51.103  24.507  33.320  0.00  0.00    -0.286 OA
ATOM     10  C   UNL d   1     -50.084  27.296  33.319  0.00  0.00     0.096 A 
ATOM     11  C   UNL d   1     -49.716  26.533  33.319  0.00  0.00     0.024 A 
ENDROOT
BRANCH   1  12
ATOM     12  C   UNL d   1     -52.714  24.617  33.319  0.00  0.00     0.005 A 
ATOM     13  C   UNL d   1     -52.328  23.867  33.331  0.00  0.00     0.000 A 
ATOM     14  C   UNL d   1     -52.764  23.188  33.331  0.00  0.00     0.000 A 
ATOM     15  C   UNL d   1     -53.589  23.215  33.319  0.00  0.00     0.000 A 
ATOM     16  C   UNL d   1     -53.984  23.954  33.307  0.00  0.00     0.000 A 
ATOM     17  C   UNL d   1     -53.540  24.643  33.307  0.00  0.00     0.000 A 
ENDBRANCH   1  12
BRANCH  10  18
ATOM     18  O   UNL d   1     -49.630  28.028  33.319  0.00  0.00    -0.328 OA
ATOM     19  C   UNL d   1     -49.338  28.306  34.033  0.00  0.00     0.181 C 
ENDBRANCH  10  18
TORSDOF 2
ENDMDL
MODEL 2
REMARK VINA RESULT:      26.0      0.761      1.552
REMARK  2 active torsions:
REMARK  status: ('A' for Active; 'I' for Inactive)
REMARK    1  A    between atoms: C_9  and  C_1 
REMARK    2  A    between atoms: O_13  and  C_11 
ROOT
ATOM      1  C   UNL d   1     -52.124  24.531  33.309  0.00  0.00     0.064 A 
ATOM      2  C   UNL d   1     -51.966  25.334  33.308  0.00  0.00     0.199 A 
ATOM      3  C   UNL d   1     -51.190  25.629  33.309  0.00  0.00     0.062 A 
ATOM      4  C   UNL d   1     -51.478  23.981  33.310  0.00  0.00     0.126 A 
ATOM      5  C   UNL d   1     -50.561  25.094  33.310  0.00  0.00     0.105 A 
ATOM      6  O   UNL d   1     -50.702  24.260  33.311  0.00  0.00    -0.305 OA
ATOM      7  C   UNL d   1     -51.049  26.412  33.309  0.00  0.00     0.007 A 
ATOM      8  C   UNL d   1     -49.785  25.338  33.311  0.00  0.00     0.049 A 
ATOM      9  O   UNL d   1     -52.591  25.866  33.307  0.00  0.00    -0.286 OA
ATOM     10  C   UNL d   1     -49.635  26.149  33.311  0.00  0.00     0.096 A 
ATOM     11  C   UNL d   1     -50.281  26.698  33.309  0.00  0.00     0.024 A 
ENDROOT
BRANCH   1  12
ATOM     12  C   UNL d   1     -52.891  24.280  33.308  0.00  0.00     0.005 A 
ATOM     13  C   UNL d   1     -53.519  24.843  33.308  0.00  0.00     0.000 A 
ATOM     14  C   UNL d   1     -54.286  24.592  33.307  0.00  0.00     0.000 A 
ATOM     15  C   UNL d   1     -54.469  23.786  33.306  0.00  0.00     0.000 A 
ATOM     16  C   UNL d   1     -53.852  23.217  33.306  0.00  0.00     0.000 A 
ATOM     17  C   UNL d   1     -53.074  23.473  33.307  0.00  0.00     0.000 A 
ENDBRANCH   1  12
BRANCH  10  18
ATOM     18  O   UNL d   1     -48.813  26.404  33.312  0.00  0.00    -0.328 OA
ATOM     19  C   UNL d   1     -48.633  27.139  33.628  0.00  0.00     0.181 C 
ENDBRANCH  10  18
TORSDOF 2
ENDMDL
