MODEL 1
REMARK VINA RESULT:      60.6      0.000      0.000
REMARK  3 active torsions:
REMARK  status: ('A' for Active; 'I' for Inactive)
REMARK    1  A    between atoms: C_10  and  N_1 
REMARK    2  A    between atoms: C_11  and  C_14 
REMARK    3  A    between atoms: O_20  and  C_11 
ROOT
ATOM      1  N   UNL d   1     -50.662  26.408  33.875  0.00  0.00    -0.242 N 
ATOM      2  C   UNL d   1     -50.463  25.628  33.799  0.00  0.00     0.267 A 
ATOM      3  C   UNL d   1     -51.476  26.510  33.796  0.00  0.00     0.267 A 
ATOM      4  C   UNL d   1     -51.177  25.214  33.667  0.00  0.00     0.061 A 
ATOM      5  C   UNL d   1     -51.791  25.749  33.665  0.00  0.00     0.061 A 
ATOM      6  C   UNL d   1     -52.572  25.497  33.546  0.00  0.00     0.005 A 
ATOM      7  C   UNL d   1     -51.323  24.409  33.549  0.00  0.00     0.005 A 
ATOM      8  C   UNL d   1     -52.709  24.696  33.430  0.00  0.00     0.000 A 
ATOM      9  C   UNL d   1     -52.094  24.160  33.431  0.00  0.00     0.000 A 
ATOM     10  O   UNL d   1     -49.692  25.335  33.848  0.00  0.00    -0.267 OA
ATOM     11  O   UNL d   1     -51.910  27.231  33.839  0.00  0.00    -0.267 OA
ATOM     12  C   UNL d   1     -53.515  24.442  33.307  0.00  0.00     0.000 C 
ATOM     13  C   UNL d   1     -52.235  23.327  33.310  0.00  0.00     0.000 C 
ENDROOT
BRANCH   1  14
ATOM     14  C   UNL d   1     -50.184  27.062  34.011  0.00  0.00     0.070 A 
ATOM     15  C   UNL d   1     -49.559  27.016  34.555  0.00  0.00     0.018 A 
ATOM     16  C   UNL d   1     -49.075  27.660  34.700  0.00  0.00     0.007 A 
ATOM     17  C   UNL d   1     -49.224  28.357  34.291  0.00  0.00     0.063 A 
ATOM     18  C   UNL d   1     -49.848  28.411  33.744  0.00  0.00     0.007 A 
ATOM     19  C   UNL d   1     -50.318  27.755  33.615  0.00  0.00     0.018 A 
BRANCH  17  20
ATOM     20  C   UNL d   1     -48.733  29.031  34.430  0.00  0.00     0.296 C 
ATOM     21  O   UNL d   1     -48.975  29.768  34.198  0.00  0.00    -0.259 OA
BRANCH  20  22
ATOM     22  O   UNL d   1     -48.011  28.920  34.802  0.00  0.00    -0.296 OA
ATOM     23  C   UNL d   1     -47.790  29.414  35.415  0.00  0.00     0.185 C 
ENDBRANCH  20  22
ENDBRANCH  17  20
ENDBRANCH   1  14
TORSDOF 3
ENDMDL
