MODEL 1
REMARK VINA RESULT:      10.5      0.000      0.000
REMARK  6 active torsions:
REMARK  status: ('A' for Active; 'I' for Inactive)
REMARK       I    between atoms: C_2  and  N_1 
REMARK    1  A    between atoms: C_3  and  N_1 
REMARK    2  A    between atoms: C_8  and  C_2 
REMARK    3  A    between atoms: C_4  and  C_9 
REMARK    4  A    between atoms: O_10  and  C_4 
REMARK    5  A    between atoms: O_11  and  C_5 
REMARK    6  A    between atoms: C_9  and  C_8 
ROOT
ATOM      1  N   UNL d   1     -52.478  25.393  33.359  0.00  0.00    -0.320 N 
ATOM      2  C   UNL d   1     -52.032  26.106  33.333  0.00  0.00     0.258 C 
ATOM      3  O   UNL d   1     -52.415  26.833  33.335  0.00  0.00    -0.267 OA
ATOM      4  H   UNL d   1     -53.298  25.420  33.385  0.00  0.00     0.169 HD
ENDROOT
BRANCH   1   5
ATOM      5  C   UNL d   1     -52.075  24.654  33.356  0.00  0.00     0.082 A 
ATOM      6  C   UNL d   1     -52.519  23.945  33.351  0.00  0.00     0.110 A 
ATOM      7  C   UNL d   1     -52.125  23.212  33.349  0.00  0.00     0.026 A 
ATOM      8  C   UNL d   1     -51.310  23.188  33.351  0.00  0.00     0.002 A 
ATOM      9  C   UNL d   1     -50.872  23.888  33.356  0.00  0.00     0.002 A 
ATOM     10  C   UNL d   1     -51.250  24.611  33.358  0.00  0.00     0.019 A 
BRANCH   6  11
ATOM     11  O   UNL d   1     -53.349  23.978  33.349  0.00  0.00    -0.327 OA
ATOM     12  C   UNL d   1     -53.787  23.280  33.389  0.00  0.00     0.181 C 
ENDBRANCH   6  11
ENDBRANCH   1   5
BRANCH   2  13
ATOM     13  C   UNL d   1     -51.207  26.077  33.306  0.00  0.00     0.067 C 
BRANCH  13  14
ATOM     14  C   UNL d   1     -50.768  26.774  33.343  0.00  0.00     0.072 C 
BRANCH  14  15
ATOM     15  C   UNL d   1     -50.042  26.784  33.728  0.00  0.00     0.178 C 
ATOM     16  O   UNL d   1     -49.376  26.461  33.364  0.00  0.00    -0.646 OA
BRANCH  15  17
ATOM     17  O   UNL d   1     -49.975  27.116  34.479  0.00  0.00    -0.773 OA
ATOM     18  H   UNL d   1     -50.324  27.848  34.634  0.00  0.00     0.167 HD
ENDBRANCH  15  17
ENDBRANCH  14  15
ENDBRANCH  13  14
ENDBRANCH   2  13
TORSDOF 6
ENDMDL
