MODEL 1
REMARK VINA RESULT:      64.0      0.000      0.000
REMARK  0 active torsions:
REMARK  status: ('A' for Active; 'I' for Inactive)
REMARK       I    between atoms: N_3  and  C_1 
REMARK       I    between atoms: N_5  and  C_1 
REMARK       I    between atoms: C_2  and  N_4 
REMARK       I    between atoms: N_6  and  C_2 
ROOT
ATOM      1  C   UNL d   1     -52.199  24.338  33.361  0.00  0.00     0.339 C 
ATOM      2  C   UNL d   1     -50.874  27.361  33.328  0.00  0.00     0.340 C 
ATOM      3  N   UNL d   1     -51.866  25.107  33.352  0.00  0.00    -0.254 N 
ATOM      4  N   UNL d   1     -51.209  26.607  33.336  0.00  0.00    -0.254 N 
ATOM      5  N   UNL d   1     -53.018  24.242  33.348  0.00  0.00    -0.258 N 
ATOM      6  N   UNL d   1     -50.057  27.448  33.341  0.00  0.00    -0.253 N 
ATOM      7  O   UNL d   1     -51.708  23.682  33.382  0.00  0.00    -0.245 OA
ATOM      8  O   UNL d   1     -51.358  28.031  33.307  0.00  0.00    -0.245 OA
ATOM      9  C   UNL d   1     -52.046  26.522  33.323  0.00  0.00     0.104 A 
ATOM     10  C   UNL d   1     -50.730  25.946  33.357  0.00  0.00     0.104 A 
ATOM     11  C   UNL d   1     -51.061  25.191  33.365  0.00  0.00     0.104 A 
ATOM     12  C   UNL d   1     -52.377  25.767  33.331  0.00  0.00     0.104 A 
ATOM     13  O   UNL d   1     -48.419  27.608  33.368  0.00  0.00    -0.300 OA
ATOM     14  C   UNL d   1     -49.574  26.777  33.363  0.00  0.00     0.111 A 
ATOM     15  C   UNL d   1     -49.726  28.204  33.333  0.00  0.00     0.111 A 
ATOM     16  C   UNL d   1     -53.291  23.465  33.357  0.00  0.00     0.085 A 
ATOM     17  C   UNL d   1     -53.463  24.941  33.327  0.00  0.00     0.085 A 
ATOM     18  C   UNL d   1     -48.900  28.283  33.347  0.00  0.00     0.142 A 
ATOM     19  C   UNL d   1     -48.761  26.858  33.376  0.00  0.00     0.142 A 
ATOM     20  C   UNL d   1     -54.066  23.191  33.348  0.00  0.00     0.019 A 
ATOM     21  C   UNL d   1     -54.284  25.028  33.310  0.00  0.00     0.019 A 
ATOM     22  C   UNL d   1     -54.765  23.619  33.328  0.00  0.00     0.002 A 
ATOM     23  C   UNL d   1     -54.860  24.440  33.311  0.00  0.00     0.002 A 
ENDROOT
TORSDOF 0
ENDMDL
