MODEL 1
REMARK VINA RESULT:      -3.1      0.000      0.000
REMARK  2 active torsions:
REMARK  status: ('A' for Active; 'I' for Inactive)
REMARK    1  A    between atoms: C_6  and  C_1 
REMARK    2  A    between atoms: C_7  and  C_5 
ROOT
ATOM      1  C   UNL d   1      33.072  18.961 -22.728  0.00  0.00     0.169 A 
ATOM      2  C   UNL d   1      32.824  19.598 -23.050  0.00  0.00     0.048 A 
ATOM      3  N   UNL d   1      33.157  19.580 -21.572  0.00  0.00    -0.148 NA
ATOM      4  N   UNL d   1      33.241  18.946 -21.988  0.00  0.00    -0.142 NA
ATOM      5  C   UNL d   1      32.909  20.216 -21.894  0.00  0.00     0.105 A 
ENDROOT
BRANCH   5   6
ATOM      6  C   UNL d   1      32.755  20.981 -21.633  0.00  0.00     0.019 A 
ATOM      7  C   UNL d   1      32.254  21.110 -20.984  0.00  0.00     0.002 A 
ATOM      8  C   UNL d   1      32.099  21.881 -20.721  0.00  0.00     0.000 A 
ATOM      9  C   UNL d   1      32.445  22.527 -21.108  0.00  0.00     0.000 A 
ATOM     10  C   UNL d   1      32.950  22.396 -21.762  0.00  0.00     0.000 A 
ATOM     11  C   UNL d   1      32.295  23.289 -20.852  0.00  0.00     0.000 C 
ATOM     12  C   UNL d   1      33.100  21.624 -22.018  0.00  0.00     0.002 A 
ENDBRANCH   5   6
BRANCH   1  13
ATOM     13  C   UNL d   1      33.155  18.327 -23.145  0.00  0.00     0.231 C 
ATOM     14  O   UNL d   1      33.235  18.373 -23.895  0.00  0.00    -0.643 OA
ATOM     15  O   UNL d   1      33.157  17.651 -22.799  0.00  0.00    -0.643 OA
ENDBRANCH   1  13
TORSDOF 2
ENDMDL
MODEL 2
REMARK VINA RESULT:      -2.9      2.095      3.839
REMARK  2 active torsions:
REMARK  status: ('A' for Active; 'I' for Inactive)
REMARK    1  A    between atoms: C_6  and  C_1 
REMARK    2  A    between atoms: C_7  and  C_5 
ROOT
ATOM      1  C   UNL d   1      32.748  21.429 -21.335  0.00  0.00     0.169 A 
ATOM      2  C   UNL d   1      32.495  20.747 -21.133  0.00  0.00     0.048 A 
ATOM      3  N   UNL d   1      33.240  20.918 -22.441  0.00  0.00    -0.148 NA
ATOM      4  N   UNL d   1      33.122  21.521 -21.989  0.00  0.00    -0.142 NA
ATOM      5  C   UNL d   1      32.986  20.236 -22.239  0.00  0.00     0.105 A 
ENDROOT
BRANCH   5   6
ATOM      6  C   UNL d   1      33.007  19.483 -22.571  0.00  0.00     0.019 A 
ATOM      7  C   UNL d   1      33.220  18.827 -22.110  0.00  0.00     0.002 A 
ATOM      8  C   UNL d   1      33.241  18.069 -22.445  0.00  0.00     0.000 A 
ATOM      9  C   UNL d   1      33.049  17.964 -23.244  0.00  0.00     0.000 A 
ATOM     10  C   UNL d   1      32.834  18.627 -23.709  0.00  0.00     0.000 A 
ATOM     11  C   UNL d   1      33.068  17.219 -23.579  0.00  0.00     0.000 C 
ATOM     12  C   UNL d   1      32.816  19.380 -23.367  0.00  0.00     0.002 A 
ENDBRANCH   5   6
BRANCH   1  13
ATOM     13  C   UNL d   1      32.630  22.032 -20.882  0.00  0.00     0.231 C 
ATOM     14  O   UNL d   1      33.208  22.346 -20.509  0.00  0.00    -0.643 OA
ATOM     15  O   UNL d   1      31.929  22.313 -20.810  0.00  0.00    -0.643 OA
ENDBRANCH   1  13
TORSDOF 2
ENDMDL
MODEL 3
REMARK VINA RESULT:      -2.8      4.081      4.951
REMARK  2 active torsions:
REMARK  status: ('A' for Active; 'I' for Inactive)
REMARK    1  A    between atoms: C_6  and  C_1 
REMARK    2  A    between atoms: C_7  and  C_5 
ROOT
ATOM      1  C   UNL d   1      32.679  23.192 -17.897  0.00  0.00     0.169 A 
ATOM      2  C   UNL d   1      32.285  23.640 -18.361  0.00  0.00     0.048 A 
ATOM      3  N   UNL d   1      33.206  22.581 -18.934  0.00  0.00    -0.148 NA
ATOM      4  N   UNL d   1      33.142  22.660 -18.178  0.00  0.00    -0.142 NA
ATOM      5  C   UNL d   1      32.812  23.029 -19.398  0.00  0.00     0.105 A 
ENDROOT
BRANCH   5   6
ATOM      6  C   UNL d   1      32.740  23.105 -20.214  0.00  0.00     0.019 A 
ATOM      7  C   UNL d   1      32.167  22.671 -20.628  0.00  0.00     0.002 A 
ATOM      8  C   UNL d   1      32.095  22.748 -21.450  0.00  0.00     0.000 A 
ATOM      9  C   UNL d   1      32.597  23.261 -21.863  0.00  0.00     0.000 A 
ATOM     10  C   UNL d   1      33.176  23.699 -21.444  0.00  0.00     0.000 A 
ATOM     11  C   UNL d   1      32.530  23.341 -22.673  0.00  0.00     0.000 C 
ATOM     12  C   UNL d   1      33.241  23.617 -20.624  0.00  0.00     0.002 A 
ENDBRANCH   5   6
BRANCH   1  13
ATOM     13  C   UNL d   1      32.614  23.272 -17.141  0.00  0.00     0.231 C 
ATOM     14  O   UNL d   1      33.152  23.002 -16.683  0.00  0.00    -0.643 OA
ATOM     15  O   UNL d   1      32.006  23.624 -16.853  0.00  0.00    -0.643 OA
ENDBRANCH   1  13
TORSDOF 2
ENDMDL
MODEL 4
REMARK VINA RESULT:      -2.8      4.299      5.124
REMARK  2 active torsions:
REMARK  status: ('A' for Active; 'I' for Inactive)
REMARK    1  A    between atoms: C_6  and  C_1 
REMARK    2  A    between atoms: C_7  and  C_5 
ROOT
ATOM      1  C   UNL d   1      29.173  16.321 -23.830  0.00  0.00     0.169 A 
ATOM      2  C   UNL d   1      29.287  17.000 -24.140  0.00  0.00     0.048 A 
ATOM      3  N   UNL d   1      30.469  16.176 -23.671  0.00  0.00    -0.148 NA
ATOM      4  N   UNL d   1      29.761  15.904 -23.593  0.00  0.00    -0.142 NA
ATOM      5  C   UNL d   1      30.583  16.855 -23.982  0.00  0.00     0.105 A 
ENDROOT
BRANCH   5   6
ATOM      6  C   UNL d   1      31.243  17.315 -24.152  0.00  0.00     0.019 A 
ATOM      7  C   UNL d   1      31.828  17.440 -23.576  0.00  0.00     0.002 A 
ATOM      8  C   UNL d   1      32.493  17.904 -23.748  0.00  0.00     0.000 A 
ATOM      9  C   UNL d   1      32.576  18.246 -24.498  0.00  0.00     0.000 A 
ATOM     10  C   UNL d   1      31.985  18.119 -25.078  0.00  0.00     0.000 A 
ATOM     11  C   UNL d   1      33.230  18.704 -24.672  0.00  0.00     0.000 C 
ATOM     12  C   UNL d   1      31.325  17.655 -24.899  0.00  0.00     0.002 A 
ENDBRANCH   5   6
BRANCH   1  13
ATOM     13  C   UNL d   1      28.463  16.049 -23.751  0.00  0.00     0.231 C 
ATOM     14  O   UNL d   1      27.985  16.370 -23.262  0.00  0.00    -0.643 OA
ATOM     15  O   UNL d   1      28.244  15.455 -24.169  0.00  0.00    -0.643 OA
ENDBRANCH   1  13
TORSDOF 2
ENDMDL
MODEL 5
REMARK VINA RESULT:      -2.7      0.803      1.101
REMARK  2 active torsions:
REMARK  status: ('A' for Active; 'I' for Inactive)
REMARK    1  A    between atoms: C_6  and  C_1 
REMARK    2  A    between atoms: C_7  and  C_5 
ROOT
ATOM      1  C   UNL d   1      32.625  18.105 -23.175  0.00  0.00     0.169 A 
ATOM      2  C   UNL d   1      32.310  18.759 -23.384  0.00  0.00     0.048 A 
ATOM      3  N   UNL d   1      33.241  18.718 -22.189  0.00  0.00    -0.148 NA
ATOM      4  N   UNL d   1      33.093  18.079 -22.577  0.00  0.00    -0.142 NA
ATOM      5  C   UNL d   1      32.925  19.371 -22.398  0.00  0.00     0.105 A 
ENDROOT
BRANCH   5   6
ATOM      6  C   UNL d   1      32.953  20.147 -22.125  0.00  0.00     0.019 A 
ATOM      7  C   UNL d   1      32.732  20.326 -21.345  0.00  0.00     0.002 A 
ATOM      8  C   UNL d   1      32.759  21.107 -21.070  0.00  0.00     0.000 A 
ATOM      9  C   UNL d   1      33.010  21.714 -21.575  0.00  0.00     0.000 A 
ATOM     10  C   UNL d   1      33.233  21.533 -22.362  0.00  0.00     0.000 A 
ATOM     11  C   UNL d   1      33.039  22.487 -21.308  0.00  0.00     0.000 C 
ATOM     12  C   UNL d   1      33.202  20.751 -22.628  0.00  0.00     0.002 A 
ENDBRANCH   5   6
BRANCH   1  13
ATOM     13  C   UNL d   1      32.477  17.465 -23.564  0.00  0.00     0.231 C 
ATOM     14  O   UNL d   1      32.757  17.369 -24.259  0.00  0.00    -0.643 OA
ATOM     15  O   UNL d   1      32.045  16.927 -23.246  0.00  0.00    -0.643 OA
ENDBRANCH   1  13
TORSDOF 2
ENDMDL
MODEL 6
REMARK VINA RESULT:      -2.7      2.547      3.904
REMARK  2 active torsions:
REMARK  status: ('A' for Active; 'I' for Inactive)
REMARK    1  A    between atoms: C_6  and  C_1 
REMARK    2  A    between atoms: C_7  and  C_5 
ROOT
ATOM      1  C   UNL d   1      32.373  22.532 -20.986  0.00  0.00     0.169 A 
ATOM      2  C   UNL d   1      32.104  21.859 -20.775  0.00  0.00     0.048 A 
ATOM      3  N   UNL d   1      33.085  21.953 -21.926  0.00  0.00    -0.148 NA
ATOM      4  N   UNL d   1      32.865  22.586 -21.562  0.00  0.00    -0.142 NA
ATOM      5  C   UNL d   1      32.816  21.280 -21.715  0.00  0.00     0.105 A 
ENDROOT
BRANCH   5   6
ATOM      6  C   UNL d   1      32.922  20.503 -21.967  0.00  0.00     0.019 A 
ATOM      7  C   UNL d   1      33.100  19.905 -21.421  0.00  0.00     0.002 A 
ATOM      8  C   UNL d   1      33.207  19.124 -21.674  0.00  0.00     0.000 A 
ATOM      9  C   UNL d   1      33.136  18.937 -22.479  0.00  0.00     0.000 A 
ATOM     10  C   UNL d   1      32.956  19.541 -23.030  0.00  0.00     0.000 A 
ATOM     11  C   UNL d   1      33.241  18.167 -22.734  0.00  0.00     0.000 C 
ATOM     12  C   UNL d   1      32.851  20.318 -22.768  0.00  0.00     0.002 A 
ENDBRANCH   5   6
BRANCH   1  13
ATOM     13  C   UNL d   1      32.152  23.165 -20.621  0.00  0.00     0.231 C 
ATOM     14  O   UNL d   1      31.627  23.616 -20.925  0.00  0.00    -0.643 OA
ATOM     15  O   UNL d   1      32.465  23.338 -19.951  0.00  0.00    -0.643 OA
ENDBRANCH   1  13
TORSDOF 2
ENDMDL
MODEL 7
REMARK VINA RESULT:      -2.6      3.926      5.561
REMARK  2 active torsions:
REMARK  status: ('A' for Active; 'I' for Inactive)
REMARK    1  A    between atoms: C_6  and  C_1 
REMARK    2  A    between atoms: C_7  and  C_5 
ROOT
ATOM      1  C   UNL d   1      31.885  17.773 -24.354  0.00  0.00     0.169 A 
ATOM      2  C   UNL d   1      31.675  17.322 -23.786  0.00  0.00     0.048 A 
ATOM      3  N   UNL d   1      30.712  17.603 -24.922  0.00  0.00    -0.148 NA
ATOM      4  N   UNL d   1      31.406  17.918 -24.926  0.00  0.00    -0.142 NA
ATOM      5  C   UNL d   1      30.503  17.151 -24.354  0.00  0.00     0.105 A 
ENDROOT
BRANCH   5   6
ATOM      6  C   UNL d   1      29.823  16.727 -24.165  0.00  0.00     0.019 A 
ATOM      7  C   UNL d   1      29.840  15.898 -24.137  0.00  0.00     0.002 A 
ATOM      8  C   UNL d   1      29.156  15.471 -23.947  0.00  0.00     0.000 A 
ATOM      9  C   UNL d   1      28.450  15.873 -23.783  0.00  0.00     0.000 A 
ATOM     10  C   UNL d   1      28.434  16.710 -23.811  0.00  0.00     0.000 A 
ATOM     11  C   UNL d   1      27.772  15.456 -23.595  0.00  0.00     0.000 C 
ATOM     12  C   UNL d   1      29.121  17.128 -24.002  0.00  0.00     0.002 A 
ENDBRANCH   5   6
BRANCH   1  13
ATOM     13  C   UNL d   1      32.580  18.088 -24.358  0.00  0.00     0.231 C 
ATOM     14  O   UNL d   1      32.711  18.726 -23.974  0.00  0.00    -0.643 OA
ATOM     15  O   UNL d   1      33.138  17.756 -24.752  0.00  0.00    -0.643 OA
ENDBRANCH   1  13
TORSDOF 2
ENDMDL
MODEL 8
REMARK VINA RESULT:      -2.3      2.381      3.110
REMARK  2 active torsions:
REMARK  status: ('A' for Active; 'I' for Inactive)
REMARK    1  A    between atoms: C_6  and  C_1 
REMARK    2  A    between atoms: C_7  and  C_5 
ROOT
ATOM      1  C   UNL d   1      32.805  21.328 -21.237  0.00  0.00     0.169 A 
ATOM      2  C   UNL d   1      32.864  21.077 -20.527  0.00  0.00     0.048 A 
ATOM      3  N   UNL d   1      32.675  22.558 -20.792  0.00  0.00    -0.148 NA
ATOM      4  N   UNL d   1      32.710  22.068 -21.376  0.00  0.00    -0.142 NA
ATOM      5  C   UNL d   1      32.734  22.307 -20.083  0.00  0.00     0.105 A 
ENDROOT
BRANCH   5   6
ATOM      6  C   UNL d   1      32.723  22.656 -19.337  0.00  0.00     0.019 A 
ATOM      7  C   UNL d   1      32.195  23.274 -19.171  0.00  0.00     0.002 A 
ATOM      8  C   UNL d   1      32.183  23.626 -18.421  0.00  0.00     0.000 A 
ATOM      9  C   UNL d   1      32.702  23.359 -17.832  0.00  0.00     0.000 A 
ATOM     10  C   UNL d   1      33.235  22.735 -18.000  0.00  0.00     0.000 A 
ATOM     11  C   UNL d   1      32.695  23.702 -17.090  0.00  0.00     0.000 C 
ATOM     12  C   UNL d   1      33.240  22.390 -18.752  0.00  0.00     0.002 A 
ENDBRANCH   5   6
BRANCH   1  13
ATOM     13  C   UNL d   1      32.840  20.838 -21.821  0.00  0.00     0.231 C 
ATOM     14  O   UNL d   1      32.977  21.089 -22.521  0.00  0.00    -0.643 OA
ATOM     15  O   UNL d   1      32.736  20.097 -21.693  0.00  0.00    -0.643 OA
ENDBRANCH   1  13
TORSDOF 2
ENDMDL
MODEL 9
REMARK VINA RESULT:      -2.1      3.132      4.111
REMARK  2 active torsions:
REMARK  status: ('A' for Active; 'I' for Inactive)
REMARK    1  A    between atoms: C_6  and  C_1 
REMARK    2  A    between atoms: C_7  and  C_5 
ROOT
ATOM      1  C   UNL d   1      32.873  22.859 -19.829  0.00  0.00     0.169 A 
ATOM      2  C   UNL d   1      33.240  23.344 -20.275  0.00  0.00     0.048 A 
ATOM      3  N   UNL d   1      32.462  22.197 -20.887  0.00  0.00    -0.148 NA
ATOM      4  N   UNL d   1      32.481  22.282 -20.129  0.00  0.00    -0.142 NA
ATOM      5  C   UNL d   1      32.829  22.682 -21.333  0.00  0.00     0.105 A 
ENDROOT
BRANCH   5   6
ATOM      6  C   UNL d   1      32.932  22.765 -22.146  0.00  0.00     0.019 A 
ATOM      7  C   UNL d   1      33.118  22.107 -22.615  0.00  0.00     0.002 A 
ATOM      8  C   UNL d   1      33.221  22.190 -23.433  0.00  0.00     0.000 A 
ATOM      9  C   UNL d   1      33.140  22.936 -23.786  0.00  0.00     0.000 A 
ATOM     10  C   UNL d   1      32.953  23.600 -23.311  0.00  0.00     0.000 A 
ATOM     11  C   UNL d   1      33.241  23.024 -24.592  0.00  0.00     0.000 C 
ATOM     12  C   UNL d   1      32.851  23.508 -22.496  0.00  0.00     0.002 A 
ENDBRANCH   5   6
BRANCH   1  13
ATOM     13  C   UNL d   1      32.892  22.945 -19.070  0.00  0.00     0.231 C 
ATOM     14  O   UNL d   1      32.741  23.617 -18.760  0.00  0.00    -0.643 OA
ATOM     15  O   UNL d   1      33.064  22.349 -18.632  0.00  0.00    -0.643 OA
ENDBRANCH   1  13
TORSDOF 2
ENDMDL
