MODEL 1
REMARK VINA RESULT:      -1.3      0.000      0.000
REMARK  3 active torsions:
REMARK  status: ('A' for Active; 'I' for Inactive)
REMARK    1  A    between atoms: N_9  and  C_3 
REMARK    2  A    between atoms: C_14  and  C_5 
REMARK       I    between atoms: C_10  and  N_11 
REMARK    3  A    between atoms: C_13  and  C_10 
ROOT
ATOM      1  N   UNL d   1      32.929  21.399 -21.613  0.00  0.00    -0.196 N 
ATOM      2  C   UNL d   1      32.924  22.090 -21.172  0.00  0.00     0.167 A 
ATOM      3  C   UNL d   1      32.825  21.428 -22.432  0.00  0.00     0.152 A 
ATOM      4  N   UNL d   1      33.048  20.770 -21.101  0.00  0.00    -0.163 NA
ATOM      5  C   UNL d   1      33.040  21.892 -20.385  0.00  0.00     0.055 A 
ATOM      6  C   UNL d   1      33.116  21.083 -20.343  0.00  0.00     0.104 A 
ATOM      7  N   UNL d   1      32.814  22.820 -21.542  0.00  0.00    -0.227 NA
ATOM      8  C   UNL d   1      32.714  22.161 -22.809  0.00  0.00     0.057 A 
ATOM      9  C   UNL d   1      32.708  22.852 -22.367  0.00  0.00     0.086 A 
ATOM     10  C   UNL d   1      33.240  20.654 -19.644  0.00  0.00     0.023 C 
ATOM     11  C   UNL d   1      32.595  23.589 -22.754  0.00  0.00     0.021 C 
ENDROOT
BRANCH   3  12
ATOM     12  N   UNL d   1      32.830  20.736 -22.874  0.00  0.00    -0.286 N 
ATOM     13  C   UNL d   1      32.455  20.054 -22.594  0.00  0.00     0.101 A 
ATOM     14  C   UNL d   1      32.463  19.365 -23.038  0.00  0.00     0.102 A 
ATOM     15  N   UNL d   1      32.849  19.350 -23.774  0.00  0.00    -0.267 N 
ATOM     16  C   UNL d   1      32.861  18.653 -24.233  0.00  0.00     0.288 C 
ATOM     17  C   UNL d   1      33.219  20.023 -24.051  0.00  0.00     0.102 A 
ATOM     18  O   UNL d   1      33.238  18.625 -24.958  0.00  0.00    -0.264 OA
ATOM     19  C   UNL d   1      33.212  20.720 -23.601  0.00  0.00     0.101 A 
BRANCH  16  20
ATOM     20  C   UNL d   1      32.481  17.970 -23.944  0.00  0.00     0.156 A 
ATOM     21  O   UNL d   1      32.498  17.600 -23.213  0.00  0.00    -0.300 OA
ATOM     22  C   UNL d   1      32.005  16.942 -23.259  0.00  0.00     0.123 A 
ATOM     23  C   UNL d   1      31.689  16.902 -23.999  0.00  0.00     0.029 A 
ATOM     24  C   UNL d   1      31.983  17.546 -24.438  0.00  0.00     0.032 A 
ENDBRANCH  16  20
ENDBRANCH   3  12
BRANCH   5  25
ATOM     25  C   UNL d   1      33.085  22.347 -19.698  0.00  0.00     0.004 A 
ATOM     26  C   UNL d   1      33.121  21.970 -18.956  0.00  0.00     0.001 A 
ATOM     27  C   UNL d   1      33.167  22.425 -18.269  0.00  0.00     0.011 A 
ATOM     28  C   UNL d   1      33.177  23.248 -18.315  0.00  0.00     0.058 A 
ATOM     29  C   UNL d   1      33.141  23.625 -19.053  0.00  0.00     0.011 A 
ATOM     30 CL   UNL d   1      33.223  23.699 -17.623  0.00  0.00    -0.082 Cl
ATOM     31  C   UNL d   1      33.095  23.171 -19.740  0.00  0.00     0.001 A 
ENDBRANCH   5  25
TORSDOF 3
ENDMDL
MODEL 2
REMARK VINA RESULT:       0.1      2.651      5.493
REMARK  3 active torsions:
REMARK  status: ('A' for Active; 'I' for Inactive)
REMARK    1  A    between atoms: N_9  and  C_3 
REMARK    2  A    between atoms: C_14  and  C_5 
REMARK       I    between atoms: C_10  and  N_11 
REMARK    3  A    between atoms: C_13  and  C_10 
ROOT
ATOM      1  N   UNL d   1      33.183  19.899 -22.748  0.00  0.00    -0.196 N 
ATOM      2  C   UNL d   1      33.172  19.362 -23.368  0.00  0.00     0.167 A 
ATOM      3  C   UNL d   1      33.176  20.711 -22.900  0.00  0.00     0.152 A 
ATOM      4  N   UNL d   1      33.199  19.477 -22.046  0.00  0.00    -0.163 NA
ATOM      5  C   UNL d   1      33.181  18.606 -23.052  0.00  0.00     0.055 A 
ATOM      6  C   UNL d   1      33.198  18.677 -22.242  0.00  0.00     0.104 A 
ATOM      7  N   UNL d   1      33.154  19.628 -24.150  0.00  0.00    -0.227 NA
ATOM      8  C   UNL d   1      33.159  20.983 -23.687  0.00  0.00     0.057 A 
ATOM      9  C   UNL d   1      33.147  20.447 -24.306  0.00  0.00     0.086 A 
ATOM     10  C   UNL d   1      33.212  18.042 -21.710  0.00  0.00     0.023 C 
ATOM     11  C   UNL d   1      33.129  20.729 -25.097  0.00  0.00     0.021 C 
ENDROOT
BRANCH   3  12
ATOM     12  N   UNL d   1      33.188  21.248 -22.280  0.00  0.00    -0.286 N 
ATOM     13  C   UNL d   1      33.180  20.985 -21.495  0.00  0.00     0.101 A 
ATOM     14  C   UNL d   1      33.191  21.525 -20.878  0.00  0.00     0.102 A 
ATOM     15  N   UNL d   1      33.210  22.341 -21.039  0.00  0.00    -0.267 N 
ATOM     16  C   UNL d   1      33.222  22.896 -20.418  0.00  0.00     0.288 C 
ATOM     17  C   UNL d   1      33.218  22.599 -21.814  0.00  0.00     0.102 A 
ATOM     18  O   UNL d   1      33.241  23.701 -20.563  0.00  0.00    -0.264 OA
ATOM     19  C   UNL d   1      33.207  22.053 -22.439  0.00  0.00     0.101 A 
BRANCH  16  20
ATOM     20  C   UNL d   1      33.214  22.624 -19.630  0.00  0.00     0.156 A 
ATOM     21  O   UNL d   1      33.213  21.871 -19.309  0.00  0.00    -0.300 OA
ATOM     22  C   UNL d   1      33.204  21.952 -18.490  0.00  0.00     0.123 A 
ATOM     23  C   UNL d   1      33.199  22.735 -18.304  0.00  0.00     0.029 A 
ATOM     24  C   UNL d   1      33.206  23.167 -19.016  0.00  0.00     0.032 A 
ENDBRANCH  16  20
ENDBRANCH   3  12
BRANCH   5  25
ATOM     25  C   UNL d   1      33.177  17.858 -23.400  0.00  0.00     0.004 A 
ATOM     26  C   UNL d   1      33.240  17.790 -24.229  0.00  0.00     0.001 A 
ATOM     27  C   UNL d   1      33.236  17.043 -24.578  0.00  0.00     0.011 A 
ATOM     28  C   UNL d   1      33.169  16.365 -24.112  0.00  0.00     0.058 A 
ATOM     29  C   UNL d   1      33.106  16.432 -23.286  0.00  0.00     0.011 A 
ATOM     30 CL   UNL d   1      33.165  15.619 -24.467  0.00  0.00    -0.082 Cl
ATOM     31  C   UNL d   1      33.110  17.178 -22.937  0.00  0.00     0.001 A 
ENDBRANCH   5  25
TORSDOF 3
ENDMDL
