MODEL 1
REMARK VINA RESULT:      13.3      0.000      0.000
REMARK  5 active torsions:
REMARK  status: ('A' for Active; 'I' for Inactive)
REMARK    1  A    between atoms: C_13  and  C_4 
REMARK    2  A    between atoms: S_11  and  C_5 
REMARK    3  A    between atoms: C_10  and  C_12 
REMARK    4  A    between atoms: C_15  and  S_11 
REMARK    5  A    between atoms: C_12  and  C_15 
ROOT
ATOM      1  N   UNL d   1     -42.579-122.256 -50.841  0.00  0.00    -0.206 N 
ATOM      2  C   UNL d   1     -42.936-122.504 -50.135  0.00  0.00     0.166 A 
ATOM      3  N   UNL d   1     -41.317-122.444 -50.269  0.00  0.00    -0.163 NA
ATOM      4  C   UNL d   1     -42.482-122.720 -49.499  0.00  0.00     0.055 A 
ATOM      5  C   UNL d   1     -43.059-122.041 -51.474  0.00  0.00     0.116 A 
ATOM      6  C   UNL d   1     -41.672-122.690 -49.567  0.00  0.00     0.104 A 
ATOM      7  N   UNL d   1     -43.763-122.529 -50.080  0.00  0.00    -0.227 NA
ATOM      8  C   UNL d   1     -43.865-122.065 -51.424  0.00  0.00     0.045 A 
ATOM      9  C   UNL d   1     -44.222-122.312 -50.718  0.00  0.00     0.085 A 
ATOM     10  C   UNL d   1     -41.208-122.907 -48.931  0.00  0.00     0.023 C 
ATOM     11  C   UNL d   1     -45.072-122.340 -50.656  0.00  0.00     0.021 C 
ENDROOT
BRANCH   5  12
ATOM     12  S   UNL d   1     -42.694-121.785 -52.204  0.00  0.00    -0.064 SA
BRANCH  12  13
ATOM     13  C   UNL d   1     -42.593-121.473 -52.980  0.00  0.00     0.079 C 
BRANCH  13  14
ATOM     14  C   UNL d   1     -41.845-121.496 -53.359  0.00  0.00     0.208 C 
ATOM     15  O   UNL d   1     -41.145-121.353 -52.913  0.00  0.00    -0.285 OA
BRANCH  14  16
ATOM     16  C   UNL d   1     -41.799-121.663 -54.181  0.00  0.00     0.069 A 
ATOM     17  S   UNL d   1     -42.316-121.371 -54.787  0.00  0.00    -0.083 SA
ATOM     18  C   UNL d   1     -42.053-121.688 -55.531  0.00  0.00     0.035 A 
ATOM     19  C   UNL d   1     -41.381-122.171 -55.386  0.00  0.00     0.008 A 
ATOM     20  C   UNL d   1     -41.221-122.158 -54.554  0.00  0.00     0.010 A 
ENDBRANCH  14  16
ENDBRANCH  13  14
ENDBRANCH  12  13
ENDBRANCH   5  12
BRANCH   4  21
ATOM     21  C   UNL d   1     -42.835-122.965 -48.801  0.00  0.00     0.004 A 
ATOM     22  C   UNL d   1     -43.478-123.480 -48.836  0.00  0.00     0.001 A 
ATOM     23  C   UNL d   1     -43.829-123.724 -48.141  0.00  0.00     0.011 A 
ATOM     24  C   UNL d   1     -43.531-123.448 -47.423  0.00  0.00     0.058 A 
ATOM     25  C   UNL d   1     -42.908-122.948 -47.388  0.00  0.00     0.011 A 
ATOM     26 CL   UNL d   1     -43.900-123.703 -46.695  0.00  0.00    -0.082 Cl
ATOM     27  C   UNL d   1     -42.551-122.701 -48.094  0.00  0.00     0.001 A 
ENDBRANCH   4  21
TORSDOF 5
ENDMDL
