MODEL 1
REMARK VINA RESULT:       7.9      0.000      0.000
REMARK  2 active torsions:
REMARK  status: ('A' for Active; 'I' for Inactive)
REMARK    1  A    between atoms: C_6  and  C_2 
REMARK    2  A    between atoms: C_7  and  C_6 
ROOT
ATOM      1  N   UNL d   1     -50.529  24.406  33.328  0.00  0.00    -0.193 NA
ATOM      2  C   UNL d   1     -51.377  25.434  33.315  0.00  0.00     0.153 A 
ATOM      3  N   UNL d   1     -51.821  24.741  33.318  0.00  0.00    -0.306 N 
ATOM      4  C   UNL d   1     -51.296  24.105  33.326  0.00  0.00     0.147 A 
ATOM      5  C   UNL d   1     -50.577  25.233  33.321  0.00  0.00     0.276 A 
ATOM      6  C   UNL d   1     -52.638  24.600  33.315  0.00  0.00     0.077 A 
ATOM      7  C   UNL d   1     -51.583  23.322  33.332  0.00  0.00     0.037 A 
ATOM      8  O   UNL d   1     -49.940  25.759  33.320  0.00  0.00    -0.268 OA
ATOM      9  C   UNL d   1     -52.923  23.830  33.320  0.00  0.00     0.019 A 
ATOM     10  C   UNL d   1     -52.393  23.188  33.328  0.00  0.00     0.005 A 
ATOM     11  C   UNL d   1     -52.150  25.723  33.308  0.00  0.00     0.033 C 
ENDROOT
BRANCH   2  12
ATOM     12  C   UNL d   1     -50.908  26.117  33.311  0.00  0.00     0.128 C 
BRANCH  12  13
ATOM     13  C   UNL d   1     -51.259  26.850  33.453  0.00  0.00     0.188 C 
ATOM     14  O   UNL d   1     -52.059  26.967  33.311  0.00  0.00    -0.647 OA
ATOM     15  O   UNL d   1     -50.796  27.475  33.742  0.00  0.00    -0.647 OA
ENDBRANCH  12  13
ENDBRANCH   2  12
TORSDOF 2
ENDMDL
