MODEL 1
REMARK VINA RESULT:     -10.6      0.000      0.000
REMARK  1 active torsions:
REMARK  status: ('A' for Active; 'I' for Inactive)
REMARK    1  A    between atoms: C_9  and  C_3 
ROOT
ATOM      1  C   UNL d   1     -47.606  12.902  23.068  0.00  0.00     0.035 A 
ATOM      2  N   UNL d   1     -47.645  11.440  23.374  0.00  0.00    -0.239 NA
ATOM      3  C   UNL d   1     -47.977  12.188  23.167  0.00  0.00     0.083 A 
ATOM      4  N   UNL d   1     -46.152  12.565  23.348  0.00  0.00    -0.207 NA
ATOM      5  C   UNL d   1     -46.786  13.074  23.148  0.00  0.00     0.086 A 
ATOM      6  C   UNL d   1     -46.185  11.758  23.515  0.00  0.00     0.298 A 
ATOM      7  C   UNL d   1     -48.123  13.478  22.871  0.00  0.00     0.003 A 
ATOM      8  C   UNL d   1     -46.863  11.258  23.524  0.00  0.00     0.161 A 
ATOM      9  C   UNL d   1     -46.515  13.840  23.024  0.00  0.00     0.019 A 
ATOM     10  O   UNL d   1     -45.448  11.394  23.698  0.00  0.00    -0.263 OA
ATOM     11  C   UNL d   1     -47.851  14.259  22.743  0.00  0.00     0.000 A 
ATOM     12  C   UNL d   1     -47.039  14.433  22.822  0.00  0.00     0.002 A 
ATOM     13  C   UNL d   1     -48.427  14.857  22.533  0.00  0.00     0.000 C 
ENDROOT
BRANCH   3  14
ATOM     14  C   UNL d   1     -48.783  12.193  23.050  0.00  0.00     0.018 A 
ATOM     15  C   UNL d   1     -49.100  12.120  22.302  0.00  0.00     0.002 A 
ATOM     16  C   UNL d   1     -49.940  12.127  22.188  0.00  0.00     0.000 A 
ATOM     17  C   UNL d   1     -50.425  12.209  22.849  0.00  0.00     0.000 A 
ATOM     18  C   UNL d   1     -50.099  12.282  23.598  0.00  0.00     0.000 A 
ATOM     19  C   UNL d   1     -49.269  12.274  23.698  0.00  0.00     0.002 A 
ENDBRANCH   3  14
TORSDOF 1
ENDMDL
MODEL 2
REMARK VINA RESULT:      -9.0      2.089      3.629
REMARK  1 active torsions:
REMARK  status: ('A' for Active; 'I' for Inactive)
REMARK    1  A    between atoms: C_9  and  C_3 
ROOT
ATOM      1  C   UNL d   1     -48.801  13.479  23.069  0.00  0.00     0.035 A 
ATOM      2  N   UNL d   1     -48.421  14.819  22.528  0.00  0.00    -0.239 NA
ATOM      3  C   UNL d   1     -48.281  14.020  22.763  0.00  0.00     0.083 A 
ATOM      4  N   UNL d   1     -50.104  14.256  23.117  0.00  0.00    -0.207 NA
ATOM      5  C   UNL d   1     -49.621  13.582  23.229  0.00  0.00     0.086 A 
ATOM      6  C   UNL d   1     -49.885  14.992  22.817  0.00  0.00     0.298 A 
ATOM      7  C   UNL d   1     -48.444  12.780  23.220  0.00  0.00     0.003 A 
ATOM      8  C   UNL d   1     -49.123  15.237  22.554  0.00  0.00     0.161 A 
ATOM      9  C   UNL d   1     -50.058  12.960  23.542  0.00  0.00     0.019 A 
ATOM     10  O   UNL d   1     -50.500  15.565  22.770  0.00  0.00    -0.263 OA
ATOM     11  C   UNL d   1     -48.886  12.144  23.538  0.00  0.00     0.000 A 
ATOM     12  C   UNL d   1     -49.699  12.243  23.698  0.00  0.00     0.002 A 
ATOM     13  C   UNL d   1     -48.479  11.406  23.690  0.00  0.00     0.000 C 
ENDROOT
BRANCH   3  14
ATOM     14  C   UNL d   1     -47.516  13.757  22.670  0.00  0.00     0.018 A 
ATOM     15  C   UNL d   1     -47.289  13.353  21.998  0.00  0.00     0.002 A 
ATOM     16  C   UNL d   1     -46.491  13.082  21.908  0.00  0.00     0.000 A 
ATOM     17  C   UNL d   1     -45.954  13.236  22.514  0.00  0.00     0.000 A 
ATOM     18  C   UNL d   1     -46.189  13.642  23.187  0.00  0.00     0.000 A 
ATOM     19  C   UNL d   1     -46.979  13.904  23.264  0.00  0.00     0.002 A 
ENDBRANCH   3  14
TORSDOF 1
ENDMDL
MODEL 3
REMARK VINA RESULT:      -8.8      1.546      2.927
REMARK  1 active torsions:
REMARK  status: ('A' for Active; 'I' for Inactive)
REMARK    1  A    between atoms: C_9  and  C_3 
ROOT
ATOM      1  C   UNL d   1     -48.769  13.313  23.004  0.00  0.00     0.035 A 
ATOM      2  N   UNL d   1     -48.205  11.947  23.222  0.00  0.00    -0.239 NA
ATOM      3  C   UNL d   1     -48.168  12.769  23.036  0.00  0.00     0.083 A 
ATOM      4  N   UNL d   1     -49.989  12.485  23.366  0.00  0.00    -0.207 NA
ATOM      5  C   UNL d   1     -49.588  13.188  23.152  0.00  0.00     0.086 A 
ATOM      6  C   UNL d   1     -49.668  11.735  23.484  0.00  0.00     0.298 A 
ATOM      7  C   UNL d   1     -48.499  14.038  22.805  0.00  0.00     0.003 A 
ATOM      8  C   UNL d   1     -48.861  11.501  23.417  0.00  0.00     0.161 A 
ATOM      9  C   UNL d   1     -50.115  13.816  23.091  0.00  0.00     0.019 A 
ATOM     10  O   UNL d   1     -50.216  11.133  23.698  0.00  0.00    -0.263 OA
ATOM     11  C   UNL d   1     -49.033  14.680  22.742  0.00  0.00     0.000 A 
ATOM     12  C   UNL d   1     -49.845  14.560  22.888  0.00  0.00     0.002 A 
ATOM     13  C   UNL d   1     -48.718  15.447  22.526  0.00  0.00     0.000 C 
ENDROOT
BRANCH   3  14
ATOM     14  C   UNL d   1     -47.427  13.057  22.863  0.00  0.00     0.018 A 
ATOM     15  C   UNL d   1     -46.956  13.383  23.445  0.00  0.00     0.002 A 
ATOM     16  C   UNL d   1     -46.185  13.681  23.258  0.00  0.00     0.000 A 
ATOM     17  C   UNL d   1     -45.924  13.632  22.477  0.00  0.00     0.000 A 
ATOM     18  C   UNL d   1     -46.402  13.303  21.898  0.00  0.00     0.000 A 
ATOM     19  C   UNL d   1     -47.161  13.013  22.095  0.00  0.00     0.002 A 
ENDBRANCH   3  14
TORSDOF 1
ENDMDL
