MODEL 1
REMARK VINA RESULT:      36.1      0.000      0.000
REMARK  5 active torsions:
REMARK  status: ('A' for Active; 'I' for Inactive)
REMARK    1  A    between atoms: N_2  and  C_1 
REMARK       I    between atoms: C_7  and  N_2 
REMARK    2  A    between atoms: C_21  and  N_3 
REMARK    3  A    between atoms: C_8  and  C_7 
REMARK       I    between atoms: C_12  and  N_13 
REMARK    4  A    between atoms: N_13  and  C_14 
REMARK    5  A    between atoms: C_20  and  C_21 
ROOT
ATOM      1  C   UNL d   1      45.858 -16.850  44.198  0.00  0.00     0.182 A 
ATOM      2  N   UNL d   1      45.175 -16.452  44.412  0.00  0.00    -0.285 N 
ATOM      3  S   UNL d   1      46.483 -16.314  44.220  0.00  0.00    -0.048 SA
ATOM      4  C   UNL d   1      46.181 -15.579  44.449  0.00  0.00     0.050 A 
ATOM      5  C   UNL d   1      45.369 -15.664  44.568  0.00  0.00     0.072 A 
ATOM      6  C   UNL d   1      46.539 -14.846  44.564  0.00  0.00     0.027 A 
ATOM      7  C   UNL d   1      44.915 -15.018  44.802  0.00  0.00     0.020 A 
ATOM      8  C   UNL d   1      46.086 -14.200  44.797  0.00  0.00     0.085 A 
ATOM      9  C   UNL d   1      45.274 -14.286  44.916  0.00  0.00     0.021 A 
ENDROOT
BRANCH   1  10
ATOM     10  N   UNL d   1      45.905 -17.649  43.998  0.00  0.00    -0.183 NA
ATOM     11  C   UNL d   1      46.286 -17.872  43.303  0.00  0.00     0.287 C 
ATOM     12  O   UNL d   1      46.617 -17.296  42.815  0.00  0.00    -0.265 OA
BRANCH  11  13
ATOM     13  C   UNL d   1      46.337 -18.669  43.096  0.00  0.00     0.087 A 
ATOM     14  S   UNL d   1      46.223 -18.989  42.341  0.00  0.00    -0.082 SA
ATOM     15  C   UNL d   1      46.326 -19.808  42.380  0.00  0.00     0.036 A 
ATOM     16  C   UNL d   1      46.505 -19.995  43.163  0.00  0.00     0.008 A 
ATOM     17  C   UNL d   1      46.514 -19.300  43.608  0.00  0.00     0.012 A 
ENDBRANCH  11  13
ENDBRANCH   1  10
BRANCH   2  18
ATOM     18  C   UNL d   1      44.416 -16.775  44.464  0.00  0.00     0.082 C 
BRANCH  18  19
ATOM     19  C   UNL d   1      43.850 -16.434  44.954  0.00  0.00     0.019 C 
ATOM     20  C   UNL d   1      43.231 -16.001  44.633  0.00  0.00     0.002 C 
ENDBRANCH  18  19
ENDBRANCH   2  18
BRANCH   8  21
ATOM     21  N   UNL d   1      46.447 -13.456  44.915  0.00  0.00    -0.208 NA
ATOM     22  C   UNL d   1      46.211 -12.815  44.468  0.00  0.00     0.279 C 
ATOM     23  O   UNL d   1      46.569 -12.083  44.585  0.00  0.00    -0.265 OA
ATOM     24  C   UNL d   1      45.618 -12.890  43.899  0.00  0.00     0.068 C 
ENDBRANCH   8  21
TORSDOF 5
ENDMDL
