MODEL 1
REMARK VINA RESULT:      -3.2      0.000      0.000
REMARK  5 active torsions:
REMARK  status: ('A' for Active; 'I' for Inactive)
REMARK    1  A    between atoms: C_15  and  C_4 
REMARK       I    between atoms: C_11  and  N_14 
REMARK    2  A    between atoms: C_19  and  C_11 
REMARK    3  A    between atoms: N_14  and  C_16 
REMARK    4  A    between atoms: C_16  and  C_15 
REMARK    5  A    between atoms: C_20  and  C_19 
ROOT
ATOM      1  N   UNL d   1      31.678  15.705 -23.906  0.00  0.00    -0.208 NA
ATOM      2  C   UNL d   1      32.294  16.176 -23.620  0.00  0.00     0.279 A 
ATOM      3  C   UNL d   1      30.958  16.058 -24.138  0.00  0.00     0.085 A 
ATOM      4  C   UNL d   1      32.194  17.002 -23.564  0.00  0.00     0.059 A 
ATOM      5  C   UNL d   1      31.478  17.347 -23.795  0.00  0.00     0.006 A 
ATOM      6  C   UNL d   1      30.866  16.876 -24.080  0.00  0.00     0.018 A 
ATOM      7  C   UNL d   1      30.347  15.579 -24.424  0.00  0.00     0.019 A 
ATOM      8  C   UNL d   1      30.148  17.221 -24.312  0.00  0.00     0.002 A 
ATOM      9  C   UNL d   1      29.536  16.750 -24.598  0.00  0.00     0.000 A 
ATOM     10  C   UNL d   1      29.636  15.924 -24.654  0.00  0.00     0.002 A 
ATOM     11  O   UNL d   1      33.004  15.831 -23.390  0.00  0.00    -0.265 OA
ATOM     12  C   UNL d   1      28.826  17.087 -24.828  0.00  0.00     0.000 C 
ATOM     13  C   UNL d   1      29.024  15.453 -24.938  0.00  0.00     0.000 C 
ENDROOT
BRANCH   4  14
ATOM     14  C   UNL d   1      32.806  17.465 -23.279  0.00  0.00     0.026 C 
BRANCH  14  15
ATOM     15  C   UNL d   1      32.711  18.273 -23.179  0.00  0.00     0.102 C 
BRANCH  15  16
ATOM     16  N   UNL d   1      32.971  18.651 -22.493  0.00  0.00    -0.206 NA
ATOM     17  C   UNL d   1      32.972  19.476 -22.446  0.00  0.00     0.279 C 
ATOM     18  O   UNL d   1      32.716  19.928 -23.081  0.00  0.00    -0.265 OA
BRANCH  17  19
ATOM     19  C   UNL d   1      33.234  19.847 -21.754  0.00  0.00     0.062 C 
BRANCH  19  20
ATOM     20  C   UNL d   1      33.023  20.634 -21.601  0.00  0.00     0.005 C 
ATOM     21  C   UNL d   1      32.895  20.891 -20.839  0.00  0.00     0.000 C 
ENDBRANCH  19  20
ENDBRANCH  17  19
ENDBRANCH  15  16
ENDBRANCH  14  15
ENDBRANCH   4  14
TORSDOF 5
ENDMDL
MODEL 2
REMARK VINA RESULT:      -3.2      1.636      5.643
REMARK  5 active torsions:
REMARK  status: ('A' for Active; 'I' for Inactive)
REMARK    1  A    between atoms: C_15  and  C_4 
REMARK       I    between atoms: C_11  and  N_14 
REMARK    2  A    between atoms: C_19  and  C_11 
REMARK    3  A    between atoms: N_14  and  C_16 
REMARK    4  A    between atoms: C_16  and  C_15 
REMARK    5  A    between atoms: C_20  and  C_19 
ROOT
ATOM      1  N   UNL d   1      33.161  20.859 -20.639  0.00  0.00    -0.208 NA
ATOM      2  C   UNL d   1      33.197  20.110 -20.988  0.00  0.00     0.279 A 
ATOM      3  C   UNL d   1      33.125  21.540 -21.120  0.00  0.00     0.085 A 
ATOM      4  C   UNL d   1      33.199  20.038 -21.819  0.00  0.00     0.059 A 
ATOM      5  C   UNL d   1      33.164  20.716 -22.291  0.00  0.00     0.006 A 
ATOM      6  C   UNL d   1      33.127  21.461 -21.942  0.00  0.00     0.018 A 
ATOM      7  C   UNL d   1      33.089  22.285 -20.762  0.00  0.00     0.019 A 
ATOM      8  C   UNL d   1      33.092  22.142 -22.414  0.00  0.00     0.002 A 
ATOM      9  C   UNL d   1      33.056  22.887 -22.065  0.00  0.00     0.000 A 
ATOM     10  C   UNL d   1      33.054  22.959 -21.234  0.00  0.00     0.002 A 
ATOM     11  O   UNL d   1      33.232  19.437 -20.516  0.00  0.00    -0.265 OA
ATOM     12  C   UNL d   1      33.021  23.561 -22.528  0.00  0.00     0.000 C 
ATOM     13  C   UNL d   1      33.017  23.702 -20.884  0.00  0.00     0.000 C 
ENDROOT
BRANCH   4  14
ATOM     14  C   UNL d   1      33.236  19.295 -22.160  0.00  0.00     0.026 C 
BRANCH  14  15
ATOM     15  C   UNL d   1      32.879  19.146 -22.883  0.00  0.00     0.102 C 
BRANCH  15  16
ATOM     16  N   UNL d   1      32.708  18.375 -23.124  0.00  0.00    -0.206 NA
ATOM     17  C   UNL d   1      32.377  18.233 -23.867  0.00  0.00     0.279 C 
ATOM     18  O   UNL d   1      32.214  18.858 -24.374  0.00  0.00    -0.265 OA
BRANCH  17  19
ATOM     19  C   UNL d   1      32.209  17.457 -24.101  0.00  0.00     0.062 C 
BRANCH  19  20
ATOM     20  C   UNL d   1      31.499  17.288 -24.493  0.00  0.00     0.005 C 
ATOM     21  C   UNL d   1      31.266  16.517 -24.620  0.00  0.00     0.000 C 
ENDBRANCH  19  20
ENDBRANCH  17  19
ENDBRANCH  15  16
ENDBRANCH  14  15
ENDBRANCH   4  14
TORSDOF 5
ENDMDL
MODEL 3
REMARK VINA RESULT:      -3.0      3.137      7.211
REMARK  5 active torsions:
REMARK  status: ('A' for Active; 'I' for Inactive)
REMARK    1  A    between atoms: C_15  and  C_4 
REMARK       I    between atoms: C_11  and  N_14 
REMARK    2  A    between atoms: C_19  and  C_11 
REMARK    3  A    between atoms: N_14  and  C_16 
REMARK    4  A    between atoms: C_16  and  C_15 
REMARK    5  A    between atoms: C_20  and  C_19 
ROOT
ATOM      1  N   UNL d   1      32.164  23.408 -20.011  0.00  0.00    -0.208 NA
ATOM      2  C   UNL d   1      32.431  23.025 -20.694  0.00  0.00     0.279 A 
ATOM      3  C   UNL d   1      32.437  23.161 -19.262  0.00  0.00     0.085 A 
ATOM      4  C   UNL d   1      32.972  22.394 -20.630  0.00  0.00     0.059 A 
ATOM      5  C   UNL d   1      33.240  22.153 -19.886  0.00  0.00     0.006 A 
ATOM      6  C   UNL d   1      32.973  22.536 -19.208  0.00  0.00     0.018 A 
ATOM      7  C   UNL d   1      32.164  23.551 -18.586  0.00  0.00     0.019 A 
ATOM      8  C   UNL d   1      33.241  22.296 -18.460  0.00  0.00     0.002 A 
ATOM      9  C   UNL d   1      32.973  22.679 -17.782  0.00  0.00     0.000 A 
ATOM     10  C   UNL d   1      32.432  23.310 -17.845  0.00  0.00     0.002 A 
ATOM     11  O   UNL d   1      32.163  23.265 -21.433  0.00  0.00    -0.265 OA
ATOM     12  C   UNL d   1      33.236  22.445 -17.043  0.00  0.00     0.000 C 
ATOM     13  C   UNL d   1      32.165  23.693 -17.168  0.00  0.00     0.000 C 
ENDROOT
BRANCH   4  14
ATOM     14  C   UNL d   1      33.234  22.017 -21.308  0.00  0.00     0.026 C 
BRANCH  14  15
ATOM     15  C   UNL d   1      33.172  21.204 -21.389  0.00  0.00     0.102 C 
BRANCH  15  16
ATOM     16  N   UNL d   1      33.133  20.849 -22.133  0.00  0.00    -0.206 NA
ATOM     17  C   UNL d   1      33.090  20.027 -22.203  0.00  0.00     0.279 C 
ATOM     18  O   UNL d   1      33.086  19.554 -21.533  0.00  0.00    -0.265 OA
BRANCH  17  19
ATOM     19  C   UNL d   1      33.051  19.681 -22.954  0.00  0.00     0.062 C 
BRANCH  19  20
ATOM     20  C   UNL d   1      33.094  18.857 -23.032  0.00  0.00     0.005 C 
ATOM     21  C   UNL d   1      33.150  18.510 -23.767  0.00  0.00     0.000 C 
ENDBRANCH  19  20
ENDBRANCH  17  19
ENDBRANCH  15  16
ENDBRANCH  14  15
ENDBRANCH   4  14
TORSDOF 5
ENDMDL
MODEL 4
REMARK VINA RESULT:      -0.3      1.523      2.227
REMARK  5 active torsions:
REMARK  status: ('A' for Active; 'I' for Inactive)
REMARK    1  A    between atoms: C_15  and  C_4 
REMARK       I    between atoms: C_11  and  N_14 
REMARK    2  A    between atoms: C_19  and  C_11 
REMARK    3  A    between atoms: N_14  and  C_16 
REMARK    4  A    between atoms: C_16  and  C_15 
REMARK    5  A    between atoms: C_20  and  C_19 
ROOT
ATOM      1  N   UNL d   1      32.367  17.557 -22.404  0.00  0.00    -0.208 NA
ATOM      2  C   UNL d   1      32.800  18.261 -22.415  0.00  0.00     0.279 A 
ATOM      3  C   UNL d   1      31.940  17.320 -23.081  0.00  0.00     0.085 A 
ATOM      4  C   UNL d   1      32.809  18.732 -23.104  0.00  0.00     0.059 A 
ATOM      5  C   UNL d   1      32.385  18.493 -23.772  0.00  0.00     0.006 A 
ATOM      6  C   UNL d   1      31.954  17.791 -23.759  0.00  0.00     0.018 A 
ATOM      7  C   UNL d   1      31.510  16.614 -23.060  0.00  0.00     0.019 A 
ATOM      8  C   UNL d   1      31.528  17.550 -24.428  0.00  0.00     0.002 A 
ATOM      9  C   UNL d   1      31.098  16.849 -24.415  0.00  0.00     0.000 A 
ATOM     10  C   UNL d   1      31.088  16.378 -23.727  0.00  0.00     0.002 A 
ATOM     11  O   UNL d   1      33.221  18.497 -21.749  0.00  0.00    -0.265 OA
ATOM     12  C   UNL d   1      30.676  16.608 -25.075  0.00  0.00     0.000 C 
ATOM     13  C   UNL d   1      30.658  15.677 -23.713  0.00  0.00     0.000 C 
ENDROOT
BRANCH   4  14
ATOM     14  C   UNL d   1      33.239  19.429 -23.111  0.00  0.00     0.026 C 
BRANCH  14  15
ATOM     15  C   UNL d   1      32.910  20.129 -22.842  0.00  0.00     0.102 C 
BRANCH  15  16
ATOM     16  N   UNL d   1      33.010  20.835 -23.257  0.00  0.00    -0.206 NA
ATOM     17  C   UNL d   1      33.044  21.556 -22.855  0.00  0.00     0.279 C 
ATOM     18  O   UNL d   1      32.980  21.577 -22.037  0.00  0.00    -0.265 OA
BRANCH  17  19
ATOM     19  C   UNL d   1      33.145  22.259 -23.280  0.00  0.00     0.062 C 
BRANCH  19  20
ATOM     20  C   UNL d   1      33.105  22.988 -22.888  0.00  0.00     0.005 C 
ATOM     21  C   UNL d   1      33.030  23.683 -23.306  0.00  0.00     0.000 C 
ENDBRANCH  19  20
ENDBRANCH  17  19
ENDBRANCH  15  16
ENDBRANCH  14  15
ENDBRANCH   4  14
TORSDOF 5
ENDMDL
