MODEL 1
REMARK VINA RESULT:      -4.5      0.000      0.000
REMARK  3 active torsions:
REMARK  status: ('A' for Active; 'I' for Inactive)
REMARK    1  A    between atoms: C_6  and  N_1 
REMARK    2  A    between atoms: C_2  and  C_8 
REMARK    3  A    between atoms: N_3  and  C_2 
REMARK       I    between atoms: C_5  and  N_4 
ROOT
ATOM      1  C   UNL d   1     -41.442-121.805 -51.439  0.00  0.00     0.120 C 
ATOM      2  S   UNL d   1     -41.123-121.056 -51.301  0.00  0.00    -0.059 SA
ENDROOT
BRANCH   1   3
ATOM      3  C   UNL d   1     -41.746-122.245 -50.815  0.00  0.00     0.027 A 
ATOM      4  C   UNL d   1     -41.238-122.671 -50.323  0.00  0.00     0.004 A 
ATOM      5  C   UNL d   1     -41.546-123.113 -49.695  0.00  0.00     0.024 A 
ATOM      6  C   UNL d   1     -42.359-123.129 -49.562  0.00  0.00     0.127 A 
ATOM      7  C   UNL d   1     -42.867-122.704 -50.054  0.00  0.00     0.024 A 
ATOM      8  C   UNL d   1     -42.562-122.263 -50.679  0.00  0.00     0.004 A 
BRANCH   6   9
ATOM      9  N   UNL d   1     -42.663-123.570 -48.936  0.00  0.00    -0.114 N 
ATOM     10  O   UNL d   1     -43.450-123.815 -49.009  0.00  0.00    -0.532 OA
ATOM     11  O   UNL d   1     -42.230-123.773 -48.259  0.00  0.00    -0.532 OA
ENDBRANCH   6   9
ENDBRANCH   1   3
BRANCH   1  12
ATOM     12  N   UNL d   1     -41.456-122.112 -52.203  0.00  0.00    -0.293 N 
ATOM     13  C   UNL d   1     -41.123-122.856 -52.361  0.00  0.00     0.100 A 
ATOM     14  C   UNL d   1     -41.137-123.163 -53.124  0.00  0.00     0.102 A 
ATOM     15  N   UNL d   1     -41.482-122.730 -53.737  0.00  0.00    -0.269 N 
ATOM     16  C   UNL d   1     -41.814-121.986 -53.581  0.00  0.00     0.102 A 
ATOM     17  C   UNL d   1     -41.495-123.037 -54.501  0.00  0.00     0.265 C 
ATOM     18  C   UNL d   1     -41.800-121.680 -52.816  0.00  0.00     0.100 A 
ATOM     19  O   UNL d   1     -41.840-122.605 -55.114  0.00  0.00    -0.267 OA
ATOM     20  C   UNL d   1     -41.165-123.777 -54.659  0.00  0.00     0.066 C 
ENDBRANCH   1  12
TORSDOF 3
ENDMDL
