MODEL 1
REMARK VINA RESULT:      80.3      0.000      0.000
REMARK  4 active torsions:
REMARK  status: ('A' for Active; 'I' for Inactive)
REMARK    1  A    between atoms: C_10  and  C_4 
REMARK       I    between atoms: N_11  and  C_10 
REMARK    2  A    between atoms: C_12  and  C_19 
REMARK    3  A    between atoms: O_26  and  C_12 
REMARK    4  A    between atoms: C_27  and  O_26 
ROOT
ATOM      1  C   UNL d   1     -54.787-101.362 -40.222  0.00  0.00     0.154 A 
ATOM      2  C   UNL d   1     -54.776-100.567 -40.437  0.00  0.00     0.093 A 
ATOM      3  N   UNL d   1     -54.776-101.572 -39.416  0.00  0.00    -0.211 NA
ATOM      4  C   UNL d   1     -54.809-101.299 -41.554  0.00  0.00     0.122 A 
ATOM      5  N   UNL d   1     -54.807-101.812 -40.908  0.00  0.00    -0.285 N 
ATOM      6  C   UNL d   1     -54.755 -99.977 -39.857  0.00  0.00     0.269 A 
ATOM      7  N   UNL d   1     -54.744-100.181 -39.061  0.00  0.00    -0.259 N 
ATOM      8  C   UNL d   1     -54.755-100.985 -38.834  0.00  0.00     0.140 A 
ATOM      9  C   UNL d   1     -54.790-100.530 -41.257  0.00  0.00     0.030 A 
ATOM     10  C   UNL d   1     -54.723 -99.595 -38.480  0.00  0.00     0.084 A 
ATOM     11  O   UNL d   1     -54.744 -99.179 -40.078  0.00  0.00    -0.266 OA
ATOM     12  C   UNL d   1     -54.745-101.193 -38.047  0.00  0.00     0.064 A 
ATOM     13  C   UNL d   1     -54.713 -99.808 -37.686  0.00  0.00     0.018 A 
ATOM     14  C   UNL d   1     -54.724-100.615 -37.467  0.00  0.00    -0.008 A 
ATOM     15  C   UNL d   1     -54.823-102.640 -40.944  0.00  0.00     0.101 C 
ENDROOT
BRANCH   4  16
ATOM     16  C   UNL d   1     -54.827-101.516 -42.353  0.00  0.00     0.281 C 
ATOM     17  N   UNL d   1     -54.943-100.940 -42.931  0.00  0.00    -0.271 N 
ATOM     18  C   UNL d   1     -55.042-100.150 -42.719  0.00  0.00     0.083 A 
ATOM     19  C   UNL d   1     -54.962-101.156 -43.730  0.00  0.00     0.083 A 
ATOM     20  C   UNL d   1     -55.157 -99.580 -43.299  0.00  0.00     0.025 A 
ATOM     21  C   UNL d   1     -55.175 -99.796 -44.098  0.00  0.00     0.067 A 
ATOM     22  C   UNL d   1     -55.078-100.582 -44.311  0.00  0.00     0.025 A 
ATOM     23  O   UNL d   1     -54.729-102.305 -42.565  0.00  0.00    -0.265 OA
BRANCH  21  24
ATOM     24  C   UNL d   1     -55.291 -99.222 -44.680  0.00  0.00     0.300 C 
ATOM     25  O   UNL d   1     -54.714 -99.107 -45.263  0.00  0.00    -0.259 OA
BRANCH  24  26
ATOM     26  O   UNL d   1     -55.977 -98.767 -44.679  0.00  0.00    -0.271 OA
BRANCH  26  27
ATOM     27  C   UNL d   1     -56.710 -99.139 -44.692  0.00  0.00     0.126 C 
ATOM     28  C   UNL d   1     -57.318 -98.860 -44.204  0.00  0.00     0.029 C 
ENDBRANCH  26  27
ENDBRANCH  24  26
ENDBRANCH  21  24
ENDBRANCH   4  16
TORSDOF 4
ENDMDL
