MODEL 1
REMARK VINA RESULT:      16.3      0.000      0.000
REMARK  2 active torsions:
REMARK  status: ('A' for Active; 'I' for Inactive)
REMARK    1  A    between atoms: C_5  and  N_1 
REMARK    2  A    between atoms: O_14  and  C_11 
ROOT
ATOM      1  C   UNL d   1     -57.854 -98.773 -44.249  0.00  0.00     0.069 A 
ATOM      2  C   UNL d   1     -57.508 -98.795 -44.999  0.00  0.00     0.020 A 
ATOM      3  C   UNL d   1     -57.349 -98.755 -43.577  0.00  0.00     0.020 A 
ATOM      4  C   UNL d   1     -56.205 -98.783 -44.447  0.00  0.00     0.094 A 
ATOM      5  C   UNL d   1     -56.688 -98.800 -45.090  0.00  0.00     0.026 A 
ATOM      6  C   UNL d   1     -56.527 -98.760 -43.673  0.00  0.00     0.026 A 
ENDROOT
BRANCH   1   7
ATOM      7  N   UNL d   1     -58.680 -98.769 -44.183  0.00  0.00    -0.249 N 
ATOM      8  C   UNL d   1     -59.103 -98.772 -43.475  0.00  0.00     0.208 A 
ATOM      9  N   UNL d   1     -59.923 -98.766 -43.695  0.00  0.00    -0.212 NA
ATOM     10  S   UNL d   1     -58.780 -98.779 -42.701  0.00  0.00    -0.038 SA
ATOM     11  C   UNL d   1     -59.948 -98.760 -44.519  0.00  0.00     0.162 A 
ATOM     12  C   UNL d   1     -59.178 -98.762 -44.811  0.00  0.00     0.286 A 
ATOM     13  O   UNL d   1     -58.944 -98.758 -45.625  0.00  0.00    -0.265 OA
ENDBRANCH   1   7
BRANCH   4  14
ATOM     14  O   UNL d   1     -55.390 -98.788 -44.567  0.00  0.00    -0.328 OA
ATOM     15  C   UNL d   1     -54.945 -99.444 -44.342  0.00  0.00     0.181 C 
ENDBRANCH   4  14
TORSDOF 2
ENDMDL
