MODEL 1
REMARK VINA RESULT:      -7.6      0.000      0.000
REMARK  4 active torsions:
REMARK  status: ('A' for Active; 'I' for Inactive)
REMARK    1  A    between atoms: C_10  and  N_3 
REMARK    2  A    between atoms: C_11  and  C_6 
REMARK    3  A    between atoms: C_16  and  C_10 
REMARK    4  A    between atoms: N_17  and  C_16 
ROOT
ATOM      1  C   UNL d   1     -47.302  12.316  23.044  0.00  0.00     0.083 A 
ATOM      2  C   UNL d   1     -46.680  12.830  22.944  0.00  0.00     0.161 A 
ATOM      3  N   UNL d   1     -47.790  13.486  22.706  0.00  0.00    -0.270 N 
ATOM      4  C   UNL d   1     -46.982  13.555  22.734  0.00  0.00     0.288 A 
ATOM      5  C   UNL d   1     -47.171  11.535  23.259  0.00  0.00     0.201 A 
ATOM      6  C   UNL d   1     -47.988  12.725  22.896  0.00  0.00     0.072 A 
ATOM      7  O   UNL d   1     -45.908  12.561  23.059  0.00  0.00    -0.302 OA
ATOM      8  C   UNL d   1     -46.399  11.278  23.372  0.00  0.00     0.062 A 
ATOM      9  C   UNL d   1     -45.773  11.795  23.271  0.00  0.00     0.103 A 
ATOM     10  O   UNL d   1     -46.538  14.239  22.577  0.00  0.00    -0.264 OA
ATOM     11  O   UNL d   1     -47.805  11.013  23.362  0.00  0.00    -0.286 OA
ATOM     12  C   UNL d   1     -46.259  10.494  23.588  0.00  0.00     0.005 A 
ATOM     13  C   UNL d   1     -45.004  11.529  23.385  0.00  0.00     0.025 A 
ATOM     14  C   UNL d   1     -45.496  10.247  23.698  0.00  0.00     0.000 A 
ATOM     15  C   UNL d   1     -44.870  10.764  23.596  0.00  0.00     0.002 A 
ENDROOT
BRANCH   6  16
ATOM     16  C   UNL d   1     -48.761  12.411  22.935  0.00  0.00     0.017 A 
ATOM     17  C   UNL d   1     -49.155  12.382  23.659  0.00  0.00     0.004 A 
ATOM     18  C   UNL d   1     -49.920  12.071  23.695  0.00  0.00     0.030 A 
ATOM     19  C   UNL d   1     -50.295  11.786  22.998  0.00  0.00     0.140 A 
ATOM     20  C   UNL d   1     -49.891  11.821  22.279  0.00  0.00     0.030 A 
ATOM     21  F   UNL d   1     -51.064  11.474  23.035  0.00  0.00    -0.204 F 
ATOM     22  C   UNL d   1     -49.121  12.134  22.242  0.00  0.00     0.004 A 
ENDBRANCH   6  16
BRANCH   3  23
ATOM     23  C   UNL d   1     -48.326  14.098  22.512  0.00  0.00     0.102 C 
BRANCH  23  24
ATOM     24  C   UNL d   1     -48.213  14.860  22.835  0.00  0.00     0.100 C 
BRANCH  24  25
ATOM     25  N   UNL d   1     -48.785  15.453  22.697  0.00  0.00    -0.299 N 
ATOM     26  C   UNL d   1     -48.833  15.813  21.948  0.00  0.00     0.100 C 
ATOM     27  C   UNL d   1     -49.299  15.678  23.306  0.00  0.00     0.100 C 
ENDBRANCH  24  25
ENDBRANCH  23  24
ENDBRANCH   3  23
TORSDOF 4
ENDMDL
MODEL 2
REMARK VINA RESULT:      -7.2      1.173      1.706
REMARK  4 active torsions:
REMARK  status: ('A' for Active; 'I' for Inactive)
REMARK    1  A    between atoms: C_10  and  N_3 
REMARK    2  A    between atoms: C_11  and  C_6 
REMARK    3  A    between atoms: C_16  and  C_10 
REMARK    4  A    between atoms: N_17  and  C_16 
ROOT
ATOM      1  C   UNL d   1     -47.577  13.411  22.683  0.00  0.00     0.083 A 
ATOM      2  C   UNL d   1     -47.298  14.175  22.663  0.00  0.00     0.161 A 
ATOM      3  N   UNL d   1     -48.590  14.220  22.886  0.00  0.00    -0.270 N 
ATOM      4  C   UNL d   1     -47.926  14.676  22.789  0.00  0.00     0.288 A 
ATOM      5  C   UNL d   1     -47.070  12.776  22.573  0.00  0.00     0.201 A 
ATOM      6  C   UNL d   1     -48.377  13.442  22.821  0.00  0.00     0.072 A 
ATOM      7  O   UNL d   1     -46.495  14.311  22.530  0.00  0.00    -0.302 OA
ATOM      8  C   UNL d   1     -46.272  12.923  22.441  0.00  0.00     0.062 A 
ATOM      9  C   UNL d   1     -45.992  13.691  22.421  0.00  0.00     0.103 A 
ATOM     10  O   UNL d   1     -47.887  15.505  22.812  0.00  0.00    -0.264 OA
ATOM     11  O   UNL d   1     -47.353  11.999  22.593  0.00  0.00    -0.286 OA
ATOM     12  C   UNL d   1     -45.755  12.289  22.329  0.00  0.00     0.005 A 
ATOM     13  C   UNL d   1     -45.192  13.829  22.288  0.00  0.00     0.025 A 
ATOM     14  C   UNL d   1     -44.970  12.441  22.200  0.00  0.00     0.000 A 
ATOM     15  C   UNL d   1     -44.690  13.209  22.179  0.00  0.00     0.002 A 
ENDROOT
BRANCH   6  16
ATOM     16  C   UNL d   1     -48.886  12.784  22.885  0.00  0.00     0.017 A 
ATOM     17  C   UNL d   1     -49.238  12.471  22.208  0.00  0.00     0.004 A 
ATOM     18  C   UNL d   1     -49.743  11.820  22.274  0.00  0.00     0.030 A 
ATOM     19  C   UNL d   1     -49.897  11.477  23.026  0.00  0.00     0.140 A 
ATOM     20  C   UNL d   1     -49.539  11.798  23.698  0.00  0.00     0.030 A 
ATOM     21  F   UNL d   1     -50.404  10.822  23.092  0.00  0.00    -0.204 F 
ATOM     22  C   UNL d   1     -49.031  12.454  23.632  0.00  0.00     0.004 A 
ENDBRANCH   6  16
BRANCH   3  23
ATOM     23  C   UNL d   1     -49.362  14.506  23.029  0.00  0.00     0.102 C 
BRANCH  23  24
ATOM     24  C   UNL d   1     -49.558  15.287  22.810  0.00  0.00     0.100 C 
BRANCH  24  25
ATOM     25  N   UNL d   1     -50.328  15.575  22.958  0.00  0.00    -0.299 N 
ATOM     26  C   UNL d   1     -50.505  15.917  23.696  0.00  0.00     0.100 C 
ATOM     27  C   UNL d   1     -50.910  15.517  22.371  0.00  0.00     0.100 C 
ENDBRANCH  24  25
ENDBRANCH  23  24
ENDBRANCH   3  23
TORSDOF 4
ENDMDL
MODEL 3
REMARK VINA RESULT:      -6.8      1.690      2.882
REMARK  4 active torsions:
REMARK  status: ('A' for Active; 'I' for Inactive)
REMARK    1  A    between atoms: C_10  and  N_3 
REMARK    2  A    between atoms: C_11  and  C_6 
REMARK    3  A    between atoms: C_16  and  C_10 
REMARK    4  A    between atoms: N_17  and  C_16 
ROOT
ATOM      1  C   UNL d   1     -46.610  11.845  23.270  0.00  0.00     0.083 A 
ATOM      2  C   UNL d   1     -46.954  11.139  23.480  0.00  0.00     0.161 A 
ATOM      3  N   UNL d   1     -47.909  12.022  23.309  0.00  0.00    -0.270 N 
ATOM      4  C   UNL d   1     -47.760  11.248  23.505  0.00  0.00     0.288 A 
ATOM      5  C   UNL d   1     -45.795  11.910  23.198  0.00  0.00     0.201 A 
ATOM      6  C   UNL d   1     -47.203  12.390  23.164  0.00  0.00     0.072 A 
ATOM      7  O   UNL d   1     -46.478  10.481  23.623  0.00  0.00    -0.302 OA
ATOM      8  C   UNL d   1     -45.330  11.248  23.343  0.00  0.00     0.062 A 
ATOM      9  C   UNL d   1     -45.677  10.538  23.555  0.00  0.00     0.103 A 
ATOM     10  O   UNL d   1     -48.323  10.668  23.696  0.00  0.00    -0.264 OA
ATOM     11  O   UNL d   1     -45.445  12.628  22.984  0.00  0.00    -0.286 OA
ATOM     12  C   UNL d   1     -44.509  11.305  23.273  0.00  0.00     0.005 A 
ATOM     13  C   UNL d   1     -45.204   9.882  23.698  0.00  0.00     0.025 A 
ATOM     14  C   UNL d   1     -44.057  10.650  23.418  0.00  0.00     0.000 A 
ATOM     15  C   UNL d   1     -44.403   9.940  23.629  0.00  0.00     0.002 A 
ENDROOT
BRANCH   6  16
ATOM     16  C   UNL d   1     -47.099  13.188  22.945  0.00  0.00     0.017 A 
ATOM     17  C   UNL d   1     -47.052  13.391  22.147  0.00  0.00     0.004 A 
ATOM     18  C   UNL d   1     -46.949  14.183  21.932  0.00  0.00     0.030 A 
ATOM     19  C   UNL d   1     -46.893  14.778  22.524  0.00  0.00     0.140 A 
ATOM     20  C   UNL d   1     -46.942  14.564  23.320  0.00  0.00     0.030 A 
ATOM     21  F   UNL d   1     -46.789  15.574  22.307  0.00  0.00    -0.204 F 
ATOM     22  C   UNL d   1     -47.045  13.767  23.536  0.00  0.00     0.004 A 
ENDBRANCH   6  16
BRANCH   3  23
ATOM     23  C   UNL d   1     -48.665  12.377  23.265  0.00  0.00     0.102 C 
BRANCH  23  24
ATOM     24  C   UNL d   1     -49.333  11.903  23.101  0.00  0.00     0.100 C 
BRANCH  24  25
ATOM     25  N   UNL d   1     -50.076  12.266  22.987  0.00  0.00    -0.299 N 
ATOM     26  C   UNL d   1     -50.493  12.565  23.642  0.00  0.00     0.100 C 
ATOM     27  C   UNL d   1     -50.393  12.327  22.224  0.00  0.00     0.100 C 
ENDBRANCH  24  25
ENDBRANCH  23  24
ENDBRANCH   3  23
TORSDOF 4
ENDMDL
MODEL 4
REMARK VINA RESULT:      -6.7      2.036      4.339
REMARK  4 active torsions:
REMARK  status: ('A' for Active; 'I' for Inactive)
REMARK    1  A    between atoms: C_10  and  N_3 
REMARK    2  A    between atoms: C_11  and  C_6 
REMARK    3  A    between atoms: C_16  and  C_10 
REMARK    4  A    between atoms: N_17  and  C_16 
ROOT
ATOM      1  C   UNL d   1     -48.008  12.216  23.283  0.00  0.00     0.083 A 
ATOM      2  C   UNL d   1     -48.136  11.439  23.487  0.00  0.00     0.161 A 
ATOM      3  N   UNL d   1     -46.846  11.609  23.323  0.00  0.00    -0.270 N 
ATOM      4  C   UNL d   1     -47.416  11.062  23.512  0.00  0.00     0.288 A 
ATOM      5  C   UNL d   1     -48.636  12.740  23.213  0.00  0.00     0.201 A 
ATOM      6  C   UNL d   1     -47.209  12.318  23.182  0.00  0.00     0.072 A 
ATOM      7  O   UNL d   1     -48.906  11.176  23.625  0.00  0.00    -0.302 OA
ATOM      8  C   UNL d   1     -49.398  12.468  23.353  0.00  0.00     0.062 A 
ATOM      9  C   UNL d   1     -49.527  11.687  23.558  0.00  0.00     0.103 A 
ATOM     10  O   UNL d   1     -47.292  10.263  23.698  0.00  0.00    -0.264 OA
ATOM     11  O   UNL d   1     -48.506  13.530  23.005  0.00  0.00    -0.286 OA
ATOM     12  C   UNL d   1     -50.035  12.989  23.284  0.00  0.00     0.005 A 
ATOM     13  C   UNL d   1     -50.293  11.423  23.696  0.00  0.00     0.025 A 
ATOM     14  C   UNL d   1     -50.784  12.714  23.423  0.00  0.00     0.000 A 
ATOM     15  C   UNL d   1     -50.912  11.933  23.629  0.00  0.00     0.002 A 
ENDROOT
BRANCH   6  16
ATOM     16  C   UNL d   1     -46.832  13.032  22.969  0.00  0.00     0.017 A 
ATOM     17  C   UNL d   1     -46.687  13.198  22.175  0.00  0.00     0.004 A 
ATOM     18  C   UNL d   1     -46.313  13.905  21.967  0.00  0.00     0.030 A 
ATOM     19  C   UNL d   1     -46.081  14.453  22.561  0.00  0.00     0.140 A 
ATOM     20  C   UNL d   1     -46.231  14.276  23.354  0.00  0.00     0.030 A 
ATOM     21  F   UNL d   1     -45.705  15.164  22.352  0.00  0.00    -0.204 F 
ATOM     22  C   UNL d   1     -46.607  13.564  23.564  0.00  0.00     0.004 A 
ENDBRANCH   6  16
BRANCH   3  23
ATOM     23  C   UNL d   1     -46.024  11.463  23.281  0.00  0.00     0.102 C 
BRANCH  23  24
ATOM     24  C   UNL d   1     -45.722  10.734  23.555  0.00  0.00     0.100 C 
BRANCH  24  25
ATOM     25  N   UNL d   1     -44.902  10.583  23.501  0.00  0.00    -0.299 N 
ATOM     26  C   UNL d   1     -44.388  11.187  23.251  0.00  0.00     0.100 C 
ATOM     27  C   UNL d   1     -44.608   9.833  23.698  0.00  0.00     0.100 C 
ENDBRANCH  24  25
ENDBRANCH  23  24
ENDBRANCH   3  23
TORSDOF 4
ENDMDL
MODEL 5
REMARK VINA RESULT:      -4.6      1.940      4.484
REMARK  4 active torsions:
REMARK  status: ('A' for Active; 'I' for Inactive)
REMARK    1  A    between atoms: C_10  and  N_3 
REMARK    2  A    between atoms: C_11  and  C_6 
REMARK    3  A    between atoms: C_16  and  C_10 
REMARK    4  A    between atoms: N_17  and  C_16 
ROOT
ATOM      1  C   UNL d   1     -48.275  12.936  22.581  0.00  0.00     0.083 A 
ATOM      2  C   UNL d   1     -48.693  12.279  22.816  0.00  0.00     0.161 A 
ATOM      3  N   UNL d   1     -47.439  12.107  23.160  0.00  0.00    -0.270 N 
ATOM      4  C   UNL d   1     -48.175  11.765  23.175  0.00  0.00     0.288 A 
ATOM      5  C   UNL d   1     -48.650  13.558  22.200  0.00  0.00     0.201 A 
ATOM      6  C   UNL d   1     -47.499  12.827  22.795  0.00  0.00     0.072 A 
ATOM      7  O   UNL d   1     -49.504  12.238  22.669  0.00  0.00    -0.302 OA
ATOM      8  C   UNL d   1     -49.458  13.507  22.058  0.00  0.00     0.062 A 
ATOM      9  C   UNL d   1     -49.878  12.846  22.294  0.00  0.00     0.103 A 
ATOM     10  O   UNL d   1     -48.370  11.025  23.496  0.00  0.00    -0.264 OA
ATOM     11  O   UNL d   1     -48.225  14.226  21.961  0.00  0.00    -0.286 OA
ATOM     12  C   UNL d   1     -49.843  14.129  21.674  0.00  0.00     0.005 A 
ATOM     13  C   UNL d   1     -50.686  12.804  22.148  0.00  0.00     0.025 A 
ATOM     14  C   UNL d   1     -50.639  14.072  21.537  0.00  0.00     0.000 A 
ATOM     15  C   UNL d   1     -51.059  13.411  21.774  0.00  0.00     0.002 A 
ENDROOT
BRANCH   6  16
ATOM     16  C   UNL d   1     -46.876  13.365  22.661  0.00  0.00     0.017 A 
ATOM     17  C   UNL d   1     -46.737  13.974  23.199  0.00  0.00     0.004 A 
ATOM     18  C   UNL d   1     -46.119  14.507  23.064  0.00  0.00     0.030 A 
ATOM     19  C   UNL d   1     -45.634  14.428  22.382  0.00  0.00     0.140 A 
ATOM     20  C   UNL d   1     -45.782  13.815  21.849  0.00  0.00     0.030 A 
ATOM     21  F   UNL d   1     -45.013  14.963  22.246  0.00  0.00    -0.204 F 
ATOM     22  C   UNL d   1     -46.404  13.279  21.984  0.00  0.00     0.004 A 
ENDBRANCH   6  16
BRANCH   3  23
ATOM     23  C   UNL d   1     -46.738  11.772  23.468  0.00  0.00     0.102 C 
BRANCH  23  24
ATOM     24  C   UNL d   1     -46.612  10.949  23.402  0.00  0.00     0.100 C 
BRANCH  24  25
ATOM     25  N   UNL d   1     -45.861  10.632  23.582  0.00  0.00    -0.299 N 
ATOM     26  C   UNL d   1     -45.765   9.808  23.645  0.00  0.00     0.100 C 
ATOM     27  C   UNL d   1     -45.216  11.140  23.698  0.00  0.00     0.100 C 
ENDBRANCH  24  25
ENDBRANCH  23  24
ENDBRANCH   3  23
TORSDOF 4
ENDMDL
