MODEL 1
REMARK VINA RESULT:      -4.2      0.000      0.000
REMARK  2 active torsions:
REMARK  status: ('A' for Active; 'I' for Inactive)
REMARK    1  A    between atoms: C_4  and  N_1 
REMARK    2  A    between atoms: C_3  and  C_4 
ROOT
ATOM      1  N   UNL d   1     -41.145-122.800 -53.324  0.00  0.00    -0.295 N 
ATOM      2  N   UNL d   1     -41.130-123.238 -51.721  0.00  0.00    -0.299 N 
ATOM      3  C   UNL d   1     -41.137-123.602 -53.103  0.00  0.00     0.100 A 
ATOM      4  C   UNL d   1     -41.145-122.216 -52.720  0.00  0.00     0.100 A 
ATOM      5  C   UNL d   1     -41.130-123.817 -52.294  0.00  0.00     0.100 A 
ATOM      6  C   UNL d   1     -41.138-122.432 -51.924  0.00  0.00     0.100 A 
ATOM      7  C   UNL d   1     -41.123-123.448 -50.928  0.00  0.00     0.100 C 
ENDROOT
BRANCH   1   8
ATOM      8  C   UNL d   1     -41.153-122.591 -54.114  0.00  0.00     0.152 C 
BRANCH   8   9
ATOM      9  C   UNL d   1     -41.859-122.346 -54.454  0.00  0.00     0.230 C 
ATOM     10  O   UNL d   1     -42.449-122.891 -54.646  0.00  0.00    -0.643 OA
ATOM     11  O   UNL d   1     -41.976-121.530 -54.604  0.00  0.00    -0.643 OA
ENDBRANCH   8   9
ENDBRANCH   1   8
TORSDOF 2
ENDMDL
MODEL 2
REMARK VINA RESULT:      -4.0      1.573      2.907
REMARK  2 active torsions:
REMARK  status: ('A' for Active; 'I' for Inactive)
REMARK    1  A    between atoms: C_4  and  N_1 
REMARK    2  A    between atoms: C_3  and  C_4 
ROOT
ATOM      1  N   UNL d   1     -41.430-122.478 -53.421  0.00  0.00    -0.295 N 
ATOM      2  N   UNL d   1     -42.062-122.177 -54.929  0.00  0.00    -0.299 N 
ATOM      3  C   UNL d   1     -41.970-121.856 -53.539  0.00  0.00     0.100 A 
ATOM      4  C   UNL d   1     -41.210-122.950 -54.080  0.00  0.00     0.100 A 
ATOM      5  C   UNL d   1     -42.285-121.709 -54.300  0.00  0.00     0.100 A 
ATOM      6  C   UNL d   1     -41.523-122.802 -54.829  0.00  0.00     0.100 A 
ATOM      7  C   UNL d   1     -42.370-122.034 -55.675  0.00  0.00     0.100 C 
ENDROOT
BRANCH   1   8
ATOM      8  C   UNL d   1     -41.123-122.621 -52.677  0.00  0.00     0.152 C 
BRANCH   8   9
ATOM      9  C   UNL d   1     -41.627-122.878 -52.082  0.00  0.00     0.230 C 
ATOM     10  O   UNL d   1     -41.998-122.340 -51.577  0.00  0.00    -0.643 OA
ATOM     11  O   UNL d   1     -41.762-123.701 -51.991  0.00  0.00    -0.643 OA
ENDBRANCH   8   9
ENDBRANCH   1   8
TORSDOF 2
ENDMDL
MODEL 3
REMARK VINA RESULT:      -3.8      1.834      2.842
REMARK  2 active torsions:
REMARK  status: ('A' for Active; 'I' for Inactive)
REMARK    1  A    between atoms: C_4  and  N_1 
REMARK    2  A    between atoms: C_3  and  C_4 
ROOT
ATOM      1  N   UNL d   1     -41.195-122.915 -51.984  0.00  0.00    -0.295 N 
ATOM      2  N   UNL d   1     -41.253-123.156 -53.628  0.00  0.00    -0.299 N 
ATOM      3  C   UNL d   1     -41.226-122.269 -52.507  0.00  0.00     0.100 A 
ATOM      4  C   UNL d   1     -41.192-123.691 -52.303  0.00  0.00     0.100 A 
ATOM      5  C   UNL d   1     -41.256-122.396 -53.334  0.00  0.00     0.100 A 
ATOM      6  C   UNL d   1     -41.221-123.813 -53.119  0.00  0.00     0.100 A 
ATOM      7  C   UNL d   1     -41.281-123.282 -54.438  0.00  0.00     0.100 C 
ENDROOT
BRANCH   1   8
ATOM      8  C   UNL d   1     -41.166-122.789 -51.177  0.00  0.00     0.152 C 
BRANCH   8   9
ATOM      9  C   UNL d   1     -41.871-122.705 -50.763  0.00  0.00     0.230 C 
ATOM     10  O   UNL d   1     -42.234-121.967 -50.689  0.00  0.00    -0.643 OA
ATOM     11  O   UNL d   1     -42.220-123.382 -50.413  0.00  0.00    -0.643 OA
ENDBRANCH   8   9
ENDBRANCH   1   8
TORSDOF 2
ENDMDL
MODEL 4
REMARK VINA RESULT:      -3.4      2.371      3.286
REMARK  2 active torsions:
REMARK  status: ('A' for Active; 'I' for Inactive)
REMARK    1  A    between atoms: C_4  and  N_1 
REMARK    2  A    between atoms: C_3  and  C_4 
ROOT
ATOM      1  N   UNL d   1     -41.631-122.954 -50.773  0.00  0.00    -0.295 N 
ATOM      2  N   UNL d   1     -41.318-122.687 -52.383  0.00  0.00    -0.299 N 
ATOM      3  C   UNL d   1     -41.426-123.584 -51.275  0.00  0.00     0.100 A 
ATOM      4  C   UNL d   1     -41.676-122.180 -51.096  0.00  0.00     0.100 A 
ATOM      5  C   UNL d   1     -41.269-123.444 -52.086  0.00  0.00     0.100 A 
ATOM      6  C   UNL d   1     -41.521-122.046 -51.895  0.00  0.00     0.100 A 
ATOM      7  C   UNL d   1     -41.165-122.548 -53.177  0.00  0.00     0.100 C 
ENDROOT
BRANCH   1   8
ATOM      8  C   UNL d   1     -41.783-123.091 -49.982  0.00  0.00     0.152 C 
BRANCH   8   9
ATOM      9  C   UNL d   1     -42.564-123.107 -49.724  0.00  0.00     0.230 C 
ATOM     10  O   UNL d   1     -42.903-122.450 -49.359  0.00  0.00    -0.643 OA
ATOM     11  O   UNL d   1     -43.015-123.804 -49.838  0.00  0.00    -0.643 OA
ENDBRANCH   8   9
ENDBRANCH   1   8
TORSDOF 2
ENDMDL
MODEL 5
REMARK VINA RESULT:      -2.9      2.708      3.655
REMARK  2 active torsions:
REMARK  status: ('A' for Active; 'I' for Inactive)
REMARK    1  A    between atoms: C_4  and  N_1 
REMARK    2  A    between atoms: C_3  and  C_4 
ROOT
ATOM      1  N   UNL d   1     -41.921-123.129 -49.843  0.00  0.00    -0.295 N 
ATOM      2  N   UNL d   1     -42.099-123.271 -48.196  0.00  0.00    -0.299 N 
ATOM      3  C   UNL d   1     -41.255-123.144 -49.344  0.00  0.00     0.100 A 
ATOM      4  C   UNL d   1     -42.684-123.187 -49.498  0.00  0.00     0.100 A 
ATOM      5  C   UNL d   1     -41.351-123.216 -48.515  0.00  0.00     0.100 A 
ATOM      6  C   UNL d   1     -42.774-123.257 -48.681  0.00  0.00     0.100 A 
ATOM      7  C   UNL d   1     -42.193-123.341 -47.385  0.00  0.00     0.100 C 
ENDROOT
BRANCH   1   8
ATOM      8  C   UNL d   1     -41.826-123.059 -50.652  0.00  0.00     0.152 C 
BRANCH   8   9
ATOM      9  C   UNL d   1     -41.846-122.311 -50.991  0.00  0.00     0.230 C 
ATOM     10  O   UNL d   1     -42.565-121.943 -51.165  0.00  0.00    -0.643 OA
ATOM     11  O   UNL d   1     -41.123-121.922 -51.160  0.00  0.00    -0.643 OA
ENDBRANCH   8   9
ENDBRANCH   1   8
TORSDOF 2
ENDMDL
