MODEL 1
REMARK VINA RESULT:      18.3      0.000      0.000
REMARK  2 active torsions:
REMARK  status: ('A' for Active; 'I' for Inactive)
REMARK    1  A    between atoms: C_5  and  C_1 
REMARK    2  A    between atoms: C_7  and  N_2 
ROOT
ATOM      1  C   UNL d   1     -52.042  25.921  33.346  0.00  0.00     0.129 A 
ATOM      2  N   UNL d   1     -51.410  25.379  33.331  0.00  0.00    -0.302 N 
ATOM      3  C   UNL d   1     -52.745  25.484  33.348  0.00  0.00     0.025 A 
ATOM      4  C   UNL d   1     -51.724  24.615  33.324  0.00  0.00     0.064 A 
ATOM      5  C   UNL d   1     -52.553  24.680  33.335  0.00  0.00     0.018 A 
ATOM      6  C   UNL d   1     -51.369  23.865  33.310  0.00  0.00     0.018 A 
ATOM      7  C   UNL d   1     -53.020  23.995  33.331  0.00  0.00     0.002 A 
ATOM      8  C   UNL d   1     -51.836  23.189  33.306  0.00  0.00     0.002 A 
ATOM      9  C   UNL d   1     -52.657  23.253  33.316  0.00  0.00     0.000 A 
ENDROOT
BRANCH   2  10
ATOM     10  C   UNL d   1     -50.605  25.571  33.324  0.00  0.00     0.064 A 
ATOM     11  C   UNL d   1     -50.048  24.965  33.313  0.00  0.00     0.018 A 
ATOM     12  C   UNL d   1     -49.248  25.155  33.306  0.00  0.00     0.002 A 
ATOM     13  C   UNL d   1     -49.007  25.944  33.311  0.00  0.00     0.000 A 
ATOM     14  C   UNL d   1     -49.570  26.550  33.322  0.00  0.00     0.002 A 
ATOM     15  C   UNL d   1     -50.372  26.355  33.329  0.00  0.00     0.018 A 
ENDBRANCH   2  10
BRANCH   1  16
ATOM     16  C   UNL d   1     -51.978  26.742  33.356  0.00  0.00     0.228 C 
ATOM     17  O   UNL d   1     -51.236  27.097  33.392  0.00  0.00    -0.643 OA
ATOM     18  O   UNL d   1     -52.662  27.210  33.332  0.00  0.00    -0.643 OA
ENDBRANCH   1  16
TORSDOF 2
ENDMDL
