MODEL 1
REMARK VINA RESULT:      45.3      0.000      0.000
REMARK  5 active torsions:
REMARK  status: ('A' for Active; 'I' for Inactive)
REMARK    1  A    between atoms: C_10  and  N_1 
REMARK    2  A    between atoms: S_7  and  C_2 
REMARK    3  A    between atoms: C_12  and  S_7 
REMARK    4  A    between atoms: C_9  and  C_12 
REMARK    5  A    between atoms: O_16  and  C_9 
ROOT
ATOM      1  N   UNL d   1      44.421 -15.393  36.962  0.00  0.00    -0.254 N 
ATOM      2  C   UNL d   1      44.318 -16.157  37.267  0.00  0.00     0.182 A 
ATOM      3  C   UNL d   1      43.775 -14.989  36.635  0.00  0.00     0.274 A 
ATOM      4  C   UNL d   1      43.032 -15.346  36.613  0.00  0.00     0.104 A 
ATOM      5  N   UNL d   1      43.570 -16.518  37.246  0.00  0.00    -0.222 NA
ATOM      6  C   UNL d   1      42.929 -16.111  36.919  0.00  0.00     0.095 A 
ATOM      7  S   UNL d   1      42.307 -15.089  36.331  0.00  0.00    -0.080 SA
ATOM      8  O   UNL d   1      43.877 -14.228  36.331  0.00  0.00    -0.266 OA
ATOM      9  C   UNL d   1      42.142 -16.321  36.823  0.00  0.00     0.027 A 
ATOM     10  C   UNL d   1      41.754 -15.701  36.464  0.00  0.00     0.037 A 
ENDROOT
BRANCH   2  11
ATOM     11  S   UNL d   1      44.967 -16.565  37.597  0.00  0.00    -0.044 SA
BRANCH  11  12
ATOM     12  C   UNL d   1      44.815 -17.179  38.134  0.00  0.00     0.095 C 
ATOM     13  C   UNL d   1      44.526 -17.898  37.863  0.00  0.00     0.013 C 
BRANCH  12  14
ATOM     14  C   UNL d   1      44.920 -17.092  38.737  0.00  0.00     0.302 C 
ATOM     15  O   UNL d   1      44.310 -16.848  39.232  0.00  0.00    -0.259 OA
BRANCH  14  16
ATOM     16  O   UNL d   1      45.681 -17.223  39.045  0.00  0.00    -0.295 OA
ATOM     17  C   UNL d   1      45.826 -17.870  39.538  0.00  0.00     0.185 C 
ENDBRANCH  14  16
ENDBRANCH  12  14
ENDBRANCH  11  12
ENDBRANCH   2  11
BRANCH   1  18
ATOM     18  C   UNL d   1      45.160 -15.035  36.982  0.00  0.00     0.069 A 
ATOM     19  C   UNL d   1      45.326 -14.461  37.557  0.00  0.00     0.018 A 
ATOM     20  C   UNL d   1      46.068 -14.101  37.580  0.00  0.00     0.002 A 
ATOM     21  C   UNL d   1      46.646 -14.311  37.030  0.00  0.00     0.000 A 
ATOM     22  C   UNL d   1      46.480 -14.885  36.455  0.00  0.00     0.002 A 
ATOM     23  C   UNL d   1      45.738 -15.246  36.433  0.00  0.00     0.018 A 
ENDBRANCH   1  18
TORSDOF 5
ENDMDL
MODEL 2
REMARK VINA RESULT:      48.3      1.350      3.509
REMARK  5 active torsions:
REMARK  status: ('A' for Active; 'I' for Inactive)
REMARK    1  A    between atoms: C_10  and  N_1 
REMARK    2  A    between atoms: S_7  and  C_2 
REMARK    3  A    between atoms: C_12  and  S_7 
REMARK    4  A    between atoms: C_9  and  C_12 
REMARK    5  A    between atoms: O_16  and  C_9 
ROOT
ATOM      1  N   UNL d   1      44.921 -15.820  36.943  0.00  0.00    -0.254 N 
ATOM      2  C   UNL d   1      44.332 -15.245  36.836  0.00  0.00     0.182 A 
ATOM      3  C   UNL d   1      45.716 -15.592  36.993  0.00  0.00     0.274 A 
ATOM      4  C   UNL d   1      45.922 -14.795  36.936  0.00  0.00     0.104 A 
ATOM      5  N   UNL d   1      44.539 -14.442  36.779  0.00  0.00    -0.222 NA
ATOM      6  C   UNL d   1      45.334 -14.220  36.829  0.00  0.00     0.095 A 
ATOM      7  S   UNL d   1      46.646 -14.411  36.965  0.00  0.00    -0.080 SA
ATOM      8  O   UNL d   1      46.302 -16.163  37.100  0.00  0.00    -0.266 OA
ATOM      9  C   UNL d   1      45.697 -13.485  36.792  0.00  0.00     0.027 A 
ATOM     10  C   UNL d   1      46.500 -13.594  36.875  0.00  0.00     0.037 A 
ENDROOT
BRANCH   2  11
ATOM     11  S   UNL d   1      43.531 -15.472  36.785  0.00  0.00    -0.044 SA
BRANCH  11  12
ATOM     12  C   UNL d   1      42.960 -14.984  37.138  0.00  0.00     0.095 C 
ATOM     13  C   UNL d   1      43.186 -14.279  37.491  0.00  0.00     0.013 C 
BRANCH  12  14
ATOM     14  C   UNL d   1      42.365 -15.155  37.133  0.00  0.00     0.302 C 
ATOM     15  O   UNL d   1      41.880 -14.984  37.775  0.00  0.00    -0.259 OA
BRANCH  14  16
ATOM     16  O   UNL d   1      42.059 -15.557  36.474  0.00  0.00    -0.295 OA
ATOM     17  C   UNL d   1      41.245 -15.565  36.330  0.00  0.00     0.185 C 
ENDBRANCH  14  16
ENDBRANCH  12  14
ENDBRANCH  11  12
ENDBRANCH   2  11
BRANCH   1  18
ATOM     18  C   UNL d   1      44.718 -16.613  37.000  0.00  0.00     0.069 A 
ATOM     19  C   UNL d   1      44.761 -17.000  37.732  0.00  0.00     0.018 A 
ATOM     20  C   UNL d   1      44.558 -17.798  37.791  0.00  0.00     0.002 A 
ATOM     21  C   UNL d   1      44.310 -18.211  37.122  0.00  0.00     0.000 A 
ATOM     22  C   UNL d   1      44.266 -17.824  36.390  0.00  0.00     0.002 A 
ATOM     23  C   UNL d   1      44.470 -17.027  36.331  0.00  0.00     0.018 A 
ENDBRANCH   1  18
TORSDOF 5
ENDMDL
