MODEL 1
REMARK VINA RESULT:      70.5      0.000      0.000
REMARK  5 active torsions:
REMARK  status: ('A' for Active; 'I' for Inactive)
REMARK    1  A    between atoms: N_5  and  S_1 
REMARK    2  A    between atoms: C_9  and  S_1 
REMARK    3  A    between atoms: C_2  and  N_4 
REMARK    4  A    between atoms: C_7  and  C_3 
REMARK       I    between atoms: N_4  and  C_6 
REMARK    5  A    between atoms: C_6  and  C_14 
ROOT
ATOM      1  C   UNL d   1     -49.407  27.851  34.305  0.00  0.00     0.104 A 
ATOM      2  C   UNL d   1     -48.485  29.122  34.814  0.00  0.00     0.058 A 
ATOM      3  C   UNL d   1     -48.885  27.759  34.940  0.00  0.00     0.013 A 
ATOM      4  C   UNL d   1     -49.464  28.578  33.929  0.00  0.00     0.013 A 
ATOM      5  C   UNL d   1     -48.428  28.395  35.190  0.00  0.00     0.005 A 
ATOM      6  C   UNL d   1     -49.008  29.213  34.178  0.00  0.00     0.005 A 
ENDROOT
BRANCH   2   7
ATOM      7  C   UNL d   1     -48.023  29.763  35.067  0.00  0.00     0.280 C 
ATOM      8  N   UNL d   1     -48.069  30.486  34.674  0.00  0.00    -0.201 NA
ATOM      9  O   UNL d   1     -47.529  29.665  35.704  0.00  0.00    -0.265 OA
BRANCH   8  10
ATOM     10  C   UNL d   1     -47.609  31.117  34.930  0.00  0.00     0.119 A 
ATOM     11  C   UNL d   1     -47.628  31.885  34.625  0.00  0.00     0.084 A 
ATOM     12  C   UNL d   1     -47.074  32.341  35.046  0.00  0.00     0.014 A 
ATOM     13  C   UNL d   1     -46.719  31.849  35.606  0.00  0.00     0.037 A 
ATOM     14  S   UNL d   1     -47.051  31.100  35.531  0.00  0.00    -0.067 SA
BRANCH  11  15
ATOM     15  C   UNL d   1     -48.106  32.159  34.013  0.00  0.00     0.299 C 
ATOM     16  O   UNL d   1     -47.756  32.477  33.333  0.00  0.00    -0.264 OA
ATOM     17  N   UNL d   1     -48.928  32.118  34.076  0.00  0.00    -0.102 N 
ENDBRANCH  11  15
ENDBRANCH   8  10
ENDBRANCH   2   7
BRANCH   1  18
ATOM     18  S   UNL d   1     -49.863  27.214  34.055  0.00  0.00     0.271 S 
ATOM     19  O   UNL d   1     -49.181  26.830  33.784  0.00  0.00    -0.200 OA
ATOM     20  O   UNL d   1     -50.540  27.594  34.324  0.00  0.00    -0.200 OA
BRANCH  18  21
ATOM     21  N   UNL d   1     -50.322  26.576  33.806  0.00  0.00    -0.229 N 
ATOM     22  C   UNL d   1     -49.961  25.879  33.557  0.00  0.00     0.092 A 
ATOM     23  C   UNL d   1     -50.424  25.238  33.306  0.00  0.00     0.020 A 
ATOM     24  C   UNL d   1     -51.240  25.301  33.306  0.00  0.00     0.003 A 
ATOM     25  C   UNL d   1     -51.607  25.999  33.555  0.00  0.00     0.020 A 
ATOM     26  C   UNL d   1     -51.151  26.634  33.804  0.00  0.00     0.092 A 
ENDBRANCH  18  21
ENDBRANCH   1  18
TORSDOF 5
ENDMDL
MODEL 2
REMARK VINA RESULT:      71.1      1.958      5.915
REMARK  5 active torsions:
REMARK  status: ('A' for Active; 'I' for Inactive)
REMARK    1  A    between atoms: N_5  and  S_1 
REMARK    2  A    between atoms: C_9  and  S_1 
REMARK    3  A    between atoms: C_2  and  N_4 
REMARK    4  A    between atoms: C_7  and  C_3 
REMARK       I    between atoms: N_4  and  C_6 
REMARK    5  A    between atoms: C_6  and  C_14 
ROOT
ATOM      1  C   UNL d   1     -49.263  27.914  34.939  0.00  0.00     0.104 A 
ATOM      2  C   UNL d   1     -50.376  26.890  34.279  0.00  0.00     0.058 A 
ATOM      3  C   UNL d   1     -49.709  27.415  35.425  0.00  0.00     0.013 A 
ATOM      4  C   UNL d   1     -49.376  27.897  34.127  0.00  0.00     0.013 A 
ATOM      5  C   UNL d   1     -50.262  26.907  35.091  0.00  0.00     0.005 A 
ATOM      6  C   UNL d   1     -49.929  27.390  33.793  0.00  0.00     0.005 A 
ENDROOT
BRANCH   2   7
ATOM      7  C   UNL d   1     -50.934  26.376  33.944  0.00  0.00     0.280 C 
ATOM      8  N   UNL d   1     -51.028  25.615  34.246  0.00  0.00    -0.201 NA
ATOM      9  O   UNL d   1     -51.383  26.634  33.318  0.00  0.00    -0.265 OA
BRANCH   8  10
ATOM     10  C   UNL d   1     -51.584  25.110  33.911  0.00  0.00     0.119 A 
ATOM     11  C   UNL d   1     -51.428  24.366  33.586  0.00  0.00     0.084 A 
ATOM     12  C   UNL d   1     -52.147  24.051  33.311  0.00  0.00     0.014 A 
ATOM     13  C   UNL d   1     -52.739  24.605  33.470  0.00  0.00     0.037 A 
ATOM     14  S   UNL d   1     -52.388  25.252  33.838  0.00  0.00    -0.067 SA
BRANCH  11  15
ATOM     15  C   UNL d   1     -50.695  23.995  33.538  0.00  0.00     0.299 C 
ATOM     16  O   UNL d   1     -50.027  24.438  33.326  0.00  0.00    -0.264 OA
ATOM     17  N   UNL d   1     -50.624  23.189  33.699  0.00  0.00    -0.102 N 
ENDBRANCH  11  15
ENDBRANCH   8  10
ENDBRANCH   2   7
BRANCH   1  18
ATOM     18  S   UNL d   1     -48.710  28.422  35.273  0.00  0.00     0.271 S 
ATOM     19  O   UNL d   1     -48.379  27.789  35.693  0.00  0.00    -0.200 OA
ATOM     20  O   UNL d   1     -49.036  29.051  34.858  0.00  0.00    -0.200 OA
BRANCH  18  21
ATOM     21  N   UNL d   1     -48.155  28.933  35.608  0.00  0.00    -0.229 N 
ATOM     22  C   UNL d   1     -48.282  29.247  36.359  0.00  0.00     0.092 A 
ATOM     23  C   UNL d   1     -47.724  29.761  36.694  0.00  0.00     0.020 A 
ATOM     24  C   UNL d   1     -47.047  29.955  36.277  0.00  0.00     0.003 A 
ATOM     25  C   UNL d   1     -46.915  29.642  35.523  0.00  0.00     0.020 A 
ATOM     26  C   UNL d   1     -47.466  29.133  35.189  0.00  0.00     0.092 A 
ENDBRANCH  18  21
ENDBRANCH   1  18
TORSDOF 5
ENDMDL
