MODEL 1
REMARK VINA RESULT:      92.7      0.000      0.000
REMARK  5 active torsions:
REMARK  status: ('A' for Active; 'I' for Inactive)
REMARK    1  A    between atoms: C_14  and  N_3 
REMARK    2  A    between atoms: C_13  and  N_7 
REMARK    3  A    between atoms: C_10  and  C_13 
REMARK       I    between atoms: N_11  and  C_10 
REMARK    4  A    between atoms: C_21  and  N_12 
REMARK    5  A    between atoms: C_22  and  C_14 
ROOT
ATOM      1  C   UNL d   1     -56.531-100.069 -44.210  0.00  0.00     0.191 A 
ATOM      2  C   UNL d   1     -55.788-100.434 -44.310  0.00  0.00     0.196 A 
ATOM      3  N   UNL d   1     -56.489 -99.321 -44.567  0.00  0.00    -0.191 N 
ATOM      4  N   UNL d   1     -57.125-100.466 -43.816  0.00  0.00    -0.204 NA
ATOM      5  N   UNL d   1     -55.306 -99.902 -44.726  0.00  0.00    -0.122 NA
ATOM      6  N   UNL d   1     -55.738 -99.234 -44.876  0.00  0.00    -0.058 NA
ATOM      7  N   UNL d   1     -56.261-101.587 -43.615  0.00  0.00    -0.249 N 
ATOM      8  C   UNL d   1     -55.663-101.183 -44.013  0.00  0.00     0.289 A 
ATOM      9  C   UNL d   1     -57.003-101.222 -43.515  0.00  0.00     0.187 A 
ATOM     10  O   UNL d   1     -54.921-101.548 -44.113  0.00  0.00    -0.265 OA
ENDROOT
BRANCH   7  11
ATOM     11  C   UNL d   1     -56.141-102.350 -43.310  0.00  0.00     0.146 C 
BRANCH  11  12
ATOM     12  C   UNL d   1     -55.442-102.535 -42.899  0.00  0.00     0.283 C 
ATOM     13  N   UNL d   1     -55.432-102.494 -42.080  0.00  0.00    -0.268 N 
ATOM     14  C   UNL d   1     -56.119-102.269 -41.682  0.00  0.00     0.102 A 
ATOM     15  C   UNL d   1     -54.748-102.676 -41.680  0.00  0.00     0.102 A 
ATOM     16  C   UNL d   1     -56.105-102.229 -40.856  0.00  0.00     0.100 A 
ATOM     17  N   UNL d   1     -55.413-102.413 -40.441  0.00  0.00    -0.301 N 
ATOM     18  C   UNL d   1     -54.734-102.637 -40.853  0.00  0.00     0.100 A 
ATOM     19  O   UNL d   1     -54.767-102.758 -43.318  0.00  0.00    -0.265 OA
BRANCH  17  20
ATOM     20  C   UNL d   1     -55.403-102.372 -39.622  0.00  0.00     0.064 A 
ATOM     21  C   UNL d   1     -54.924-102.878 -39.203  0.00  0.00     0.018 A 
ATOM     22  C   UNL d   1     -54.911-102.840 -38.376  0.00  0.00     0.002 A 
ATOM     23  C   UNL d   1     -55.384-102.290 -37.983  0.00  0.00     0.000 A 
ATOM     24  C   UNL d   1     -55.869-101.778 -38.417  0.00  0.00     0.002 A 
ATOM     25  C   UNL d   1     -55.881-101.817 -39.243  0.00  0.00     0.018 A 
ENDBRANCH  17  20
ENDBRANCH  11  12
ENDBRANCH   7  11
BRANCH   3  26
ATOM     26  C   UNL d   1     -57.104 -98.755 -44.604  0.00  0.00     0.104 C 
BRANCH  26  27
ATOM     27  C   UNL d   1     -57.859 -98.945 -44.310  0.00  0.00     0.019 A 
ATOM     28  C   UNL d   1     -58.440 -99.243 -44.813  0.00  0.00     0.002 A 
ATOM     29  C   UNL d   1     -59.170 -99.422 -44.507  0.00  0.00     0.000 A 
ATOM     30  C   UNL d   1     -59.344 -99.314 -43.720  0.00  0.00     0.000 A 
ATOM     31  C   UNL d   1     -58.745 -99.008 -43.204  0.00  0.00     0.000 A 
ATOM     32  C   UNL d   1     -58.008 -98.827 -43.511  0.00  0.00     0.002 A 
ENDBRANCH  26  27
ENDBRANCH   3  26
TORSDOF 5
ENDMDL
