MODEL 1
REMARK VINA RESULT:      -5.3      0.000      0.000
REMARK  1 active torsions:
REMARK  status: ('A' for Active; 'I' for Inactive)
REMARK    1  A    between atoms: N_3  and  C_1 
ROOT
ATOM      1  C   UNL d   1     -41.816-122.491 -50.485  0.00  0.00     0.110 A 
ATOM      2  C   UNL d   1     -41.846-123.042 -51.112  0.00  0.00     0.212 A 
ATOM      3  C   UNL d   1     -41.616-122.810 -51.869  0.00  0.00     0.046 A 
ATOM      4  C   UNL d   1     -41.556-121.716 -50.628  0.00  0.00     0.056 A 
ATOM      5  S   UNL d   1     -41.325-121.494 -51.399  0.00  0.00    -0.085 SA
ATOM      6  C   UNL d   1     -41.356-122.039 -52.012  0.00  0.00     0.033 A 
ATOM      7  C   UNL d   1     -41.643-123.351 -52.490  0.00  0.00     0.004 A 
ATOM      8  O   UNL d   1     -42.104-123.810 -50.973  0.00  0.00    -0.285 OA
ATOM      9  C   UNL d   1     -41.128-121.814 -52.771  0.00  0.00     0.007 A 
ATOM     10  C   UNL d   1     -41.418-123.131 -53.241  0.00  0.00     0.000 A 
ATOM     11  C   UNL d   1     -41.155-122.350 -53.386  0.00  0.00     0.001 A 
ATOM     12  C   UNL d   1     -41.443-123.665 -53.864  0.00  0.00     0.000 C 
ENDROOT
BRANCH   1  13
ATOM     13  N   UNL d   1     -42.046-122.715 -49.722  0.00  0.00    -0.301 N 
ATOM     14  C   UNL d   1     -41.482-122.894 -49.161  0.00  0.00     0.080 A 
ATOM     15  C   UNL d   1     -41.707-123.118 -48.396  0.00  0.00     0.018 A 
ATOM     16  C   UNL d   1     -41.140-123.298 -47.832  0.00  0.00     0.002 A 
ATOM     17  C   UNL d   1     -42.505-123.160 -48.203  0.00  0.00     0.003 A 
ATOM     18  C   UNL d   1     -41.365-123.522 -47.070  0.00  0.00     0.000 A 
ATOM     19  C   UNL d   1     -42.167-123.564 -46.877  0.00  0.00     0.000 A 
ATOM     20  C   UNL d   1     -42.740-123.383 -47.446  0.00  0.00     0.000 A 
ATOM     21  C   UNL d   1     -43.089-122.978 -48.773  0.00  0.00     0.019 A 
ATOM     22  C   UNL d   1     -42.850-122.757 -49.527  0.00  0.00     0.080 A 
ENDBRANCH   1  13
TORSDOF 1
ENDMDL
MODEL 2
REMARK VINA RESULT:      -5.3      1.257      4.753
REMARK  1 active torsions:
REMARK  status: ('A' for Active; 'I' for Inactive)
REMARK    1  A    between atoms: N_3  and  C_1 
ROOT
ATOM      1  C   UNL d   1     -41.504-122.411 -51.915  0.00  0.00     0.110 A 
ATOM      2  C   UNL d   1     -41.879-122.964 -51.413  0.00  0.00     0.212 A 
ATOM      3  C   UNL d   1     -41.869-122.846 -50.597  0.00  0.00     0.046 A 
ATOM      4  C   UNL d   1     -41.125-121.748 -51.589  0.00  0.00     0.056 A 
ATOM      5  S   UNL d   1     -41.123-121.639 -50.761  0.00  0.00    -0.085 SA
ATOM      6  C   UNL d   1     -41.493-122.186 -50.272  0.00  0.00     0.033 A 
ATOM      7  C   UNL d   1     -42.238-123.389 -50.099  0.00  0.00     0.004 A 
ATOM      8  O   UNL d   1     -42.254-123.622 -51.733  0.00  0.00    -0.285 OA
ATOM      9  C   UNL d   1     -41.487-122.074 -49.456  0.00  0.00     0.007 A 
ATOM     10  C   UNL d   1     -42.234-123.280 -49.292  0.00  0.00     0.000 A 
ATOM     11  C   UNL d   1     -41.852-122.611 -48.963  0.00  0.00     0.001 A 
ATOM     12  C   UNL d   1     -42.599-123.817 -48.791  0.00  0.00     0.000 C 
ENDROOT
BRANCH   1  13
ATOM     13  N   UNL d   1     -41.508-122.522 -52.735  0.00  0.00    -0.301 N 
ATOM     14  C   UNL d   1     -41.889-121.988 -53.218  0.00  0.00     0.080 A 
ATOM     15  C   UNL d   1     -41.897-122.095 -54.040  0.00  0.00     0.018 A 
ATOM     16  C   UNL d   1     -42.280-121.558 -54.525  0.00  0.00     0.002 A 
ATOM     17  C   UNL d   1     -41.516-122.746 -54.368  0.00  0.00     0.003 A 
ATOM     18  C   UNL d   1     -42.286-121.666 -55.343  0.00  0.00     0.000 A 
ATOM     19  C   UNL d   1     -41.904-122.320 -55.673  0.00  0.00     0.000 A 
ATOM     20  C   UNL d   1     -41.517-122.862 -55.183  0.00  0.00     0.000 A 
ATOM     21  C   UNL d   1     -41.123-123.298 -53.878  0.00  0.00     0.019 A 
ATOM     22  C   UNL d   1     -41.124-123.178 -53.065  0.00  0.00     0.080 A 
ENDBRANCH   1  13
TORSDOF 1
ENDMDL
MODEL 3
REMARK VINA RESULT:      -3.9      1.111      4.600
REMARK  1 active torsions:
REMARK  status: ('A' for Active; 'I' for Inactive)
REMARK    1  A    between atoms: N_3  and  C_1 
ROOT
ATOM      1  C   UNL d   1     -41.685-123.000 -51.189  0.00  0.00     0.110 A 
ATOM      2  C   UNL d   1     -42.256-122.709 -50.652  0.00  0.00     0.212 A 
ATOM      3  C   UNL d   1     -42.254-122.977 -49.872  0.00  0.00     0.046 A 
ATOM      4  C   UNL d   1     -41.123-123.554 -50.934  0.00  0.00     0.056 A 
ATOM      5  S   UNL d   1     -41.131-123.817 -50.142  0.00  0.00    -0.085 SA
ATOM      6  C   UNL d   1     -41.694-123.528 -49.618  0.00  0.00     0.033 A 
ATOM      7  C   UNL d   1     -42.814-122.692 -49.339  0.00  0.00     0.004 A 
ATOM      8  O   UNL d   1     -42.814-122.160 -50.902  0.00  0.00    -0.285 OA
ATOM      9  C   UNL d   1     -41.698-123.791 -48.837  0.00  0.00     0.007 A 
ATOM     10  C   UNL d   1     -42.820-122.951 -48.566  0.00  0.00     0.000 A 
ATOM     11  C   UNL d   1     -42.253-123.510 -48.309  0.00  0.00     0.001 A 
ATOM     12  C   UNL d   1     -43.376-122.672 -48.031  0.00  0.00     0.000 C 
ENDROOT
BRANCH   1  13
ATOM     13  N   UNL d   1     -41.680-122.737 -51.974  0.00  0.00    -0.301 N 
ATOM     14  C   UNL d   1     -41.602-123.271 -52.583  0.00  0.00     0.080 A 
ATOM     15  C   UNL d   1     -41.596-123.013 -53.371  0.00  0.00     0.018 A 
ATOM     16  C   UNL d   1     -41.517-123.550 -53.984  0.00  0.00     0.002 A 
ATOM     17  C   UNL d   1     -41.669-122.211 -53.536  0.00  0.00     0.003 A 
ATOM     18  C   UNL d   1     -41.512-123.291 -54.768  0.00  0.00     0.000 A 
ATOM     19  C   UNL d   1     -41.585-122.485 -54.933  0.00  0.00     0.000 A 
ATOM     20  C   UNL d   1     -41.665-121.942 -54.314  0.00  0.00     0.000 A 
ATOM     21  C   UNL d   1     -41.750-121.656 -52.915  0.00  0.00     0.019 A 
ATOM     22  C   UNL d   1     -41.754-121.928 -52.139  0.00  0.00     0.080 A 
ENDBRANCH   1  13
TORSDOF 1
ENDMDL
