MODEL 1
REMARK VINA RESULT:      -6.9      0.000      0.000
REMARK  3 active torsions:
REMARK  status: ('A' for Active; 'I' for Inactive)
REMARK    1  A    between atoms: N_7  and  N_1 
REMARK    2  A    between atoms: N_2  and  N_8 
REMARK       I    between atoms: C_3  and  N_7 
REMARK    3  A    between atoms: C_4  and  C_3 
REMARK       I    between atoms: N_8  and  C_4 
ROOT
ATOM      1  C   UNL d   1      53.413  32.133  53.131  0.00  0.00     0.355 C 
ATOM      2  N   UNL d   1      54.056  32.035  53.611  0.00  0.00    -0.115 NA
ATOM      3  O   UNL d   1      53.252  31.592  52.546  0.00  0.00    -0.258 OA
ENDROOT
BRANCH   1   4
ATOM      4  C   UNL d   1      52.922  32.787  53.237  0.00  0.00     0.355 C 
ATOM      5  N   UNL d   1      52.284  32.881  52.724  0.00  0.00    -0.115 NA
ATOM      6  O   UNL d   1      53.027  33.152  53.649  0.00  0.00    -0.258 OA
BRANCH   5   7
ATOM      7  N   UNL d   1      51.762  33.537  52.803  0.00  0.00    -0.175 N 
ATOM      8  C   UNL d   1      51.043  33.421  53.108  0.00  0.00     0.170 A 
ATOM      9  S   UNL d   1      50.652  34.203  53.111  0.00  0.00    -0.051 SA
ATOM     10  S   UNL d   1      50.747  32.668  53.369  0.00  0.00    -0.050 SA
ATOM     11  C   UNL d   1      51.208  34.735  52.790  0.00  0.00     0.100 A 
ATOM     12  C   UNL d   1      51.891  34.303  52.605  0.00  0.00     0.288 A 
ATOM     13  O   UNL d   1      52.599  34.608  52.267  0.00  0.00    -0.265 OA
ENDBRANCH   5   7
ENDBRANCH   1   4
BRANCH   2  14
ATOM     14  N   UNL d   1      54.279  32.565  54.240  0.00  0.00    -0.175 N 
ATOM     15  C   UNL d   1      54.803  33.188  54.228  0.00  0.00     0.170 A 
ATOM     16  S   UNL d   1      54.794  33.490  54.979  0.00  0.00    -0.051 SA
ATOM     17  S   UNL d   1      55.258  33.457  53.562  0.00  0.00    -0.050 SA
ATOM     18  C   UNL d   1      54.301  33.094  55.450  0.00  0.00     0.100 A 
ATOM     19  C   UNL d   1      53.960  32.508  55.025  0.00  0.00     0.288 A 
ATOM     20  O   UNL d   1      53.640  32.178  55.153  0.00  0.00    -0.265 OA
ENDBRANCH   2  14
TORSDOF 3
ENDMDL
MODEL 2
REMARK VINA RESULT:      -6.5      0.747      3.321
REMARK  3 active torsions:
REMARK  status: ('A' for Active; 'I' for Inactive)
REMARK    1  A    between atoms: N_7  and  N_1 
REMARK    2  A    between atoms: N_2  and  N_8 
REMARK       I    between atoms: C_3  and  N_7 
REMARK    3  A    between atoms: C_4  and  C_3 
REMARK       I    between atoms: N_8  and  C_4 
ROOT
ATOM      1  C   UNL d   1      52.740  32.229  52.796  0.00  0.00     0.355 C 
ATOM      2  N   UNL d   1      52.046  32.501  52.484  0.00  0.00    -0.115 NA
ATOM      3  O   UNL d   1      53.107  31.580  52.473  0.00  0.00    -0.258 OA
ENDROOT
BRANCH   1   4
ATOM      4  C   UNL d   1      53.074  32.613  53.445  0.00  0.00     0.355 C 
ATOM      5  N   UNL d   1      53.846  32.421  53.655  0.00  0.00    -0.115 NA
ATOM      6  O   UNL d   1      52.775  32.994  53.729  0.00  0.00    -0.258 OA
BRANCH   5   7
ATOM      7  N   UNL d   1      54.219  32.794  54.311  0.00  0.00    -0.175 N 
ATOM      8  C   UNL d   1      54.810  33.301  54.181  0.00  0.00     0.170 A 
ATOM      9  S   UNL d   1      55.066  33.582  54.968  0.00  0.00    -0.051 SA
ATOM     10  S   UNL d   1      55.107  33.505  53.412  0.00  0.00    -0.050 SA
ATOM     11  C   UNL d   1      54.575  33.193  55.518  0.00  0.00     0.100 A 
ATOM     12  C   UNL d   1      54.056  32.708  55.092  0.00  0.00     0.288 A 
ATOM     13  O   UNL d   1      53.459  32.210  55.414  0.00  0.00    -0.265 OA
ENDBRANCH   5   7
ENDBRANCH   1   4
BRANCH   2  14
ATOM     14  N   UNL d   1      51.612  33.174  52.776  0.00  0.00    -0.175 N 
ATOM     15  C   UNL d   1      51.658  33.956  52.551  0.00  0.00     0.170 A 
ATOM     16  S   UNL d   1      51.120  34.344  53.013  0.00  0.00    -0.051 SA
ATOM     17  S   UNL d   1      52.167  34.282  51.954  0.00  0.00    -0.050 SA
ATOM     18  C   UNL d   1      50.748  33.855  53.507  0.00  0.00     0.100 A 
ATOM     19  C   UNL d   1      51.027  33.114  53.390  0.00  0.00     0.288 A 
ATOM     20  O   UNL d   1      50.912  32.703  53.601  0.00  0.00    -0.265 OA
ENDBRANCH   2  14
TORSDOF 3
ENDMDL
MODEL 3
REMARK VINA RESULT:      -5.8      1.946      2.553
REMARK  3 active torsions:
REMARK  status: ('A' for Active; 'I' for Inactive)
REMARK    1  A    between atoms: N_7  and  N_1 
REMARK    2  A    between atoms: N_2  and  N_8 
REMARK       I    between atoms: C_3  and  N_7 
REMARK    3  A    between atoms: C_4  and  C_3 
REMARK       I    between atoms: N_8  and  C_4 
ROOT
ATOM      1  C   UNL d   1      54.661  32.799  53.455  0.00  0.00     0.355 C 
ATOM      2  N   UNL d   1      54.722  33.469  53.903  0.00  0.00    -0.115 NA
ATOM      3  O   UNL d   1      55.271  32.576  52.967  0.00  0.00    -0.258 OA
ENDROOT
BRANCH   1   4
ATOM      4  C   UNL d   1      53.975  32.343  53.496  0.00  0.00     0.355 C 
ATOM      5  N   UNL d   1      53.983  31.598  53.147  0.00  0.00    -0.115 NA
ATOM      6  O   UNL d   1      53.521  32.544  53.757  0.00  0.00    -0.258 OA
BRANCH   5   7
ATOM      7  N   UNL d   1      53.301  31.105  53.169  0.00  0.00    -0.175 N 
ATOM      8  C   UNL d   1      53.334  30.420  53.561  0.00  0.00     0.170 A 
ATOM      9  S   UNL d   1      52.545  30.053  53.474  0.00  0.00    -0.051 SA
ATOM     10  S   UNL d   1      54.020  30.134  53.972  0.00  0.00    -0.050 SA
ATOM     11  C   UNL d   1      52.097  30.586  53.015  0.00  0.00     0.100 A 
ATOM     12  C   UNL d   1      52.583  31.232  52.835  0.00  0.00     0.288 A 
ATOM     13  O   UNL d   1      52.368  31.908  52.382  0.00  0.00    -0.265 OA
ENDBRANCH   5   7
ENDBRANCH   1   4
BRANCH   2  14
ATOM     14  N   UNL d   1      54.120  33.757  54.434  0.00  0.00    -0.175 N 
ATOM     15  C   UNL d   1      53.522  34.293  54.294  0.00  0.00     0.170 A 
ATOM     16  S   UNL d   1      53.122  34.354  54.994  0.00  0.00    -0.051 SA
ATOM     17  S   UNL d   1      53.363  34.696  53.563  0.00  0.00    -0.050 SA
ATOM     18  C   UNL d   1      53.433  33.893  55.553  0.00  0.00     0.100 A 
ATOM     19  C   UNL d   1      54.059  33.503  55.242  0.00  0.00     0.288 A 
ATOM     20  O   UNL d   1      54.357  33.188  55.440  0.00  0.00    -0.265 OA
ENDBRANCH   2  14
TORSDOF 3
ENDMDL
MODEL 4
REMARK VINA RESULT:      -5.6      1.607      2.333
REMARK  3 active torsions:
REMARK  status: ('A' for Active; 'I' for Inactive)
REMARK    1  A    between atoms: N_7  and  N_1 
REMARK    2  A    between atoms: N_2  and  N_8 
REMARK       I    between atoms: C_3  and  N_7 
REMARK    3  A    between atoms: C_4  and  C_3 
REMARK       I    between atoms: N_8  and  C_4 
ROOT
ATOM      1  C   UNL d   1      54.196  32.224  53.297  0.00  0.00     0.355 C 
ATOM      2  N   UNL d   1      54.226  31.416  53.303  0.00  0.00    -0.115 NA
ATOM      3  O   UNL d   1      54.879  32.658  53.224  0.00  0.00    -0.258 OA
ENDROOT
BRANCH   1   4
ATOM      4  C   UNL d   1      53.468  32.605  53.367  0.00  0.00     0.355 C 
ATOM      5  N   UNL d   1      53.443  33.419  53.244  0.00  0.00    -0.115 NA
ATOM      6  O   UNL d   1      53.009  32.310  53.494  0.00  0.00    -0.258 OA
BRANCH   5   7
ATOM      7  N   UNL d   1      52.717  33.840  53.306  0.00  0.00    -0.175 N 
ATOM      8  C   UNL d   1      52.579  34.274  53.951  0.00  0.00     0.170 A 
ATOM      9  S   UNL d   1      51.789  34.632  53.838  0.00  0.00    -0.051 SA
ATOM     10  S   UNL d   1      53.118  34.351  54.604  0.00  0.00    -0.050 SA
ATOM     11  C   UNL d   1      51.522  34.360  53.096  0.00  0.00     0.100 A 
ATOM     12  C   UNL d   1      52.111  33.871  52.781  0.00  0.00     0.288 A 
ATOM     13  O   UNL d   1      52.086  33.471  52.041  0.00  0.00    -0.265 OA
ENDBRANCH   5   7
ENDBRANCH   1   4
BRANCH   2  14
ATOM     14  N   UNL d   1      53.548  30.904  53.377  0.00  0.00    -0.175 N 
ATOM     15  C   UNL d   1      53.209  30.589  54.047  0.00  0.00     0.170 A 
ATOM     16  S   UNL d   1      52.584  30.148  53.784  0.00  0.00    -0.051 SA
ATOM     17  S   UNL d   1      53.466  30.706  54.848  0.00  0.00    -0.050 SA
ATOM     18  C   UNL d   1      52.517  30.171  52.999  0.00  0.00     0.100 A 
ATOM     19  C   UNL d   1      53.101  30.633  52.707  0.00  0.00     0.288 A 
ATOM     20  O   UNL d   1      53.206  30.753  52.258  0.00  0.00    -0.265 OA
ENDBRANCH   2  14
TORSDOF 3
ENDMDL
MODEL 5
REMARK VINA RESULT:      -5.2      1.692      3.195
REMARK  3 active torsions:
REMARK  status: ('A' for Active; 'I' for Inactive)
REMARK    1  A    between atoms: N_7  and  N_1 
REMARK    2  A    between atoms: N_2  and  N_8 
REMARK       I    between atoms: C_3  and  N_7 
REMARK    3  A    between atoms: C_4  and  C_3 
REMARK       I    between atoms: N_8  and  C_4 
ROOT
ATOM      1  C   UNL d   1      54.052  32.916  53.275  0.00  0.00     0.355 C 
ATOM      2  N   UNL d   1      53.745  33.664  53.266  0.00  0.00    -0.115 NA
ATOM      3  O   UNL d   1      54.856  32.803  53.245  0.00  0.00    -0.258 OA
ENDROOT
BRANCH   1   4
ATOM      4  C   UNL d   1      53.543  32.268  53.316  0.00  0.00     0.355 C 
ATOM      5  N   UNL d   1      53.875  31.518  53.393  0.00  0.00    -0.115 NA
ATOM      6  O   UNL d   1      52.988  32.345  53.291  0.00  0.00    -0.258 OA
BRANCH   5   7
ATOM      7  N   UNL d   1      53.386  30.834  53.438  0.00  0.00    -0.175 N 
ATOM      8  C   UNL d   1      53.299  30.469  54.132  0.00  0.00     0.170 A 
ATOM      9  S   UNL d   1      52.766  29.792  53.984  0.00  0.00    -0.051 SA
ATOM     10  S   UNL d   1      53.668  30.717  54.856  0.00  0.00    -0.050 SA
ATOM     11  C   UNL d   1      52.579  29.825  53.172  0.00  0.00     0.100 A 
ATOM     12  C   UNL d   1      52.973  30.478  52.850  0.00  0.00     0.288 A 
ATOM     13  O   UNL d   1      52.949  30.730  52.048  0.00  0.00    -0.265 OA
ENDBRANCH   5   7
ENDBRANCH   1   4
BRANCH   2  14
ATOM     14  N   UNL d   1      52.914  33.850  53.296  0.00  0.00    -0.175 N 
ATOM     15  C   UNL d   1      52.453  34.055  53.936  0.00  0.00     0.170 A 
ATOM     16  S   UNL d   1      51.710  34.168  53.637  0.00  0.00    -0.051 SA
ATOM     17  S   UNL d   1      52.709  34.130  54.742  0.00  0.00    -0.050 SA
ATOM     18  C   UNL d   1      51.684  34.046  52.858  0.00  0.00     0.100 A 
ATOM     19  C   UNL d   1      52.416  33.846  52.607  0.00  0.00     0.288 A 
ATOM     20  O   UNL d   1      52.577  33.740  52.171  0.00  0.00    -0.265 OA
ENDBRANCH   2  14
TORSDOF 3
ENDMDL
