MODEL 1
REMARK VINA RESULT:      -5.5      0.000      0.000
REMARK  5 active torsions:
REMARK  status: ('A' for Active; 'I' for Inactive)
REMARK    1  A    between atoms: C_12  and  N_3 
REMARK    2  A    between atoms: C_11  and  C_5 
REMARK       I    between atoms: N_16  and  C_11 
REMARK    3  A    between atoms: C_15  and  C_12 
REMARK    4  A    between atoms: C_26  and  N_16 
REMARK    5  A    between atoms: C_27  and  C_26 
ROOT
ATOM      1  C   UNL d   1     -47.585  13.240  23.130  0.00  0.00     0.155 A 
ATOM      2  C   UNL d   1     -46.954  13.676  22.799  0.00  0.00     0.091 A 
ATOM      3  N   UNL d   1     -47.459  12.465  23.370  0.00  0.00    -0.272 N 
ATOM      4  N   UNL d   1     -48.322  13.592  23.210  0.00  0.00    -0.210 NA
ATOM      5  C   UNL d   1     -46.089  12.547  22.960  0.00  0.00     0.094 A 
ATOM      6  C   UNL d   1     -46.713  12.115  23.287  0.00  0.00     0.175 A 
ATOM      7  C   UNL d   1     -47.074  14.455  22.555  0.00  0.00     0.269 A 
ATOM      8  N   UNL d   1     -47.823  14.798  22.642  0.00  0.00    -0.258 N 
ATOM      9  C   UNL d   1     -48.445  14.363  22.970  0.00  0.00     0.152 A 
ATOM     10  C   UNL d   1     -46.211  13.329  22.715  0.00  0.00     0.016 A 
ATOM     11  N   UNL d   1     -46.594  11.336  23.531  0.00  0.00    -0.128 N 
ATOM     12  C   UNL d   1     -47.937  15.581  22.395  0.00  0.00     0.084 A 
ATOM     13  O   UNL d   1     -46.454  14.893  22.227  0.00  0.00    -0.266 OA
ATOM     14  C   UNL d   1     -49.185  14.718  23.049  0.00  0.00     0.038 A 
ATOM     15  C   UNL d   1     -48.684  15.922  22.482  0.00  0.00     0.019 A 
ATOM     16  C   UNL d   1     -49.308  15.490  22.809  0.00  0.00     0.005 A 
ENDROOT
BRANCH   5  17
ATOM     17  C   UNL d   1     -45.345  12.199  22.876  0.00  0.00     0.282 C 
ATOM     18  N   UNL d   1     -44.834  12.460  22.284  0.00  0.00    -0.206 NA
ATOM     19  O   UNL d   1     -45.113  11.591  23.386  0.00  0.00    -0.265 OA
BRANCH  18  20
ATOM     20  C   UNL d   1     -44.083  12.112  22.197  0.00  0.00     0.102 C 
BRANCH  20  21
ATOM     21  C   UNL d   1     -43.479  12.520  21.812  0.00  0.00     0.019 A 
ATOM     22  C   UNL d   1     -43.629  12.901  21.093  0.00  0.00     0.002 A 
ATOM     23  C   UNL d   1     -43.024  13.310  20.708  0.00  0.00     0.000 A 
ATOM     24  C   UNL d   1     -42.266  13.339  21.041  0.00  0.00     0.000 A 
ATOM     25  C   UNL d   1     -42.120  12.957  21.760  0.00  0.00     0.000 A 
ATOM     26  C   UNL d   1     -41.662  13.747  20.656  0.00  0.00     0.000 C 
ATOM     27  C   UNL d   1     -42.725  12.548  22.145  0.00  0.00     0.002 A 
ENDBRANCH  20  21
ENDBRANCH  18  20
ENDBRANCH   5  17
BRANCH   3  28
ATOM     28  C   UNL d   1     -48.084  12.034  23.698  0.00  0.00     0.107 C 
BRANCH  28  29
ATOM     29  C   UNL d   1     -48.627  11.655  23.206  0.00  0.00     0.118 A 
ATOM     30  O   UNL d   1     -48.806  11.391  22.452  0.00  0.00    -0.304 OA
ATOM     31  C   UNL d   1     -49.548  11.037  22.465  0.00  0.00     0.123 A 
ATOM     32  C   UNL d   1     -49.835  11.081  23.237  0.00  0.00     0.029 A 
ATOM     33  C   UNL d   1     -49.268  11.463  23.697  0.00  0.00     0.028 A 
ENDBRANCH  28  29
ENDBRANCH   3  28
TORSDOF 5
ENDMDL
MODEL 2
REMARK VINA RESULT:      -5.3      5.438      8.426
REMARK  5 active torsions:
REMARK  status: ('A' for Active; 'I' for Inactive)
REMARK    1  A    between atoms: C_12  and  N_3 
REMARK    2  A    between atoms: C_11  and  C_5 
REMARK       I    between atoms: N_16  and  C_11 
REMARK    3  A    between atoms: C_15  and  C_12 
REMARK    4  A    between atoms: C_26  and  N_16 
REMARK    5  A    between atoms: C_27  and  C_26 
ROOT
ATOM      1  C   UNL d   1     -40.038  14.443  20.688  0.00  0.00     0.155 A 
ATOM      2  C   UNL d   1     -40.266  14.410  19.885  0.00  0.00     0.091 A 
ATOM      3  N   UNL d   1     -39.294  14.729  20.886  0.00  0.00    -0.272 N 
ATOM      4  N   UNL d   1     -40.560  14.189  21.268  0.00  0.00    -0.210 NA
ATOM      5  C   UNL d   1     -38.997  14.952  19.502  0.00  0.00     0.094 A 
ATOM      6  C   UNL d   1     -38.771  14.985  20.297  0.00  0.00     0.175 A 
ATOM      7  C   UNL d   1     -41.011  14.123  19.679  0.00  0.00     0.269 A 
ATOM      8  N   UNL d   1     -41.529  13.870  20.275  0.00  0.00    -0.258 N 
ATOM      9  C   UNL d   1     -41.299  13.904  21.069  0.00  0.00     0.152 A 
ATOM     10  C   UNL d   1     -39.746  14.664  19.297  0.00  0.00     0.016 A 
ATOM     11  N   UNL d   1     -38.025  15.272  20.503  0.00  0.00    -0.128 N 
ATOM     12  C   UNL d   1     -42.277  13.583  20.062  0.00  0.00     0.084 A 
ATOM     13  O   UNL d   1     -41.244  14.087  18.887  0.00  0.00    -0.266 OA
ATOM     14  C   UNL d   1     -41.825  13.648  21.650  0.00  0.00     0.038 A 
ATOM     15  C   UNL d   1     -42.791  13.331  20.656  0.00  0.00     0.019 A 
ATOM     16  C   UNL d   1     -42.565  13.364  21.451  0.00  0.00     0.005 A 
ENDROOT
BRANCH   5  17
ATOM     17  C   UNL d   1     -38.477  15.206  18.914  0.00  0.00     0.282 C 
ATOM     18  N   UNL d   1     -38.462  14.821  18.184  0.00  0.00    -0.206 NA
ATOM     19  O   UNL d   1     -37.971  15.844  19.056  0.00  0.00    -0.265 OA
BRANCH  18  20
ATOM     20  C   UNL d   1     -37.939  15.074  17.589  0.00  0.00     0.102 C 
BRANCH  20  21
ATOM     21  C   UNL d   1     -37.947  14.711  16.849  0.00  0.00     0.019 A 
ATOM     22  C   UNL d   1     -37.942  13.886  16.792  0.00  0.00     0.002 A 
ATOM     23  C   UNL d   1     -37.949  13.523  16.051  0.00  0.00     0.000 A 
ATOM     24  C   UNL d   1     -37.963  13.984  15.363  0.00  0.00     0.000 A 
ATOM     25  C   UNL d   1     -37.969  14.809  15.424  0.00  0.00     0.000 A 
ATOM     26  C   UNL d   1     -37.971  13.621  14.623  0.00  0.00     0.000 C 
ATOM     27  C   UNL d   1     -37.961  15.172  16.165  0.00  0.00     0.002 A 
ENDBRANCH  20  21
ENDBRANCH  18  20
ENDBRANCH   5  17
BRANCH   3  28
ATOM     28  C   UNL d   1     -39.068  14.762  21.681  0.00  0.00     0.107 C 
BRANCH  28  29
ATOM     29  C   UNL d   1     -38.636  14.144  22.014  0.00  0.00     0.118 A 
ATOM     30  O   UNL d   1     -38.254  13.429  21.896  0.00  0.00    -0.304 OA
ATOM     31  C   UNL d   1     -37.942  13.174  22.613  0.00  0.00     0.123 A 
ATOM     32  C   UNL d   1     -38.131  13.738  23.184  0.00  0.00     0.029 A 
ATOM     33  C   UNL d   1     -38.561  14.338  22.817  0.00  0.00     0.028 A 
ENDBRANCH  28  29
ENDBRANCH   3  28
TORSDOF 5
ENDMDL
MODEL 3
REMARK VINA RESULT:      -4.8      3.326      7.527
REMARK  5 active torsions:
REMARK  status: ('A' for Active; 'I' for Inactive)
REMARK    1  A    between atoms: C_12  and  N_3 
REMARK    2  A    between atoms: C_11  and  C_5 
REMARK       I    between atoms: N_16  and  C_11 
REMARK    3  A    between atoms: C_15  and  C_12 
REMARK    4  A    between atoms: C_26  and  N_16 
REMARK    5  A    between atoms: C_27  and  C_26 
ROOT
ATOM      1  C   UNL d   1     -40.280  14.680  21.116  0.00  0.00     0.155 A 
ATOM      2  C   UNL d   1     -40.393  14.070  21.675  0.00  0.00     0.091 A 
ATOM      3  N   UNL d   1     -40.810  14.765  20.495  0.00  0.00    -0.272 N 
ATOM      4  N   UNL d   1     -39.639  15.187  21.195  0.00  0.00    -0.210 NA
ATOM      5  C   UNL d   1     -41.568  13.647  20.973  0.00  0.00     0.094 A 
ATOM      6  C   UNL d   1     -41.455  14.251  20.420  0.00  0.00     0.175 A 
ATOM      7  C   UNL d   1     -39.864  13.979  22.301  0.00  0.00     0.269 A 
ATOM      8  N   UNL d   1     -39.221  14.497  22.369  0.00  0.00    -0.258 N 
ATOM      9  C   UNL d   1     -39.111  15.100  21.813  0.00  0.00     0.152 A 
ATOM     10  C   UNL d   1     -41.035  13.557  21.601  0.00  0.00     0.016 A 
ATOM     11  N   UNL d   1     -41.985  14.342  19.794  0.00  0.00    -0.128 N 
ATOM     12  C   UNL d   1     -38.693  14.400  23.000  0.00  0.00     0.084 A 
ATOM     13  O   UNL d   1     -39.970  13.377  22.858  0.00  0.00    -0.266 OA
ATOM     14  C   UNL d   1     -38.467  15.608  21.894  0.00  0.00     0.038 A 
ATOM     15  C   UNL d   1     -38.053  14.918  23.066  0.00  0.00     0.019 A 
ATOM     16  C   UNL d   1     -37.940  15.522  22.513  0.00  0.00     0.005 A 
ENDROOT
BRANCH   5  17
ATOM     17  C   UNL d   1     -42.210  13.134  20.900  0.00  0.00     0.282 C 
ATOM     18  N   UNL d   1     -42.855  13.208  21.408  0.00  0.00    -0.206 NA
ATOM     19  O   UNL d   1     -42.207  12.547  20.317  0.00  0.00    -0.265 OA
BRANCH  18  20
ATOM     20  C   UNL d   1     -43.505  12.693  21.337  0.00  0.00     0.102 C 
BRANCH  20  21
ATOM     21  C   UNL d   1     -44.183  12.816  21.789  0.00  0.00     0.019 A 
ATOM     22  C   UNL d   1     -44.637  13.499  21.677  0.00  0.00     0.002 A 
ATOM     23  C   UNL d   1     -45.316  13.622  22.128  0.00  0.00     0.000 A 
ATOM     24  C   UNL d   1     -45.544  13.063  22.695  0.00  0.00     0.000 A 
ATOM     25  C   UNL d   1     -45.088  12.382  22.805  0.00  0.00     0.000 A 
ATOM     26  C   UNL d   1     -46.223  13.187  23.147  0.00  0.00     0.000 C 
ATOM     27  C   UNL d   1     -44.409  12.258  22.353  0.00  0.00     0.002 A 
ENDBRANCH  20  21
ENDBRANCH  18  20
ENDBRANCH   5  17
BRANCH   3  28
ATOM     28  C   UNL d   1     -40.697  15.369  19.942  0.00  0.00     0.107 C 
BRANCH  28  29
ATOM     29  C   UNL d   1     -40.367  15.198  19.206  0.00  0.00     0.118 A 
ATOM     30  O   UNL d   1     -40.048  14.632  18.708  0.00  0.00    -0.304 OA
ATOM     31  C   UNL d   1     -39.842  14.989  17.997  0.00  0.00     0.123 A 
ATOM     32  C   UNL d   1     -40.036  15.789  18.052  0.00  0.00     0.029 A 
ATOM     33  C   UNL d   1     -40.361  15.921  18.798  0.00  0.00     0.028 A 
ENDBRANCH  28  29
ENDBRANCH   3  28
TORSDOF 5
ENDMDL
MODEL 4
REMARK VINA RESULT:      -4.5      4.099      8.125
REMARK  5 active torsions:
REMARK  status: ('A' for Active; 'I' for Inactive)
REMARK    1  A    between atoms: C_12  and  N_3 
REMARK    2  A    between atoms: C_11  and  C_5 
REMARK       I    between atoms: N_16  and  C_11 
REMARK    3  A    between atoms: C_15  and  C_12 
REMARK    4  A    between atoms: C_26  and  N_16 
REMARK    5  A    between atoms: C_27  and  C_26 
ROOT
ATOM      1  C   UNL d   1     -39.588  14.348  19.733  0.00  0.00     0.155 A 
ATOM      2  C   UNL d   1     -40.269  14.227  19.265  0.00  0.00     0.091 A 
ATOM      3  N   UNL d   1     -39.671  14.520  20.531  0.00  0.00    -0.272 N 
ATOM      4  N   UNL d   1     -38.845  14.294  19.388  0.00  0.00    -0.210 NA
ATOM      5  C   UNL d   1     -41.097  14.453  20.412  0.00  0.00     0.094 A 
ATOM      6  C   UNL d   1     -40.422  14.573  20.875  0.00  0.00     0.175 A 
ATOM      7  C   UNL d   1     -40.193  14.054  18.462  0.00  0.00     0.269 A 
ATOM      8  N   UNL d   1     -39.437  14.003  18.126  0.00  0.00    -0.258 N 
ATOM      9  C   UNL d   1     -38.765  14.123  18.593  0.00  0.00     0.152 A 
ATOM     10  C   UNL d   1     -41.019  14.280  19.606  0.00  0.00     0.016 A 
ATOM     11  N   UNL d   1     -40.498  14.746  21.678  0.00  0.00    -0.128 N 
ATOM     12  C   UNL d   1     -39.368  13.829  17.319  0.00  0.00     0.084 A 
ATOM     13  O   UNL d   1     -40.863  13.933  17.993  0.00  0.00    -0.266 OA
ATOM     14  C   UNL d   1     -38.020  14.069  18.245  0.00  0.00     0.038 A 
ATOM     15  C   UNL d   1     -38.614  13.778  16.986  0.00  0.00     0.019 A 
ATOM     16  C   UNL d   1     -37.940  13.898  17.449  0.00  0.00     0.005 A 
ENDROOT
BRANCH   5  17
ATOM     17  C   UNL d   1     -41.846  14.506  20.752  0.00  0.00     0.282 C 
ATOM     18  N   UNL d   1     -42.268  13.819  20.926  0.00  0.00    -0.206 NA
ATOM     19  O   UNL d   1     -42.174  15.247  20.919  0.00  0.00    -0.265 OA
BRANCH  18  20
ATOM     20  C   UNL d   1     -43.024  13.868  21.269  0.00  0.00     0.102 C 
BRANCH  20  21
ATOM     21  C   UNL d   1     -43.359  13.207  21.631  0.00  0.00     0.019 A 
ATOM     22  C   UNL d   1     -42.888  12.553  21.816  0.00  0.00     0.002 A 
ATOM     23  C   UNL d   1     -43.223  11.892  22.178  0.00  0.00     0.000 A 
ATOM     24  C   UNL d   1     -44.032  11.882  22.357  0.00  0.00     0.000 A 
ATOM     25  C   UNL d   1     -44.500  12.538  22.171  0.00  0.00     0.000 A 
ATOM     26  C   UNL d   1     -44.366  11.221  22.720  0.00  0.00     0.000 C 
ATOM     27  C   UNL d   1     -44.165  13.199  21.809  0.00  0.00     0.002 A 
ENDBRANCH  20  21
ENDBRANCH  18  20
ENDBRANCH   5  17
BRANCH   3  28
ATOM     28  C   UNL d   1     -38.996  14.640  20.995  0.00  0.00     0.107 C 
BRANCH  28  29
ATOM     29  C   UNL d   1     -38.766  14.070  21.544  0.00  0.00     0.118 A 
ATOM     30  O   UNL d   1     -38.852  13.303  21.820  0.00  0.00    -0.304 OA
ATOM     31  C   UNL d   1     -38.350  13.194  22.461  0.00  0.00     0.123 A 
ATOM     32  C   UNL d   1     -37.945  13.901  22.588  0.00  0.00     0.029 A 
ATOM     33  C   UNL d   1     -38.200  14.444  22.022  0.00  0.00     0.028 A 
ENDBRANCH  28  29
ENDBRANCH   3  28
TORSDOF 5
ENDMDL
MODEL 5
REMARK VINA RESULT:      -3.8      1.235      3.182
REMARK  5 active torsions:
REMARK  status: ('A' for Active; 'I' for Inactive)
REMARK    1  A    between atoms: C_12  and  N_3 
REMARK    2  A    between atoms: C_11  and  C_5 
REMARK       I    between atoms: N_16  and  C_11 
REMARK    3  A    between atoms: C_15  and  C_12 
REMARK    4  A    between atoms: C_26  and  N_16 
REMARK    5  A    between atoms: C_27  and  C_26 
ROOT
ATOM      1  C   UNL d   1     -49.069  13.476  23.171  0.00  0.00     0.155 A 
ATOM      2  C   UNL d   1     -48.494  12.893  23.008  0.00  0.00     0.091 A 
ATOM      3  N   UNL d   1     -48.867  14.270  23.118  0.00  0.00    -0.272 N 
ATOM      4  N   UNL d   1     -49.830  13.248  23.380  0.00  0.00    -0.210 NA
ATOM      5  C   UNL d   1     -47.529  13.918  22.746  0.00  0.00     0.094 A 
ATOM      6  C   UNL d   1     -48.099  14.496  22.907  0.00  0.00     0.175 A 
ATOM      7  C   UNL d   1     -48.691  12.094  23.059  0.00  0.00     0.269 A 
ATOM      8  N   UNL d   1     -49.462  11.877  23.271  0.00  0.00    -0.258 N 
ATOM      9  C   UNL d   1     -50.029  12.457  23.431  0.00  0.00     0.152 A 
ATOM     10  C   UNL d   1     -47.729  13.116  22.797  0.00  0.00     0.016 A 
ATOM     11  N   UNL d   1     -47.902  15.295  22.856  0.00  0.00    -0.128 N 
ATOM     12  C   UNL d   1     -49.654  11.072  23.320  0.00  0.00     0.084 A 
ATOM     13  O   UNL d   1     -48.127  11.511  22.899  0.00  0.00    -0.266 OA
ATOM     14  C   UNL d   1     -50.792  12.226  23.642  0.00  0.00     0.038 A 
ATOM     15  C   UNL d   1     -50.422  10.858  23.532  0.00  0.00     0.019 A 
ATOM     16  C   UNL d   1     -50.992  11.435  23.693  0.00  0.00     0.005 A 
ENDROOT
BRANCH   5  17
ATOM     17  C   UNL d   1     -46.764  14.141  22.535  0.00  0.00     0.282 C 
ATOM     18  N   UNL d   1     -46.199  13.563  22.367  0.00  0.00    -0.206 NA
ATOM     19  O   UNL d   1     -46.562  14.942  22.491  0.00  0.00    -0.265 OA
BRANCH  18  20
ATOM     20  C   UNL d   1     -45.426  13.784  22.154  0.00  0.00     0.102 C 
BRANCH  20  21
ATOM     21  C   UNL d   1     -44.825  13.219  22.130  0.00  0.00     0.019 A 
ATOM     22  C   UNL d   1     -44.871  12.546  22.608  0.00  0.00     0.002 A 
ATOM     23  C   UNL d   1     -44.270  11.981  22.585  0.00  0.00     0.000 A 
ATOM     24  C   UNL d   1     -43.620  12.088  22.082  0.00  0.00     0.000 A 
ATOM     25  C   UNL d   1     -43.578  12.762  21.606  0.00  0.00     0.000 A 
ATOM     26  C   UNL d   1     -43.019  11.523  22.059  0.00  0.00     0.000 C 
ATOM     27  C   UNL d   1     -44.179  13.327  21.629  0.00  0.00     0.002 A 
ENDBRANCH  20  21
ENDBRANCH  18  20
ENDBRANCH   5  17
BRANCH   3  28
ATOM     28  C   UNL d   1     -49.437  14.848  23.279  0.00  0.00     0.107 C 
BRANCH  28  29
ATOM     29  C   UNL d   1     -49.934  15.117  22.678  0.00  0.00     0.118 A 
ATOM     30  O   UNL d   1     -50.085  15.154  21.874  0.00  0.00    -0.304 OA
ATOM     31  C   UNL d   1     -50.777  15.580  21.754  0.00  0.00     0.123 A 
ATOM     32  C   UNL d   1     -51.062  15.811  22.493  0.00  0.00     0.029 A 
ATOM     33  C   UNL d   1     -50.542  15.526  23.066  0.00  0.00     0.028 A 
ENDBRANCH  28  29
ENDBRANCH   3  28
TORSDOF 5
ENDMDL
MODEL 6
REMARK VINA RESULT:      -3.1      1.557      3.268
REMARK  5 active torsions:
REMARK  status: ('A' for Active; 'I' for Inactive)
REMARK    1  A    between atoms: C_12  and  N_3 
REMARK    2  A    between atoms: C_11  and  C_5 
REMARK       I    between atoms: N_16  and  C_11 
REMARK    3  A    between atoms: C_15  and  C_12 
REMARK    4  A    between atoms: C_26  and  N_16 
REMARK    5  A    between atoms: C_27  and  C_26 
ROOT
ATOM      1  C   UNL d   1     -48.437  13.237  23.182  0.00  0.00     0.155 A 
ATOM      2  C   UNL d   1     -48.147  12.455  23.146  0.00  0.00     0.091 A 
ATOM      3  N   UNL d   1     -47.921  13.866  23.071  0.00  0.00    -0.272 N 
ATOM      4  N   UNL d   1     -49.234  13.367  23.329  0.00  0.00    -0.210 NA
ATOM      5  C   UNL d   1     -46.830  12.956  22.888  0.00  0.00     0.094 A 
ATOM      6  C   UNL d   1     -47.118  13.730  22.923  0.00  0.00     0.175 A 
ATOM      7  C   UNL d   1     -48.659  11.818  23.258  0.00  0.00     0.269 A 
ATOM      8  N   UNL d   1     -49.462  11.963  23.405  0.00  0.00    -0.258 N 
ATOM      9  C   UNL d   1     -49.746  12.739  23.440  0.00  0.00     0.152 A 
ATOM     10  C   UNL d   1     -47.347  12.318  23.000  0.00  0.00     0.016 A 
ATOM     11  N   UNL d   1     -46.605  14.367  22.812  0.00  0.00    -0.128 N 
ATOM     12  C   UNL d   1     -49.972  11.319  23.516  0.00  0.00     0.084 A 
ATOM     13  O   UNL d   1     -48.379  11.041  23.224  0.00  0.00    -0.266 OA
ATOM     14  C   UNL d   1     -50.547  12.867  23.587  0.00  0.00     0.038 A 
ATOM     15  C   UNL d   1     -50.771  11.465  23.662  0.00  0.00     0.019 A 
ATOM     16  C   UNL d   1     -51.059  12.240  23.698  0.00  0.00     0.005 A 
ENDROOT
BRANCH   5  17
ATOM     17  C   UNL d   1     -46.030  12.818  22.741  0.00  0.00     0.282 C 
ATOM     18  N   UNL d   1     -45.644  12.195  23.119  0.00  0.00    -0.206 NA
ATOM     19  O   UNL d   1     -45.616  13.305  22.216  0.00  0.00    -0.265 OA
BRANCH  18  20
ATOM     20  C   UNL d   1     -44.837  12.054  22.973  0.00  0.00     0.102 C 
BRANCH  20  21
ATOM     21  C   UNL d   1     -44.506  11.319  23.150  0.00  0.00     0.019 A 
ATOM     22  C   UNL d   1     -44.963  10.738  23.521  0.00  0.00     0.002 A 
ATOM     23  C   UNL d   1     -44.632  10.003  23.697  0.00  0.00     0.000 A 
ATOM     24  C   UNL d   1     -43.843   9.846  23.502  0.00  0.00     0.000 A 
ATOM     25  C   UNL d   1     -43.390  10.429  23.131  0.00  0.00     0.000 A 
ATOM     26  C   UNL d   1     -43.512   9.111  23.678  0.00  0.00     0.000 C 
ATOM     27  C   UNL d   1     -43.720  11.164  22.954  0.00  0.00     0.002 A 
ENDBRANCH  20  21
ENDBRANCH  18  20
ENDBRANCH   5  17
BRANCH   3  28
ATOM     28  C   UNL d   1     -48.209  14.640  23.106  0.00  0.00     0.107 C 
BRANCH  28  29
ATOM     29  C   UNL d   1     -48.459  15.020  22.418  0.00  0.00     0.118 A 
ATOM     30  O   UNL d   1     -48.365  15.114  21.610  0.00  0.00    -0.304 OA
ATOM     31  C   UNL d   1     -48.911  15.668  21.342  0.00  0.00     0.123 A 
ATOM     32  C   UNL d   1     -49.351  15.922  21.992  0.00  0.00     0.029 A 
ATOM     33  C   UNL d   1     -49.074  15.523  22.659  0.00  0.00     0.028 A 
ENDBRANCH  28  29
ENDBRANCH   3  28
TORSDOF 5
ENDMDL
MODEL 7
REMARK VINA RESULT:      -3.0      4.513      8.411
REMARK  5 active torsions:
REMARK  status: ('A' for Active; 'I' for Inactive)
REMARK    1  A    between atoms: C_12  and  N_3 
REMARK    2  A    between atoms: C_11  and  C_5 
REMARK       I    between atoms: N_16  and  C_11 
REMARK    3  A    between atoms: C_15  and  C_12 
REMARK    4  A    between atoms: C_26  and  N_16 
REMARK    5  A    between atoms: C_27  and  C_26 
ROOT
ATOM      1  C   UNL d   1     -39.722  14.647  18.191  0.00  0.00     0.155 A 
ATOM      2  C   UNL d   1     -40.447  15.041  18.321  0.00  0.00     0.091 A 
ATOM      3  N   UNL d   1     -39.370  14.234  18.806  0.00  0.00    -0.272 N 
ATOM      4  N   UNL d   1     -39.373  14.677  17.449  0.00  0.00    -0.210 NA
ATOM      5  C   UNL d   1     -40.444  14.597  19.682  0.00  0.00     0.094 A 
ATOM      6  C   UNL d   1     -39.726  14.206  19.553  0.00  0.00     0.175 A 
ATOM      7  C   UNL d   1     -40.806  15.458  17.706  0.00  0.00     0.269 A 
ATOM      8  N   UNL d   1     -40.443  15.480  16.962  0.00  0.00    -0.258 N 
ATOM      9  C   UNL d   1     -39.725  15.088  16.837  0.00  0.00     0.152 A 
ATOM     10  C   UNL d   1     -40.804  15.015  19.064  0.00  0.00     0.016 A 
ATOM     11  N   UNL d   1     -39.367  13.790  20.168  0.00  0.00    -0.128 N 
ATOM     12  C   UNL d   1     -40.809  15.901  16.349  0.00  0.00     0.084 A 
ATOM     13  O   UNL d   1     -41.524  15.851  17.828  0.00  0.00    -0.266 OA
ATOM     14  C   UNL d   1     -39.376  15.120  16.091  0.00  0.00     0.038 A 
ATOM     15  C   UNL d   1     -40.446  15.922  15.608  0.00  0.00     0.019 A 
ATOM     16  C   UNL d   1     -39.728  15.531  15.479  0.00  0.00     0.005 A 
ENDROOT
BRANCH   5  17
ATOM     17  C   UNL d   1     -40.801  14.571  20.425  0.00  0.00     0.282 C 
ATOM     18  N   UNL d   1     -41.439  14.066  20.557  0.00  0.00    -0.206 NA
ATOM     19  O   UNL d   1     -40.518  15.050  21.037  0.00  0.00    -0.265 OA
BRANCH  18  20
ATOM     20  C   UNL d   1     -41.802  14.037  21.306  0.00  0.00     0.102 C 
BRANCH  20  21
ATOM     21  C   UNL d   1     -42.495  13.604  21.414  0.00  0.00     0.019 A 
ATOM     22  C   UNL d   1     -42.458  12.789  21.548  0.00  0.00     0.002 A 
ATOM     23  C   UNL d   1     -43.152  12.356  21.657  0.00  0.00     0.000 A 
ATOM     24  C   UNL d   1     -43.887  12.737  21.630  0.00  0.00     0.000 A 
ATOM     25  C   UNL d   1     -43.920  13.552  21.495  0.00  0.00     0.000 A 
ATOM     26  C   UNL d   1     -44.581  12.304  21.738  0.00  0.00     0.000 C 
ATOM     27  C   UNL d   1     -43.226  13.985  21.387  0.00  0.00     0.002 A 
ENDBRANCH  20  21
ENDBRANCH  18  20
ENDBRANCH   5  17
BRANCH   3  28
ATOM     28  C   UNL d   1     -38.652  13.843  18.677  0.00  0.00     0.107 C 
BRANCH  28  29
ATOM     29  C   UNL d   1     -38.648  13.078  18.370  0.00  0.00     0.118 A 
ATOM     30  O   UNL d   1     -39.015  12.527  17.888  0.00  0.00    -0.304 OA
ATOM     31  C   UNL d   1     -38.584  11.827  17.909  0.00  0.00     0.123 A 
ATOM     32  C   UNL d   1     -37.940  11.943  18.411  0.00  0.00     0.029 A 
ATOM     33  C   UNL d   1     -37.977  12.716  18.697  0.00  0.00     0.028 A 
ENDBRANCH  28  29
ENDBRANCH   3  28
TORSDOF 5
ENDMDL
MODEL 8
REMARK VINA RESULT:      -2.7      1.664      3.348
REMARK  5 active torsions:
REMARK  status: ('A' for Active; 'I' for Inactive)
REMARK    1  A    between atoms: C_12  and  N_3 
REMARK    2  A    between atoms: C_11  and  C_5 
REMARK       I    between atoms: N_16  and  C_11 
REMARK    3  A    between atoms: C_15  and  C_12 
REMARK    4  A    between atoms: C_26  and  N_16 
REMARK    5  A    between atoms: C_27  and  C_26 
ROOT
ATOM      1  C   UNL d   1     -45.104  12.334  22.708  0.00  0.00     0.155 A 
ATOM      2  C   UNL d   1     -45.263  12.881  22.098  0.00  0.00     0.091 A 
ATOM      3  N   UNL d   1     -44.354  12.007  22.774  0.00  0.00    -0.272 N 
ATOM      4  N   UNL d   1     -45.700  12.131  23.235  0.00  0.00    -0.210 NA
ATOM      5  C   UNL d   1     -43.914  12.757  21.635  0.00  0.00     0.094 A 
ATOM      6  C   UNL d   1     -43.756  12.216  22.240  0.00  0.00     0.175 A 
ATOM      7  C   UNL d   1     -46.015  13.214  22.026  0.00  0.00     0.269 A 
ATOM      8  N   UNL d   1     -46.608  13.000  22.565  0.00  0.00    -0.258 N 
ATOM      9  C   UNL d   1     -46.446  12.457  23.168  0.00  0.00     0.152 A 
ATOM     10  C   UNL d   1     -44.669  13.090  21.565  0.00  0.00     0.016 A 
ATOM     11  N   UNL d   1     -43.005  11.883  22.311  0.00  0.00    -0.128 N 
ATOM     12  C   UNL d   1     -47.361  13.337  22.487  0.00  0.00     0.084 A 
ATOM     13  O   UNL d   1     -46.180  13.756  21.424  0.00  0.00    -0.266 OA
ATOM     14  C   UNL d   1     -47.046  12.254  23.696  0.00  0.00     0.038 A 
ATOM     15  C   UNL d   1     -47.950  13.123  23.024  0.00  0.00     0.019 A 
ATOM     16  C   UNL d   1     -47.792  12.581  23.629  0.00  0.00     0.005 A 
ENDROOT
BRANCH   5  17
ATOM     17  C   UNL d   1     -43.319  12.966  21.103  0.00  0.00     0.282 C 
ATOM     18  N   UNL d   1     -42.786  13.566  21.296  0.00  0.00    -0.206 NA
ATOM     19  O   UNL d   1     -43.258  12.575  20.377  0.00  0.00    -0.265 OA
BRANCH  18  20
ATOM     20  C   UNL d   1     -42.186  13.779  20.761  0.00  0.00     0.102 C 
BRANCH  20  21
ATOM     21  C   UNL d   1     -41.590  14.300  20.993  0.00  0.00     0.019 A 
ATOM     22  C   UNL d   1     -41.667  15.110  20.844  0.00  0.00     0.002 A 
ATOM     23  C   UNL d   1     -41.072  15.631  21.076  0.00  0.00     0.000 A 
ATOM     24  C   UNL d   1     -40.395  15.345  21.459  0.00  0.00     0.000 A 
ATOM     25  C   UNL d   1     -40.322  14.534  21.607  0.00  0.00     0.000 A 
ATOM     26  C   UNL d   1     -39.800  15.866  21.691  0.00  0.00     0.000 C 
ATOM     27  C   UNL d   1     -40.918  14.013  21.375  0.00  0.00     0.002 A 
ENDBRANCH  20  21
ENDBRANCH  18  20
ENDBRANCH   5  17
BRANCH   3  28
ATOM     28  C   UNL d   1     -44.197  11.465  23.378  0.00  0.00     0.107 C 
BRANCH  28  29
ATOM     29  C   UNL d   1     -44.011  10.683  23.194  0.00  0.00     0.118 A 
ATOM     30  O   UNL d   1     -43.560  10.170  22.742  0.00  0.00    -0.304 OA
ATOM     31  C   UNL d   1     -43.756   9.398  22.942  0.00  0.00     0.123 A 
ATOM     32  C   UNL d   1     -44.337   9.429  23.527  0.00  0.00     0.029 A 
ATOM     33  C   UNL d   1     -44.496  10.223  23.685  0.00  0.00     0.028 A 
ENDBRANCH  28  29
ENDBRANCH   3  28
TORSDOF 5
ENDMDL
