MODEL 1
REMARK VINA RESULT:      -3.0      0.000      0.000
REMARK  5 active torsions:
REMARK  status: ('A' for Active; 'I' for Inactive)
REMARK    1  A    between atoms: C_6  and  N_1 
REMARK    2  A    between atoms: C_7  and  C_6 
REMARK    3  A    between atoms: C_8  and  C_7 
REMARK       I    between atoms: N_11  and  C_8 
REMARK    4  A    between atoms: C_13  and  N_11 
REMARK    5  A    between atoms: C_16  and  C_13 
ROOT
ATOM      1  C   UNL d   1      33.238  19.556 -22.765  0.00  0.00     0.091 C 
ENDROOT
BRANCH   1   2
ATOM      2  N   UNL d   1      33.238  20.238 -22.246  0.00  0.00    -0.240 N 
ATOM      3  C   UNL d   1      33.239  20.231 -21.442  0.00  0.00     0.267 A 
ATOM      4  C   UNL d   1      33.238  20.997 -21.195  0.00  0.00     0.061 A 
ATOM      5  O   UNL d   1      33.241  19.495 -20.993  0.00  0.00    -0.267 OA
ATOM      6  C   UNL d   1      33.239  21.327 -20.406  0.00  0.00     0.005 A 
ATOM      7  C   UNL d   1      33.237  21.485 -21.835  0.00  0.00     0.061 A 
ATOM      8  C   UNL d   1      33.238  22.162 -20.308  0.00  0.00     0.000 A 
ATOM      9  C   UNL d   1      33.236  22.649 -20.947  0.00  0.00     0.000 A 
ATOM     10  C   UNL d   1      33.236  22.334 -21.727  0.00  0.00     0.005 A 
ATOM     11  C   UNL d   1      33.236  21.043 -22.508  0.00  0.00     0.267 A 
ATOM     12  O   UNL d   1      33.234  21.281 -23.336  0.00  0.00    -0.267 OA
ENDBRANCH   1   2
BRANCH   1  13
ATOM     13  C   UNL d   1      32.543  19.221 -22.946  0.00  0.00     0.082 C 
BRANCH  13  14
ATOM     14  C   UNL d   1      32.543  18.545 -23.473  0.00  0.00     0.281 C 
ATOM     15  N   UNL d   1      31.805  18.104 -23.546  0.00  0.00    -0.206 NA
ATOM     16  O   UNL d   1      33.212  18.355 -23.869  0.00  0.00    -0.265 OA
BRANCH  15  17
ATOM     17  C   UNL d   1      31.804  17.428 -24.073  0.00  0.00     0.102 C 
BRANCH  17  18
ATOM     18  C   UNL d   1      31.148  16.926 -24.052  0.00  0.00     0.019 A 
ATOM     19  C   UNL d   1      31.126  16.265 -23.625  0.00  0.00     0.002 A 
ATOM     20  C   UNL d   1      30.474  15.769 -23.606  0.00  0.00     0.000 A 
ATOM     21  C   UNL d   1      29.791  15.986 -24.076  0.00  0.00     0.000 A 
ATOM     22  C   UNL d   1      29.824  16.679 -24.520  0.00  0.00     0.000 A 
ATOM     23  C   UNL d   1      30.465  17.143 -24.522  0.00  0.00     0.002 A 
ENDBRANCH  17  18
ENDBRANCH  15  17
ENDBRANCH  13  14
ENDBRANCH   1  13
TORSDOF 5
ENDMDL
MODEL 2
REMARK VINA RESULT:      -2.9      0.910      5.283
REMARK  5 active torsions:
REMARK  status: ('A' for Active; 'I' for Inactive)
REMARK    1  A    between atoms: C_6  and  N_1 
REMARK    2  A    between atoms: C_7  and  C_6 
REMARK    3  A    between atoms: C_8  and  C_7 
REMARK       I    between atoms: N_11  and  C_8 
REMARK    4  A    between atoms: C_13  and  N_11 
REMARK    5  A    between atoms: C_16  and  C_13 
ROOT
ATOM      1  C   UNL d   1      32.676  18.782 -23.624  0.00  0.00     0.091 C 
ENDROOT
BRANCH   1   2
ATOM      2  N   UNL d   1      32.295  18.016 -23.669  0.00  0.00    -0.240 N 
ATOM      3  C   UNL d   1      32.534  17.337 -23.313  0.00  0.00     0.267 A 
ATOM      4  C   UNL d   1      32.007  16.762 -23.512  0.00  0.00     0.061 A 
ATOM      5  O   UNL d   1      33.241  17.306 -22.821  0.00  0.00    -0.267 OA
ATOM      6  C   UNL d   1      31.980  15.934 -23.297  0.00  0.00     0.005 A 
ATOM      7  C   UNL d   1      31.439  17.073 -23.989  0.00  0.00     0.061 A 
ATOM      8  C   UNL d   1      31.356  15.453 -23.589  0.00  0.00     0.000 A 
ATOM      9  C   UNL d   1      30.788  15.764 -24.066  0.00  0.00     0.000 A 
ATOM     10  C   UNL d   1      30.807  16.576 -24.282  0.00  0.00     0.005 A 
ATOM     11  C   UNL d   1      31.588  17.855 -24.108  0.00  0.00     0.267 A 
ATOM     12  O   UNL d   1      31.160  18.445 -24.567  0.00  0.00    -0.267 OA
ENDBRANCH   1   2
BRANCH   1  13
ATOM     13  C   UNL d   1      32.709  19.145 -22.920  0.00  0.00     0.082 C 
BRANCH  13  14
ATOM     14  C   UNL d   1      32.959  19.964 -22.897  0.00  0.00     0.281 C 
ATOM     15  N   UNL d   1      32.889  20.375 -22.141  0.00  0.00    -0.206 NA
ATOM     16  O   UNL d   1      33.241  20.309 -23.561  0.00  0.00    -0.265 OA
BRANCH  15  17
ATOM     17  C   UNL d   1      33.139  21.194 -22.117  0.00  0.00     0.102 C 
BRANCH  17  18
ATOM     18  C   UNL d   1      32.917  21.644 -21.460  0.00  0.00     0.019 A 
ATOM     19  C   UNL d   1      33.015  21.399 -20.718  0.00  0.00     0.002 A 
ATOM     20  C   UNL d   1      32.794  21.848 -20.069  0.00  0.00     0.000 A 
ATOM     21  C   UNL d   1      32.442  22.616 -20.213  0.00  0.00     0.000 A 
ATOM     22  C   UNL d   1      32.344  22.864 -20.992  0.00  0.00     0.000 A 
ATOM     23  C   UNL d   1      32.565  22.412 -21.604  0.00  0.00     0.002 A 
ENDBRANCH  17  18
ENDBRANCH  15  17
ENDBRANCH  13  14
ENDBRANCH   1  13
TORSDOF 5
ENDMDL
MODEL 3
REMARK VINA RESULT:      -2.2      1.105      5.451
REMARK  5 active torsions:
REMARK  status: ('A' for Active; 'I' for Inactive)
REMARK    1  A    between atoms: C_6  and  N_1 
REMARK    2  A    between atoms: C_7  and  C_6 
REMARK    3  A    between atoms: C_8  and  C_7 
REMARK       I    between atoms: N_11  and  C_8 
REMARK    4  A    between atoms: C_13  and  N_11 
REMARK    5  A    between atoms: C_16  and  C_13 
ROOT
ATOM      1  C   UNL d   1      31.601  18.066 -24.161  0.00  0.00     0.091 C 
ENDROOT
BRANCH   1   2
ATOM      2  N   UNL d   1      30.961  17.500 -24.226  0.00  0.00    -0.240 N 
ATOM      3  C   UNL d   1      30.956  16.745 -23.951  0.00  0.00     0.267 A 
ATOM      4  C   UNL d   1      30.242  16.425 -24.139  0.00  0.00     0.061 A 
ATOM      5  O   UNL d   1      31.632  16.407 -23.537  0.00  0.00    -0.267 OA
ATOM      6  C   UNL d   1      29.925  15.644 -23.988  0.00  0.00     0.005 A 
ATOM      7  C   UNL d   1      29.799  16.970 -24.530  0.00  0.00     0.061 A 
ATOM      8  C   UNL d   1      29.149  15.457 -24.252  0.00  0.00     0.000 A 
ATOM      9  C   UNL d   1      28.706  16.002 -24.642  0.00  0.00     0.000 A 
ATOM     10  C   UNL d   1      29.009  16.771 -24.795  0.00  0.00     0.005 A 
ATOM     11  C   UNL d   1      30.217  17.654 -24.601  0.00  0.00     0.267 A 
ATOM     12  O   UNL d   1      30.008  18.406 -24.967  0.00  0.00    -0.267 OA
ENDBRANCH   1   2
BRANCH   1  13
ATOM     13  C   UNL d   1      32.056  18.046 -23.513  0.00  0.00     0.082 C 
BRANCH  13  14
ATOM     14  C   UNL d   1      32.661  18.646 -23.422  0.00  0.00     0.281 C 
ATOM     15  N   UNL d   1      32.610  19.155 -22.727  0.00  0.00    -0.206 NA
ATOM     16  O   UNL d   1      33.237  18.709 -23.973  0.00  0.00    -0.265 OA
BRANCH  15  17
ATOM     17  C   UNL d   1      33.215  19.754 -22.636  0.00  0.00     0.102 C 
BRANCH  17  18
ATOM     18  C   UNL d   1      33.144  20.279 -22.002  0.00  0.00     0.019 A 
ATOM     19  C   UNL d   1      32.992  21.046 -22.093  0.00  0.00     0.002 A 
ATOM     20  C   UNL d   1      32.922  21.564 -21.462  0.00  0.00     0.000 A 
ATOM     21  C   UNL d   1      33.019  21.248 -20.671  0.00  0.00     0.000 A 
ATOM     22  C   UNL d   1      33.178  20.445 -20.585  0.00  0.00     0.000 A 
ATOM     23  C   UNL d   1      33.241  19.964 -21.211  0.00  0.00     0.002 A 
ENDBRANCH  17  18
ENDBRANCH  15  17
ENDBRANCH  13  14
ENDBRANCH   1  13
TORSDOF 5
ENDMDL
MODEL 4
REMARK VINA RESULT:      -1.8      2.211      6.101
REMARK  5 active torsions:
REMARK  status: ('A' for Active; 'I' for Inactive)
REMARK    1  A    between atoms: C_6  and  N_1 
REMARK    2  A    between atoms: C_7  and  C_6 
REMARK    3  A    between atoms: C_8  and  C_7 
REMARK       I    between atoms: N_11  and  C_8 
REMARK    4  A    between atoms: C_13  and  N_11 
REMARK    5  A    between atoms: C_16  and  C_13 
ROOT
ATOM      1  C   UNL d   1      32.821  21.692 -21.373  0.00  0.00     0.091 C 
ENDROOT
BRANCH   1   2
ATOM      2  N   UNL d   1      32.907  20.950 -21.793  0.00  0.00    -0.240 N 
ATOM      3  C   UNL d   1      33.028  20.853 -22.582  0.00  0.00     0.267 A 
ATOM      4  C   UNL d   1      33.074  20.062 -22.723  0.00  0.00     0.061 A 
ATOM      5  O   UNL d   1      33.089  21.525 -23.118  0.00  0.00    -0.267 OA
ATOM      6  C   UNL d   1      33.197  19.634 -23.454  0.00  0.00     0.005 A 
ATOM      7  C   UNL d   1      32.982  19.661 -22.033  0.00  0.00     0.061 A 
ATOM      8  C   UNL d   1      33.220  18.794 -23.440  0.00  0.00     0.000 A 
ATOM      9  C   UNL d   1      33.128  18.393 -22.750  0.00  0.00     0.000 A 
ATOM     10  C   UNL d   1      33.007  18.805 -22.027  0.00  0.00     0.005 A 
ATOM     11  C   UNL d   1      32.875  20.184 -21.431  0.00  0.00     0.267 A 
ATOM     12  O   UNL d   1      32.753  20.055 -20.587  0.00  0.00    -0.267 OA
ENDBRANCH   1   2
BRANCH   1  13
ATOM     13  C   UNL d   1      33.132  21.751 -20.647  0.00  0.00     0.082 C 
BRANCH  13  14
ATOM     14  C   UNL d   1      33.120  22.516 -20.261  0.00  0.00     0.281 C 
ATOM     15  N   UNL d   1      33.047  22.521 -19.401  0.00  0.00    -0.206 NA
ATOM     16  O   UNL d   1      33.178  23.181 -20.703  0.00  0.00    -0.265 OA
BRANCH  15  17
ATOM     17  C   UNL d   1      33.035  23.286 -19.015  0.00  0.00     0.102 C 
BRANCH  17  18
ATOM     18  C   UNL d   1      32.758  23.320 -18.237  0.00  0.00     0.019 A 
ATOM     19  C   UNL d   1      32.077  23.662 -18.038  0.00  0.00     0.002 A 
ATOM     20  C   UNL d   1      31.805  23.693 -17.266  0.00  0.00     0.000 A 
ATOM     21  C   UNL d   1      32.288  23.336 -16.655  0.00  0.00     0.000 A 
ATOM     22  C   UNL d   1      32.999  22.981 -16.873  0.00  0.00     0.000 A 
ATOM     23  C   UNL d   1      33.241  22.963 -17.626  0.00  0.00     0.002 A 
ENDBRANCH  17  18
ENDBRANCH  15  17
ENDBRANCH  13  14
ENDBRANCH   1  13
TORSDOF 5
ENDMDL
MODEL 5
REMARK VINA RESULT:      -1.6      1.292      5.325
REMARK  5 active torsions:
REMARK  status: ('A' for Active; 'I' for Inactive)
REMARK    1  A    between atoms: C_6  and  N_1 
REMARK    2  A    between atoms: C_7  and  C_6 
REMARK    3  A    between atoms: C_8  and  C_7 
REMARK       I    between atoms: N_11  and  C_8 
REMARK    4  A    between atoms: C_13  and  N_11 
REMARK    5  A    between atoms: C_16  and  C_13 
ROOT
ATOM      1  C   UNL d   1      32.521  19.136 -23.453  0.00  0.00     0.091 C 
ENDROOT
BRANCH   1   2
ATOM      2  N   UNL d   1      32.483  18.324 -23.724  0.00  0.00    -0.240 N 
ATOM      3  C   UNL d   1      32.228  18.067 -24.441  0.00  0.00     0.267 A 
ATOM      4  C   UNL d   1      32.292  17.264 -24.446  0.00  0.00     0.061 A 
ATOM      5  O   UNL d   1      31.949  18.612 -25.047  0.00  0.00    -0.267 OA
ATOM      6  C   UNL d   1      32.103  16.695 -25.056  0.00  0.00     0.005 A 
ATOM      7  C   UNL d   1      32.585  17.015 -23.740  0.00  0.00     0.061 A 
ATOM      8  C   UNL d   1      32.227  15.877 -24.909  0.00  0.00     0.000 A 
ATOM      9  C   UNL d   1      32.520  15.628 -24.203  0.00  0.00     0.000 A 
ATOM     10  C   UNL d   1      32.709  16.180 -23.597  0.00  0.00     0.005 A 
ATOM     11  C   UNL d   1      32.716  17.651 -23.264  0.00  0.00     0.267 A 
ATOM     12  O   UNL d   1      33.023  17.699 -22.460  0.00  0.00    -0.267 OA
ENDBRANCH   1   2
BRANCH   1  13
ATOM     13  C   UNL d   1      33.213  19.517 -23.503  0.00  0.00     0.082 C 
BRANCH  13  14
ATOM     14  C   UNL d   1      33.221  20.366 -23.381  0.00  0.00     0.281 C 
ATOM     15  N   UNL d   1      33.231  20.646 -22.565  0.00  0.00    -0.206 NA
ATOM     16  O   UNL d   1      33.218  20.854 -24.015  0.00  0.00    -0.265 OA
BRANCH  15  17
ATOM     17  C   UNL d   1      33.238  21.494 -22.443  0.00  0.00     0.102 C 
BRANCH  17  18
ATOM     18  C   UNL d   1      33.046  21.775 -21.690  0.00  0.00     0.019 A 
ATOM     19  C   UNL d   1      33.237  21.396 -21.028  0.00  0.00     0.002 A 
ATOM     20  C   UNL d   1      33.045  21.678 -20.283  0.00  0.00     0.000 A 
ATOM     21  C   UNL d   1      32.618  22.419 -20.232  0.00  0.00     0.000 A 
ATOM     22  C   UNL d   1      32.422  22.809 -20.931  0.00  0.00     0.000 A 
ATOM     23  C   UNL d   1      32.619  22.517 -21.639  0.00  0.00     0.002 A 
ENDBRANCH  17  18
ENDBRANCH  15  17
ENDBRANCH  13  14
ENDBRANCH   1  13
TORSDOF 5
ENDMDL
