MODEL 1
REMARK VINA RESULT:      -6.1      0.000      0.000
REMARK  4 active torsions:
REMARK  status: ('A' for Active; 'I' for Inactive)
REMARK    1  A    between atoms: N_8  and  C_2 
REMARK    2  A    between atoms: C_9  and  C_3 
REMARK       I    between atoms: C_6  and  N_7 
REMARK    3  A    between atoms: C_11  and  C_6 
REMARK    4  A    between atoms: N_7  and  N_8 
ROOT
ATOM      1  N   UNL d   1     -41.868-122.721 -51.661  0.00  0.00    -0.221 NA
ATOM      2  C   UNL d   1     -41.540-122.231 -52.223  0.00  0.00     0.186 A 
ATOM      3  C   UNL d   1     -41.677-122.415 -50.937  0.00  0.00     0.090 A 
ATOM      4  S   UNL d   1     -41.150-121.629 -51.848  0.00  0.00    -0.047 SA
ATOM      5  C   UNL d   1     -41.236-121.743 -51.048  0.00  0.00     0.058 A 
ENDROOT
BRANCH   2   6
ATOM      6  N   UNL d   1     -41.594-122.330 -53.056  0.00  0.00    -0.275 N 
ATOM      7  H   UNL d   1     -41.943-121.738 -53.509  0.00  0.00     0.189 HD
BRANCH   6   8
ATOM      8  N   UNL d   1     -41.297-123.016 -53.409  0.00  0.00    -0.264 N 
ATOM      9  C   UNL d   1     -41.420-123.131 -54.219  0.00  0.00     0.271 C 
ATOM     10  O   UNL d   1     -41.123-123.817 -54.572  0.00  0.00    -0.266 OA
ATOM     11  H   UNL d   1     -40.893-123.558 -52.951  0.00  0.00     0.190 HD
BRANCH   9  12
ATOM     12  C   UNL d   1     -41.824-122.584 -54.667  0.00  0.00     0.057 A 
ATOM     13  C   UNL d   1     -41.378-122.107 -55.177  0.00  0.00     0.005 A 
ATOM     14  C   UNL d   1     -41.760-121.541 -55.645  0.00  0.00     0.000 A 
ATOM     15  C   UNL d   1     -42.575-121.445 -55.612  0.00  0.00     0.000 A 
ATOM     16  C   UNL d   1     -43.021-121.935 -55.089  0.00  0.00     0.000 A 
ATOM     17  C   UNL d   1     -42.642-122.498 -54.624  0.00  0.00     0.005 A 
ENDBRANCH   9  12
ENDBRANCH   6   8
ENDBRANCH   2   6
BRANCH   3  18
ATOM     18  C   UNL d   1     -41.897-122.736 -50.211  0.00  0.00     0.018 A 
ATOM     19  C   UNL d   1     -42.621-122.523 -49.875  0.00  0.00     0.002 A 
ATOM     20  C   UNL d   1     -42.846-122.840 -49.150  0.00  0.00     0.000 A 
ATOM     21  C   UNL d   1     -42.342-123.374 -48.759  0.00  0.00     0.000 A 
ATOM     22  C   UNL d   1     -41.618-123.587 -49.096  0.00  0.00     0.000 A 
ATOM     23  C   UNL d   1     -42.559-123.698 -48.032  0.00  0.00     0.000 C 
ATOM     24  C   UNL d   1     -41.395-123.265 -49.826  0.00  0.00     0.002 A 
ENDBRANCH   3  18
TORSDOF 4
ENDMDL
MODEL 2
REMARK VINA RESULT:      -5.6      1.476      5.147
REMARK  4 active torsions:
REMARK  status: ('A' for Active; 'I' for Inactive)
REMARK    1  A    between atoms: N_8  and  C_2 
REMARK    2  A    between atoms: C_9  and  C_3 
REMARK       I    between atoms: C_6  and  N_7 
REMARK    3  A    between atoms: C_11  and  C_6 
REMARK    4  A    between atoms: N_7  and  N_8 
ROOT
ATOM      1  N   UNL d   1     -41.955-122.587 -51.816  0.00  0.00    -0.221 NA
ATOM      2  C   UNL d   1     -41.701-122.346 -51.081  0.00  0.00     0.186 A 
ATOM      3  C   UNL d   1     -41.595-122.110 -52.361  0.00  0.00     0.090 A 
ATOM      4  S   UNL d   1     -41.189-121.725 -51.173  0.00  0.00    -0.047 SA
ATOM      5  C   UNL d   1     -41.123-121.579 -51.969  0.00  0.00     0.058 A 
ENDROOT
BRANCH   2   6
ATOM      6  N   UNL d   1     -41.929-122.681 -50.345  0.00  0.00    -0.275 N 
ATOM      7  H   UNL d   1     -41.423-122.613 -49.699  0.00  0.00     0.189 HD
BRANCH   6   8
ATOM      8  N   UNL d   1     -42.654-123.072 -50.278  0.00  0.00    -0.264 N 
ATOM      9  C   UNL d   1     -42.850-123.426 -49.556  0.00  0.00     0.271 C 
ATOM     10  O   UNL d   1     -43.576-123.817 -49.490  0.00  0.00    -0.266 OA
ATOM     11  H   UNL d   1     -43.154-123.099 -50.923  0.00  0.00     0.190 HD
BRANCH   9  12
ATOM     12  C   UNL d   1     -42.345-123.393 -48.919  0.00  0.00     0.057 A 
ATOM     13  C   UNL d   1     -42.569-122.916 -48.279  0.00  0.00     0.005 A 
ATOM     14  C   UNL d   1     -42.076-122.862 -47.617  0.00  0.00     0.000 A 
ATOM     15  C   UNL d   1     -41.366-123.274 -47.583  0.00  0.00     0.000 A 
ATOM     16  C   UNL d   1     -41.146-123.757 -48.239  0.00  0.00     0.000 A 
ATOM     17  C   UNL d   1     -41.635-123.812 -48.898  0.00  0.00     0.005 A 
ENDBRANCH   9  12
ENDBRANCH   6   8
ENDBRANCH   2   6
BRANCH   3  18
ATOM     18  C   UNL d   1     -41.694-122.161 -53.177  0.00  0.00     0.018 A 
ATOM     19  C   UNL d   1     -42.175-121.610 -53.563  0.00  0.00     0.002 A 
ATOM     20  C   UNL d   1     -42.278-121.655 -54.378  0.00  0.00     0.000 A 
ATOM     21  C   UNL d   1     -41.897-122.255 -54.810  0.00  0.00     0.000 A 
ATOM     22  C   UNL d   1     -41.416-122.805 -54.424  0.00  0.00     0.000 A 
ATOM     23  C   UNL d   1     -41.994-122.309 -55.627  0.00  0.00     0.000 C 
ATOM     24  C   UNL d   1     -41.315-122.757 -53.602  0.00  0.00     0.002 A 
ENDBRANCH   3  18
TORSDOF 4
ENDMDL
