MODEL 1
REMARK VINA RESULT:      42.1      0.000      0.000
REMARK  4 active torsions:
REMARK  status: ('A' for Active; 'I' for Inactive)
REMARK       I    between atoms: C_2  and  N_1 
REMARK    1  A    between atoms: C_3  and  N_1 
REMARK    2  A    between atoms: C_5  and  C_2 
REMARK    3  A    between atoms: C_4  and  C_3 
REMARK    4  A    between atoms: N_6  and  C_3 
ROOT
ATOM      1  C   UNL d   1      60.086  49.490  50.676  0.00  0.00     0.170 C 
ENDROOT
BRANCH   1   2
ATOM      2  N   UNL d   1      59.282  49.706  50.652  0.00  0.00    -0.191 NA
ATOM      3  C   UNL d   1      58.692  49.099  50.481  0.00  0.00     0.281 C 
ATOM      4  O   UNL d   1      58.907  48.317  50.342  0.00  0.00    -0.265 OA
BRANCH   3   5
ATOM      5  C   UNL d   1      57.886  49.294  50.453  0.00  0.00     0.069 A 
ATOM      6  C   UNL d   1      57.556  49.483  49.727  0.00  0.00     0.062 A 
ATOM      7 CL   UNL d   1      57.876  49.509  49.052  0.00  0.00    -0.082 Cl
ATOM      8  C   UNL d   1      56.725  49.689  49.668  0.00  0.00     0.012 A 
ATOM      9  C   UNL d   1      56.263  49.697  50.344  0.00  0.00     0.001 A 
ATOM     10  C   UNL d   1      56.606  49.503  51.086  0.00  0.00     0.000 A 
ATOM     11  C   UNL d   1      57.421  49.302  51.135  0.00  0.00     0.006 A 
ENDBRANCH   3   5
ENDBRANCH   1   2
BRANCH   1  12
ATOM     12  C   UNL d   1      60.480  49.332  49.956  0.00  0.00     0.249 C 
ATOM     13 CL   UNL d   1      60.829  49.191  49.250  0.00  0.00    -0.075 Cl
ATOM     14 CL   UNL d   1      61.316  49.009  49.958  0.00  0.00    -0.075 Cl
ATOM     15 CL   UNL d   1      60.069  49.485  49.321  0.00  0.00    -0.075 Cl
ENDBRANCH   1  12
BRANCH   1  16
ATOM     16  N   UNL d   1      60.486  49.432  51.386  0.00  0.00    -0.286 N 
ATOM     17  C   UNL d   1      61.224  49.118  51.407  0.00  0.00     0.108 A 
ATOM     18  C   UNL d   1      61.627  49.060  52.123  0.00  0.00     0.142 A 
ATOM     19  O   UNL d   1      61.312  49.306  52.814  0.00  0.00    -0.300 OA
ATOM     20  C   UNL d   1      60.542  49.635  52.798  0.00  0.00     0.142 A 
ATOM     21  C   UNL d   1      60.138  49.694  52.082  0.00  0.00     0.108 A 
ENDBRANCH   1  16
TORSDOF 4
ENDMDL
