MODEL 1
REMARK VINA RESULT:      -4.6      0.000      0.000
REMARK  7 active torsions:
REMARK  status: ('A' for Active; 'I' for Inactive)
REMARK    1  A    between atoms: C_3  and  S_1 
REMARK    2  A    between atoms: N_8  and  S_1 
REMARK    3  A    between atoms: C_4  and  N_2 
REMARK    4  A    between atoms: N_5  and  C_19 
REMARK    5  A    between atoms: C_14  and  N_8 
REMARK    6  A    between atoms: O_21  and  C_11 
REMARK    7  A    between atoms: C_19  and  C_14 
ROOT
ATOM      1  N   UNL d   1      56.720   0.073  32.286  0.00  0.00    -0.300 N 
ATOM      2  N   UNL d   1      57.563  -0.233  30.896  0.00  0.00    -0.299 N 
ATOM      3  C   UNL d   1      56.676  -0.669  31.933  0.00  0.00     0.100 A 
ATOM      4  C   UNL d   1      57.188   0.669  31.944  0.00  0.00     0.100 A 
ATOM      5  C   UNL d   1      57.096  -0.822  31.240  0.00  0.00     0.100 A 
ATOM      6  C   UNL d   1      57.606   0.517  31.254  0.00  0.00     0.100 A 
ENDROOT
BRANCH   2   7
ATOM      7  C   UNL d   1      57.983  -0.385  30.203  0.00  0.00     0.102 C 
BRANCH   7   8
ATOM      8  C   UNL d   1      58.251  -1.150  30.033  0.00  0.00     0.131 C 
BRANCH   8   9
ATOM      9  N   UNL d   1      58.515  -1.340  29.285  0.00  0.00    -0.155 NA
BRANCH   9  10
ATOM     10  S   UNL d   1      59.034  -1.970  29.177  0.00  0.00     0.285 S 
ATOM     11  O   UNL d   1      59.596  -1.449  28.865  0.00  0.00    -0.198 OA
ATOM     12  O   UNL d   1      58.472  -2.491  29.489  0.00  0.00    -0.198 OA
BRANCH  10  13
ATOM     13  C   UNL d   1      59.560  -2.593  29.066  0.00  0.00     0.105 A 
ATOM     14  C   UNL d   1      59.276  -3.364  28.996  0.00  0.00     0.013 A 
ATOM     15  C   UNL d   1      59.796  -3.994  28.884  0.00  0.00     0.001 A 
ATOM     16  C   UNL d   1      60.610  -3.843  28.843  0.00  0.00     0.000 A 
ATOM     17  C   UNL d   1      60.890  -3.070  28.914  0.00  0.00     0.001 A 
ATOM     18  C   UNL d   1      61.126  -4.470  28.732  0.00  0.00     0.000 C 
ATOM     19  C   UNL d   1      60.359  -2.449  29.025  0.00  0.00     0.013 A 
ENDBRANCH  10  13
ENDBRANCH   9  10
ENDBRANCH   8   9
ENDBRANCH   7   8
ENDBRANCH   2   7
BRANCH   1  20
ATOM     20  C   UNL d   1      56.299   0.226  32.980  0.00  0.00     0.086 A 
ATOM     21  C   UNL d   1      56.684   0.528  33.648  0.00  0.00     0.110 A 
ATOM     22  C   UNL d   1      56.262   0.681  34.344  0.00  0.00     0.026 A 
ATOM     23  C   UNL d   1      55.459   0.531  34.366  0.00  0.00     0.002 A 
ATOM     24  C   UNL d   1      55.063   0.228  33.703  0.00  0.00     0.002 A 
ATOM     25  C   UNL d   1      55.480   0.077  33.016  0.00  0.00     0.019 A 
BRANCH  21  26
ATOM     26  O   UNL d   1      57.509   0.678  33.613  0.00  0.00    -0.327 OA
ATOM     27  C   UNL d   1      57.948   0.675  34.317  0.00  0.00     0.181 C 
ENDBRANCH  21  26
ENDBRANCH   1  20
TORSDOF 7
ENDMDL
MODEL 2
REMARK VINA RESULT:      -2.4      1.066      1.476
REMARK  7 active torsions:
REMARK  status: ('A' for Active; 'I' for Inactive)
REMARK    1  A    between atoms: C_3  and  S_1 
REMARK    2  A    between atoms: N_8  and  S_1 
REMARK    3  A    between atoms: C_4  and  N_2 
REMARK    4  A    between atoms: N_5  and  C_19 
REMARK    5  A    between atoms: C_14  and  N_8 
REMARK    6  A    between atoms: O_21  and  C_11 
REMARK    7  A    between atoms: C_19  and  C_14 
ROOT
ATOM      1  N   UNL d   1      56.730   0.220  32.533  0.00  0.00    -0.300 N 
ATOM      2  N   UNL d   1      57.813   0.432  31.301  0.00  0.00    -0.299 N 
ATOM      3  C   UNL d   1      56.473   0.205  31.751  0.00  0.00     0.100 A 
ATOM      4  C   UNL d   1      57.535   0.342  32.703  0.00  0.00     0.100 A 
ATOM      5  C   UNL d   1      57.013   0.311  31.136  0.00  0.00     0.100 A 
ATOM      6  C   UNL d   1      58.072   0.447  32.092  0.00  0.00     0.100 A 
ENDROOT
BRANCH   2   7
ATOM      7  C   UNL d   1      58.353   0.538  30.687  0.00  0.00     0.102 C 
BRANCH   7   8
ATOM      8  C   UNL d   1      58.469  -0.055  30.121  0.00  0.00     0.131 C 
BRANCH   8   9
ATOM      9  N   UNL d   1      59.078  -0.000  29.580  0.00  0.00    -0.155 NA
BRANCH   9  10
ATOM     10  S   UNL d   1      59.496  -0.674  29.360  0.00  0.00     0.285 S 
ATOM     11  O   UNL d   1      58.826  -0.959  28.968  0.00  0.00    -0.198 OA
ATOM     12  O   UNL d   1      60.167  -0.389  29.751  0.00  0.00    -0.198 OA
BRANCH  10  13
ATOM     13  C   UNL d   1      59.906  -1.351  29.134  0.00  0.00     0.105 A 
ATOM     14  C   UNL d   1      59.492  -2.037  28.939  0.00  0.00     0.013 A 
ATOM     15  C   UNL d   1      59.894  -2.720  28.712  0.00  0.00     0.001 A 
ATOM     16  C   UNL d   1      60.723  -2.709  28.682  0.00  0.00     0.000 A 
ATOM     17  C   UNL d   1      61.133  -2.020  28.878  0.00  0.00     0.001 A 
ATOM     18  C   UNL d   1      61.122  -3.388  28.456  0.00  0.00     0.000 C 
ATOM     19  C   UNL d   1      60.718  -1.345  29.103  0.00  0.00     0.013 A 
ENDBRANCH  10  13
ENDBRANCH   9  10
ENDBRANCH   8   9
ENDBRANCH   7   8
ENDBRANCH   2   7
BRANCH   1  20
ATOM     20  C   UNL d   1      56.190   0.114  33.147  0.00  0.00     0.086 A 
ATOM     21  C   UNL d   1      55.702  -0.555  33.169  0.00  0.00     0.110 A 
ATOM     22  C   UNL d   1      55.159  -0.661  33.786  0.00  0.00     0.026 A 
ATOM     23  C   UNL d   1      55.109  -0.097  34.376  0.00  0.00     0.002 A 
ATOM     24  C   UNL d   1      55.593   0.576  34.365  0.00  0.00     0.002 A 
ATOM     25  C   UNL d   1      56.128   0.681  33.756  0.00  0.00     0.019 A 
BRANCH  21  26
ATOM     26  O   UNL d   1      55.762  -1.126  32.558  0.00  0.00    -0.327 OA
ATOM     27  C   UNL d   1      55.912  -1.916  32.760  0.00  0.00     0.181 C 
ENDBRANCH  21  26
ENDBRANCH   1  20
TORSDOF 7
ENDMDL
