MODEL 1
REMARK VINA RESULT:      -5.5      0.000      0.000
REMARK  4 active torsions:
REMARK  status: ('A' for Active; 'I' for Inactive)
REMARK    1  A    between atoms: C_2  and  C_1 
REMARK       I    between atoms: N_9  and  C_2 
REMARK    2  A    between atoms: C_16  and  N_9 
REMARK    3  A    between atoms: C_13  and  C_16 
REMARK    4  A    between atoms: O_17  and  C_13 
ROOT
ATOM      1  C   UNL d   1     -41.489-122.584 -53.535  0.00  0.00     0.073 A 
ATOM      2  C   UNL d   1     -42.216-121.559 -54.095  0.00  0.00     0.001 A 
ATOM      3  C   UNL d   1     -41.547-123.128 -54.635  0.00  0.00     0.001 A 
ATOM      4  C   UNL d   1     -41.872-122.651 -54.853  0.00  0.00     0.001 A 
ATOM      5  C   UNL d   1     -41.231-123.408 -54.112  0.00  0.00     0.009 A 
ATOM      6  C   UNL d   1     -41.846-121.878 -53.468  0.00  0.00     0.009 A 
ATOM      7  C   UNL d   1     -41.501-122.974 -54.230  0.00  0.00     0.009 A 
ATOM      8  C   UNL d   1     -41.674-123.320 -55.358  0.00  0.00     0.000 A 
ATOM      9  C   UNL d   1     -42.020-122.192 -54.546  0.00  0.00     0.000 A 
ATOM     10  C   UNL d   1     -42.228-121.946 -54.786  0.00  0.00     0.000 A 
ATOM     11  C   UNL d   1     -42.311-122.070 -55.256  0.00  0.00     0.000 C 
ATOM     12  C   UNL d   1     -41.123-123.817 -54.462  0.00  0.00     0.000 C 
ATOM     13  C   UNL d   1     -42.518-120.832 -53.818  0.00  0.00     0.000 C 
ENDROOT
BRANCH   1  14
ATOM     14  C   UNL d   1     -41.416-122.267 -52.772  0.00  0.00     0.255 C 
ATOM     15  N   UNL d   1     -41.641-122.723 -52.108  0.00  0.00    -0.205 NA
ATOM     16  O   UNL d   1     -41.123-121.503 -52.659  0.00  0.00    -0.270 OA
BRANCH  15  17
ATOM     17  C   UNL d   1     -41.568-122.407 -51.348  0.00  0.00     0.170 C 
BRANCH  17  18
ATOM     18  C   UNL d   1     -41.871-122.813 -50.698  0.00  0.00     0.316 C 
ATOM     19  O   UNL d   1     -41.438-123.422 -50.348  0.00  0.00    -0.257 OA
BRANCH  18  20
ATOM     20  O   UNL d   1     -42.616-122.605 -50.395  0.00  0.00    -0.295 OA
ATOM     21  C   UNL d   1     -42.847-122.867 -49.647  0.00  0.00     0.185 C 
ENDBRANCH  18  20
ENDBRANCH  17  18
ENDBRANCH  15  17
ENDBRANCH   1  14
TORSDOF 4
ENDMDL
MODEL 2
REMARK VINA RESULT:      -4.9      1.141      4.381
REMARK  4 active torsions:
REMARK  status: ('A' for Active; 'I' for Inactive)
REMARK    1  A    between atoms: C_2  and  C_1 
REMARK       I    between atoms: N_9  and  C_2 
REMARK    2  A    between atoms: C_16  and  N_9 
REMARK    3  A    between atoms: C_13  and  C_16 
REMARK    4  A    between atoms: O_17  and  C_13 
ROOT
ATOM      1  C   UNL d   1     -41.769-122.833 -50.129  0.00  0.00     0.073 A 
ATOM      2  C   UNL d   1     -43.079-122.457 -49.948  0.00  0.00     0.001 A 
ATOM      3  C   UNL d   1     -41.887-123.477 -49.090  0.00  0.00     0.001 A 
ATOM      4  C   UNL d   1     -42.472-123.289 -49.040  0.00  0.00     0.001 A 
ATOM      5  C   UNL d   1     -41.313-123.462 -49.440  0.00  0.00     0.009 A 
ATOM      6  C   UNL d   1     -42.407-122.430 -50.373  0.00  0.00     0.009 A 
ATOM      7  C   UNL d   1     -41.798-123.265 -49.460  0.00  0.00     0.009 A 
ATOM      8  C   UNL d   1     -42.124-123.811 -48.450  0.00  0.00     0.000 A 
ATOM      9  C   UNL d   1     -42.734-122.943 -49.413  0.00  0.00     0.000 A 
ATOM     10  C   UNL d   1     -43.110-122.886 -49.284  0.00  0.00     0.000 A 
ATOM     11  C   UNL d   1     -43.264-123.103 -48.868  0.00  0.00     0.000 C 
ATOM     12  C   UNL d   1     -41.124-123.795 -49.046  0.00  0.00     0.000 C 
ATOM     13  C   UNL d   1     -43.616-121.976 -50.368  0.00  0.00     0.000 C 
ENDROOT
BRANCH   1  14
ATOM     14  C   UNL d   1     -41.628-122.420 -50.834  0.00  0.00     0.255 C 
ATOM     15  N   UNL d   1     -41.499-122.839 -51.546  0.00  0.00    -0.205 NA
ATOM     16  O   UNL d   1     -41.612-121.593 -50.841  0.00  0.00    -0.270 OA
BRANCH  15  17
ATOM     17  C   UNL d   1     -41.359-122.426 -52.247  0.00  0.00     0.170 C 
BRANCH  17  18
ATOM     18  C   UNL d   1     -41.234-122.834 -52.952  0.00  0.00     0.316 C 
ATOM     19  O   UNL d   1     -41.216-123.659 -52.959  0.00  0.00    -0.257 OA
BRANCH  18  20
ATOM     20  O   UNL d   1     -41.126-122.409 -53.658  0.00  0.00    -0.295 OA
ATOM     21  C   UNL d   1     -41.453-122.688 -54.363  0.00  0.00     0.185 C 
ENDBRANCH  18  20
ENDBRANCH  17  18
ENDBRANCH  15  17
ENDBRANCH   1  14
TORSDOF 4
ENDMDL
MODEL 3
REMARK VINA RESULT:      -3.8      1.446      3.604
REMARK  4 active torsions:
REMARK  status: ('A' for Active; 'I' for Inactive)
REMARK    1  A    between atoms: C_2  and  C_1 
REMARK       I    between atoms: N_9  and  C_2 
REMARK    2  A    between atoms: C_16  and  N_9 
REMARK    3  A    between atoms: C_13  and  C_16 
REMARK    4  A    between atoms: O_17  and  C_13 
ROOT
ATOM      1  C   UNL d   1     -41.324-122.408 -52.110  0.00  0.00     0.073 A 
ATOM      2  C   UNL d   1     -41.375-121.295 -51.304  0.00  0.00     0.001 A 
ATOM      3  C   UNL d   1     -41.194-123.060 -51.077  0.00  0.00     0.001 A 
ATOM      4  C   UNL d   1     -41.221-122.540 -50.746  0.00  0.00     0.001 A 
ATOM      5  C   UNL d   1     -41.207-123.348 -51.684  0.00  0.00     0.009 A 
ATOM      6  C   UNL d   1     -41.393-121.622 -52.029  0.00  0.00     0.009 A 
ATOM      7  C   UNL d   1     -41.238-122.872 -51.467  0.00  0.00     0.009 A 
ATOM      8  C   UNL d   1     -41.123-123.304 -50.361  0.00  0.00     0.000 A 
ATOM      9  C   UNL d   1     -41.285-122.017 -50.969  0.00  0.00     0.000 A 
ATOM     10  C   UNL d   1     -41.290-121.754 -50.665  0.00  0.00     0.000 A 
ATOM     11  C   UNL d   1     -41.244-121.912 -50.200  0.00  0.00     0.000 C 
ATOM     12  C   UNL d   1     -41.145-123.817 -51.406  0.00  0.00     0.000 C 
ATOM     13  C   UNL d   1     -41.461-120.475 -51.437  0.00  0.00     0.000 C 
ENDROOT
BRANCH   1  14
ATOM     14  C   UNL d   1     -41.409-122.024 -52.840  0.00  0.00     0.255 C 
ATOM     15  N   UNL d   1     -41.787-122.414 -53.476  0.00  0.00    -0.205 NA
ATOM     16  O   UNL d   1     -41.123-121.256 -52.948  0.00  0.00    -0.270 OA
BRANCH  15  17
ATOM     17  C   UNL d   1     -41.870-122.031 -54.202  0.00  0.00     0.170 C 
BRANCH  17  18
ATOM     18  C   UNL d   1     -42.385-122.329 -54.774  0.00  0.00     0.316 C 
ATOM     19  O   UNL d   1     -42.559-123.136 -54.797  0.00  0.00    -0.257 OA
BRANCH  18  20
ATOM     20  O   UNL d   1     -42.727-121.813 -55.327  0.00  0.00    -0.295 OA
ATOM     21  C   UNL d   1     -42.693-121.988 -56.133  0.00  0.00     0.185 C 
ENDBRANCH  18  20
ENDBRANCH  17  18
ENDBRANCH  15  17
ENDBRANCH   1  14
TORSDOF 4
ENDMDL
MODEL 4
REMARK VINA RESULT:      -2.8      1.052      4.478
REMARK  4 active torsions:
REMARK  status: ('A' for Active; 'I' for Inactive)
REMARK    1  A    between atoms: C_2  and  C_1 
REMARK       I    between atoms: N_9  and  C_2 
REMARK    2  A    between atoms: C_16  and  N_9 
REMARK    3  A    between atoms: C_13  and  C_16 
REMARK    4  A    between atoms: O_17  and  C_13 
ROOT
ATOM      1  C   UNL d   1     -42.479-122.463 -50.422  0.00  0.00     0.073 A 
ATOM      2  C   UNL d   1     -41.866-123.425 -49.654  0.00  0.00     0.001 A 
ATOM      3  C   UNL d   1     -43.443-122.582 -49.670  0.00  0.00     0.001 A 
ATOM      4  C   UNL d   1     -43.139-123.010 -49.348  0.00  0.00     0.001 A 
ATOM      5  C   UNL d   1     -43.442-122.152 -50.187  0.00  0.00     0.009 A 
ATOM      6  C   UNL d   1     -41.850-122.922 -50.269  0.00  0.00     0.009 A 
ATOM      7  C   UNL d   1     -43.128-122.506 -49.961  0.00  0.00     0.009 A 
ATOM      8  C   UNL d   1     -43.937-122.775 -49.126  0.00  0.00     0.000 A 
ATOM      9  C   UNL d   1     -42.609-123.190 -49.467  0.00  0.00     0.000 A 
ATOM     10  C   UNL d   1     -42.510-123.468 -49.195  0.00  0.00     0.000 A 
ATOM     11  C   UNL d   1     -42.830-123.594 -48.842  0.00  0.00     0.000 C 
ATOM     12  C   UNL d   1     -43.949-122.027 -50.018  0.00  0.00     0.000 C 
ATOM     13  C   UNL d   1     -41.123-123.805 -49.668  0.00  0.00     0.000 C 
ENDROOT
BRANCH   1  14
ATOM     14  C   UNL d   1     -41.862-122.339 -50.962  0.00  0.00     0.255 C 
ATOM     15  N   UNL d   1     -41.985-122.480 -51.777  0.00  0.00    -0.205 NA
ATOM     16  O   UNL d   1     -41.123-122.074 -50.703  0.00  0.00    -0.270 OA
BRANCH  15  17
ATOM     17  C   UNL d   1     -41.370-122.356 -52.313  0.00  0.00     0.170 C 
BRANCH  17  18
ATOM     18  C   UNL d   1     -41.508-122.409 -53.125  0.00  0.00     0.316 C 
ATOM     19  O   UNL d   1     -41.903-121.801 -53.521  0.00  0.00    -0.257 OA
BRANCH  18  20
ATOM     20  O   UNL d   1     -41.248-123.078 -53.542  0.00  0.00    -0.295 OA
ATOM     21  C   UNL d   1     -41.359-123.126 -54.359  0.00  0.00     0.185 C 
ENDBRANCH  18  20
ENDBRANCH  17  18
ENDBRANCH  15  17
ENDBRANCH   1  14
TORSDOF 4
ENDMDL
