MODEL 1
REMARK VINA RESULT:      -3.9      0.000      0.000
REMARK  6 active torsions:
REMARK  status: ('A' for Active; 'I' for Inactive)
REMARK    1  A    between atoms: N_2  and  S_1 
REMARK    2  A    between atoms: C_3  and  S_1 
REMARK    3  A    between atoms: C_4  and  C_9 
REMARK    4  A    between atoms: O_12  and  C_4 
REMARK    5  A    between atoms: C_19  and  O_12 
REMARK    6  A    between atoms: C_18  and  C_19 
ROOT
ATOM      1  C   UNL d   1      56.250  -0.562  32.651  0.00  0.00     0.104 A 
ATOM      2  C   UNL d   1      56.669  -0.058  32.138  0.00  0.00     0.018 A 
ATOM      3  C   UNL d   1      57.019  -0.374  31.458  0.00  0.00     0.064 A 
ATOM      4  C   UNL d   1      56.180  -1.367  32.490  0.00  0.00     0.013 A 
ATOM      5  C   UNL d   1      56.950  -1.185  31.294  0.00  0.00     0.005 A 
ATOM      6  C   UNL d   1      56.530  -1.684  31.811  0.00  0.00     0.001 A 
ENDROOT
BRANCH   3   7
ATOM      7  C   UNL d   1      57.440   0.114  30.936  0.00  0.00     0.300 C 
ATOM      8  O   UNL d   1      57.045   0.677  30.479  0.00  0.00    -0.259 OA
BRANCH   7   9
ATOM      9  O   UNL d   1      58.260   0.031  30.877  0.00  0.00    -0.271 OA
BRANCH   9  10
ATOM     10  C   UNL d   1      58.668   0.412  30.273  0.00  0.00     0.126 C 
BRANCH  10  11
ATOM     11  C   UNL d   1      59.310   0.047  29.924  0.00  0.00     0.027 A 
ATOM     12  C   UNL d   1      59.208  -0.658  29.532  0.00  0.00     0.028 A 
ATOM     13  C   UNL d   1      59.855  -1.024  29.182  0.00  0.00     0.119 A 
ATOM     14  O   UNL d   1      59.926  -1.732  28.752  0.00  0.00    -0.300 OA
ATOM     15  C   UNL d   1      60.600  -0.685  29.224  0.00  0.00     0.119 A 
ATOM     16  C   UNL d   1      60.718  -1.815  28.537  0.00  0.00     0.304 A 
ATOM     17  O   UNL d   1      61.133  -1.170  28.828  0.00  0.00    -0.300 OA
ATOM     18  C   UNL d   1      60.701   0.030  29.622  0.00  0.00     0.026 A 
ATOM     19  C   UNL d   1      60.054   0.396  29.972  0.00  0.00     0.004 A 
ENDBRANCH  10  11
ENDBRANCH   9  10
ENDBRANCH   7   9
ENDBRANCH   3   7
BRANCH   1  20
ATOM     20  S   UNL d   1      55.900  -0.246  33.331  0.00  0.00     0.271 S 
ATOM     21  O   UNL d   1      55.256  -0.768  33.286  0.00  0.00    -0.200 OA
ATOM     22  O   UNL d   1      56.544   0.279  33.379  0.00  0.00    -0.200 OA
BRANCH  20  23
ATOM     23  N   UNL d   1      55.538   0.063  34.012  0.00  0.00    -0.229 N 
ATOM     24  C   UNL d   1      54.710   0.151  34.035  0.00  0.00     0.092 A 
ATOM     25  C   UNL d   1      54.361   0.458  34.716  0.00  0.00     0.020 A 
ATOM     26  C   UNL d   1      54.813   0.680  35.374  0.00  0.00     0.003 A 
ATOM     27  C   UNL d   1      55.631   0.589  35.342  0.00  0.00     0.020 A 
ATOM     28  C   UNL d   1      55.994   0.281  34.661  0.00  0.00     0.092 A 
ENDBRANCH  20  23
ENDBRANCH   1  20
TORSDOF 6
ENDMDL
