MODEL 1
REMARK VINA RESULT:      -8.1      0.000      0.000
REMARK  4 active torsions:
REMARK  status: ('A' for Active; 'I' for Inactive)
REMARK    1  A    between atoms: C_8  and  C_1 
REMARK    2  A    between atoms: C_10  and  C_5 
REMARK    3  A    between atoms: N_9  and  C_10 
REMARK    4  A    between atoms: O_19  and  C_14 
ROOT
ATOM      1  C   UNL d   1      53.191  31.679  53.468  0.00  0.00     0.066 A 
ATOM      2  C   UNL d   1      53.402  32.183  54.086  0.00  0.00     0.200 A 
ATOM      3  C   UNL d   1      52.920  33.307  53.346  0.00  0.00     0.108 A 
ATOM      4  C   UNL d   1      53.271  32.989  54.034  0.00  0.00     0.062 A 
ATOM      5  C   UNL d   1      52.794  34.114  53.303  0.00  0.00     0.079 A 
ATOM      6  C   UNL d   1      52.840  31.997  52.781  0.00  0.00     0.126 A 
ATOM      7  O   UNL d   1      52.704  32.804  52.716  0.00  0.00    -0.305 OA
ATOM      8  C   UNL d   1      53.482  33.490  54.650  0.00  0.00     0.009 A 
ATOM      9  C   UNL d   1      53.001  34.617  53.912  0.00  0.00     0.199 A 
ATOM     10  O   UNL d   1      53.748  31.870  54.763  0.00  0.00    -0.286 OA
ATOM     11  C   UNL d   1      53.352  34.299  54.599  0.00  0.00     0.042 A 
ATOM     12  O   UNL d   1      52.874  35.415  53.866  0.00  0.00    -0.286 OA
ENDROOT
BRANCH   1  13
ATOM     13  C   UNL d   1      53.333  30.807  53.527  0.00  0.00     0.027 A 
ATOM     14  C   UNL d   1      52.650  30.252  53.555  0.00  0.00     0.094 A 
ATOM     15  C   UNL d   1      52.785  29.361  53.615  0.00  0.00     0.024 A 
ATOM     16  C   UNL d   1      53.625  29.055  53.646  0.00  0.00     0.002 A 
ATOM     17  C   UNL d   1      54.308  29.610  53.617  0.00  0.00     0.000 A 
ATOM     18  C   UNL d   1      54.176  30.491  53.558  0.00  0.00     0.002 A 
BRANCH  14  19
ATOM     19  O   UNL d   1      51.810  30.557  53.525  0.00  0.00    -0.328 OA
ATOM     20  C   UNL d   1      51.120  30.006  53.635  0.00  0.00     0.181 C 
ENDBRANCH  14  19
ENDBRANCH   1  13
BRANCH   5  21
ATOM     21  C   UNL d   1      52.445  34.430  52.619  0.00  0.00     0.085 C 
BRANCH  21  22
ATOM     22  N   UNL d   1      51.624  34.465  52.558  0.00  0.00    -0.302 N 
ATOM     23  C   UNL d   1      51.260  34.258  51.854  0.00  0.00     0.080 A 
ATOM     24  C   UNL d   1      50.446  34.292  51.794  0.00  0.00     0.019 A 
ATOM     25  C   UNL d   1      49.988  34.532  52.432  0.00  0.00     0.003 A 
ATOM     26  C   UNL d   1      50.351  34.738  53.135  0.00  0.00     0.019 A 
ATOM     27  C   UNL d   1      49.177  34.565  52.370  0.00  0.00     0.000 C 
ATOM     28  C   UNL d   1      51.159  34.707  53.202  0.00  0.00     0.080 A 
ENDBRANCH  21  22
ENDBRANCH   5  21
TORSDOF 4
ENDMDL
MODEL 2
REMARK VINA RESULT:      -7.4      1.240      4.473
REMARK  4 active torsions:
REMARK  status: ('A' for Active; 'I' for Inactive)
REMARK    1  A    between atoms: C_8  and  C_1 
REMARK    2  A    between atoms: C_10  and  C_5 
REMARK    3  A    between atoms: N_9  and  C_10 
REMARK    4  A    between atoms: O_19  and  C_14 
ROOT
ATOM      1  C   UNL d   1      51.027  34.024  52.956  0.00  0.00     0.066 A 
ATOM      2  C   UNL d   1      51.700  34.329  53.323  0.00  0.00     0.200 A 
ATOM      3  C   UNL d   1      52.435  33.154  52.974  0.00  0.00     0.108 A 
ATOM      4  C   UNL d   1      52.399  33.906  53.336  0.00  0.00     0.062 A 
ATOM      5  C   UNL d   1      53.138  32.739  52.992  0.00  0.00     0.079 A 
ATOM      6  C   UNL d   1      51.062  33.272  52.594  0.00  0.00     0.126 A 
ATOM      7  O   UNL d   1      51.758  32.838  52.600  0.00  0.00    -0.305 OA
ATOM      8  C   UNL d   1      53.068  34.211  53.702  0.00  0.00     0.009 A 
ATOM      9  C   UNL d   1      53.807  33.036  53.354  0.00  0.00     0.199 A 
ATOM     10  O   UNL d   1      51.665  35.069  53.680  0.00  0.00    -0.286 OA
ATOM     11  C   UNL d   1      53.771  33.787  53.716  0.00  0.00     0.042 A 
ATOM     12  O   UNL d   1      54.502  32.621  53.370  0.00  0.00    -0.286 OA
ENDROOT
BRANCH   1  13
ATOM     13  C   UNL d   1      50.270  34.484  52.943  0.00  0.00     0.027 A 
ATOM     14  C   UNL d   1      49.831  34.585  52.186  0.00  0.00     0.094 A 
ATOM     15  C   UNL d   1      49.059  35.053  52.163  0.00  0.00     0.024 A 
ATOM     16  C   UNL d   1      48.751  35.410  52.923  0.00  0.00     0.002 A 
ATOM     17  C   UNL d   1      49.190  35.309  53.680  0.00  0.00     0.000 A 
ATOM     18  C   UNL d   1      49.953  34.848  53.704  0.00  0.00     0.002 A 
BRANCH  14  19
ATOM     19  O   UNL d   1      50.139  34.228  51.427  0.00  0.00    -0.328 OA
ATOM     20  C   UNL d   1      49.670  34.284  50.673  0.00  0.00     0.181 C 
ENDBRANCH  14  19
ENDBRANCH   1  13
BRANCH   5  21
ATOM     21  C   UNL d   1      53.174  31.991  52.632  0.00  0.00     0.085 C 
BRANCH  21  22
ATOM     22  N   UNL d   1      53.145  31.311  53.096  0.00  0.00    -0.302 N 
ATOM     23  C   UNL d   1      52.568  30.748  52.956  0.00  0.00     0.080 A 
ATOM     24  C   UNL d   1      52.540  30.074  53.418  0.00  0.00     0.019 A 
ATOM     25  C   UNL d   1      53.085  29.955  54.021  0.00  0.00     0.003 A 
ATOM     26  C   UNL d   1      53.661  30.518  54.161  0.00  0.00     0.019 A 
ATOM     27  C   UNL d   1      53.055  29.283  54.479  0.00  0.00     0.000 C 
ATOM     28  C   UNL d   1      53.695  31.190  53.707  0.00  0.00     0.080 A 
ENDBRANCH  21  22
ENDBRANCH   5  21
TORSDOF 4
ENDMDL
MODEL 3
REMARK VINA RESULT:      -7.1      1.574      4.691
REMARK  4 active torsions:
REMARK  status: ('A' for Active; 'I' for Inactive)
REMARK    1  A    between atoms: C_8  and  C_1 
REMARK    2  A    between atoms: C_10  and  C_5 
REMARK    3  A    between atoms: N_9  and  C_10 
REMARK    4  A    between atoms: O_19  and  C_14 
ROOT
ATOM      1  C   UNL d   1      50.615  34.238  52.966  0.00  0.00     0.066 A 
ATOM      2  C   UNL d   1      50.580  33.425  53.101  0.00  0.00     0.200 A 
ATOM      3  C   UNL d   1      52.004  33.340  53.024  0.00  0.00     0.108 A 
ATOM      4  C   UNL d   1      51.261  32.974  53.131  0.00  0.00     0.062 A 
ATOM      5  C   UNL d   1      52.680  32.881  53.056  0.00  0.00     0.079 A 
ATOM      6  C   UNL d   1      51.358  34.603  52.859  0.00  0.00     0.126 A 
ATOM      7  O   UNL d   1      52.049  34.162  52.886  0.00  0.00    -0.305 OA
ATOM      8  C   UNL d   1      51.224  32.164  53.266  0.00  0.00     0.009 A 
ATOM      9  C   UNL d   1      52.650  32.076  53.189  0.00  0.00     0.199 A 
ATOM     10  O   UNL d   1      49.848  33.065  53.207  0.00  0.00    -0.286 OA
ATOM     11  C   UNL d   1      51.907  31.710  53.297  0.00  0.00     0.042 A 
ATOM     12  O   UNL d   1      53.321  31.625  53.220  0.00  0.00    -0.286 OA
ENDROOT
BRANCH   1  13
ATOM     13  C   UNL d   1      49.876  34.724  52.934  0.00  0.00     0.027 A 
ATOM     14  C   UNL d   1      49.452  34.829  52.169  0.00  0.00     0.094 A 
ATOM     15  C   UNL d   1      48.698  35.322  52.126  0.00  0.00     0.024 A 
ATOM     16  C   UNL d   1      48.390  35.702  52.875  0.00  0.00     0.002 A 
ATOM     17  C   UNL d   1      48.814  35.597  53.641  0.00  0.00     0.000 A 
ATOM     18  C   UNL d   1      49.559  35.110  53.684  0.00  0.00     0.002 A 
BRANCH  14  19
ATOM     19  O   UNL d   1      49.760  34.449  51.419  0.00  0.00    -0.328 OA
ATOM     20  C   UNL d   1      49.277  34.459  50.672  0.00  0.00     0.181 C 
ENDBRANCH  14  19
ENDBRANCH   1  13
BRANCH   5  21
ATOM     21  C   UNL d   1      53.419  33.244  52.949  0.00  0.00     0.085 C 
BRANCH  21  22
ATOM     22  N   UNL d   1      53.907  33.377  53.598  0.00  0.00    -0.302 N 
ATOM     23  C   UNL d   1      54.608  32.962  53.671  0.00  0.00     0.080 A 
ATOM     24  C   UNL d   1      55.092  33.095  54.317  0.00  0.00     0.019 A 
ATOM     25  C   UNL d   1      54.883  33.640  54.893  0.00  0.00     0.003 A 
ATOM     26  C   UNL d   1      54.182  34.056  54.820  0.00  0.00     0.019 A 
ATOM     27  C   UNL d   1      55.366  33.771  55.535  0.00  0.00     0.000 C 
ATOM     28  C   UNL d   1      53.696  33.929  54.182  0.00  0.00     0.080 A 
ENDBRANCH  21  22
ENDBRANCH   5  21
TORSDOF 4
ENDMDL
MODEL 4
REMARK VINA RESULT:      -6.9      1.448      3.067
REMARK  4 active torsions:
REMARK  status: ('A' for Active; 'I' for Inactive)
REMARK    1  A    between atoms: C_8  and  C_1 
REMARK    2  A    between atoms: C_10  and  C_5 
REMARK    3  A    between atoms: N_9  and  C_10 
REMARK    4  A    between atoms: O_19  and  C_14 
ROOT
ATOM      1  C   UNL d   1      52.309  33.751  53.657  0.00  0.00     0.066 A 
ATOM      2  C   UNL d   1      52.379  33.991  52.871  0.00  0.00     0.200 A 
ATOM      3  C   UNL d   1      50.956  34.037  52.747  0.00  0.00     0.108 A 
ATOM      4  C   UNL d   1      51.716  34.134  52.415  0.00  0.00     0.062 A 
ATOM      5  C   UNL d   1      50.300  34.182  52.283  0.00  0.00     0.079 A 
ATOM      6  C   UNL d   1      51.549  33.654  53.990  0.00  0.00     0.126 A 
ATOM      7  O   UNL d   1      50.876  33.794  53.542  0.00  0.00    -0.305 OA
ATOM      8  C   UNL d   1      51.788  34.373  51.632  0.00  0.00     0.009 A 
ATOM      9  C   UNL d   1      50.364  34.419  51.504  0.00  0.00     0.199 A 
ATOM     10  O   UNL d   1      53.127  34.087  52.544  0.00  0.00    -0.286 OA
ATOM     11  C   UNL d   1      51.123  34.517  51.172  0.00  0.00     0.042 A 
ATOM     12  O   UNL d   1      49.710  34.562  51.048  0.00  0.00    -0.286 OA
ENDROOT
BRANCH   1  13
ATOM     13  C   UNL d   1      53.029  33.597  54.150  0.00  0.00     0.027 A 
ATOM     14  C   UNL d   1      53.348  32.779  54.215  0.00  0.00     0.094 A 
ATOM     15  C   UNL d   1      54.082  32.612  54.715  0.00  0.00     0.024 A 
ATOM     16  C   UNL d   1      54.475  33.293  55.140  0.00  0.00     0.002 A 
ATOM     17  C   UNL d   1      54.156  34.112  55.074  0.00  0.00     0.000 A 
ATOM     18  C   UNL d   1      53.431  34.278  54.581  0.00  0.00     0.002 A 
BRANCH  14  19
ATOM     19  O   UNL d   1      52.955  32.098  53.790  0.00  0.00    -0.328 OA
ATOM     20  C   UNL d   1      53.316  31.285  53.799  0.00  0.00     0.181 C 
ENDBRANCH  14  19
ENDBRANCH   1  13
BRANCH   5  21
ATOM     21  C   UNL d   1      49.543  34.085  52.614  0.00  0.00     0.085 C 
BRANCH  21  22
ATOM     22  N   UNL d   1      49.069  34.744  52.750  0.00  0.00    -0.302 N 
ATOM     23  C   UNL d   1      48.470  34.929  52.224  0.00  0.00     0.080 A 
ATOM     24  C   UNL d   1      47.999  35.583  52.360  0.00  0.00     0.019 A 
ATOM     25  C   UNL d   1      48.121  36.058  53.018  0.00  0.00     0.003 A 
ATOM     26  C   UNL d   1      48.720  35.873  53.544  0.00  0.00     0.019 A 
ATOM     27  C   UNL d   1      47.651  36.709  53.152  0.00  0.00     0.000 C 
ATOM     28  C   UNL d   1      49.191  35.225  53.416  0.00  0.00     0.080 A 
ENDBRANCH  21  22
ENDBRANCH   5  21
TORSDOF 4
ENDMDL
MODEL 5
REMARK VINA RESULT:      -6.2      2.615      4.787
REMARK  4 active torsions:
REMARK  status: ('A' for Active; 'I' for Inactive)
REMARK    1  A    between atoms: C_8  and  C_1 
REMARK    2  A    between atoms: C_10  and  C_5 
REMARK    3  A    between atoms: N_9  and  C_10 
REMARK    4  A    between atoms: O_19  and  C_14 
ROOT
ATOM      1  C   UNL d   1      50.227  34.343  52.920  0.00  0.00     0.066 A 
ATOM      2  C   UNL d   1      49.830  34.322  52.197  0.00  0.00     0.200 A 
ATOM      3  C   UNL d   1      48.937  35.343  52.646  0.00  0.00     0.108 A 
ATOM      4  C   UNL d   1      49.192  34.813  52.054  0.00  0.00     0.062 A 
ATOM      5  C   UNL d   1      48.298  35.830  52.493  0.00  0.00     0.079 A 
ATOM      6  C   UNL d   1      49.972  34.874  53.512  0.00  0.00     0.126 A 
ATOM      7  O   UNL d   1      49.333  35.371  53.381  0.00  0.00    -0.305 OA
ATOM      8  C   UNL d   1      48.798  34.790  51.333  0.00  0.00     0.009 A 
ATOM      9  C   UNL d   1      47.902  35.813  51.780  0.00  0.00     0.199 A 
ATOM     10  O   UNL d   1      50.081  33.800  51.614  0.00  0.00    -0.286 OA
ATOM     11  C   UNL d   1      48.157  35.282  51.187  0.00  0.00     0.042 A 
ATOM     12  O   UNL d   1      47.270  36.297  51.633  0.00  0.00    -0.286 OA
ENDROOT
BRANCH   1  13
ATOM     13  C   UNL d   1      50.917  33.811  53.073  0.00  0.00     0.027 A 
ATOM     14  C   UNL d   1      51.715  34.157  53.217  0.00  0.00     0.094 A 
ATOM     15  C   UNL d   1      52.425  33.622  53.374  0.00  0.00     0.024 A 
ATOM     16  C   UNL d   1      52.302  32.736  53.380  0.00  0.00     0.002 A 
ATOM     17  C   UNL d   1      51.505  32.390  53.235  0.00  0.00     0.000 A 
ATOM     18  C   UNL d   1      50.802  32.917  53.080  0.00  0.00     0.002 A 
BRANCH  14  19
ATOM     19  O   UNL d   1      51.837  35.042  53.212  0.00  0.00    -0.328 OA
ATOM     20  C   UNL d   1      52.623  35.395  53.437  0.00  0.00     0.181 C 
ENDBRANCH  14  19
ENDBRANCH   1  13
BRANCH   5  21
ATOM     21  C   UNL d   1      48.044  36.358  53.083  0.00  0.00     0.085 C 
BRANCH  21  22
ATOM     22  N   UNL d   1      47.376  36.180  53.531  0.00  0.00    -0.302 N 
ATOM     23  C   UNL d   1      47.439  36.109  54.343  0.00  0.00     0.080 A 
ATOM     24  C   UNL d   1      46.776  35.933  54.787  0.00  0.00     0.019 A 
ATOM     25  C   UNL d   1      46.046  35.826  54.427  0.00  0.00     0.003 A 
ATOM     26  C   UNL d   1      45.983  35.897  53.614  0.00  0.00     0.019 A 
ATOM     27  C   UNL d   1      45.387  35.651  54.870  0.00  0.00     0.000 C 
ATOM     28  C   UNL d   1      46.637  36.072  53.167  0.00  0.00     0.080 A 
ENDBRANCH  21  22
ENDBRANCH   5  21
TORSDOF 4
ENDMDL
