MODEL 1
REMARK VINA RESULT:      47.8      0.000      0.000
REMARK  9 active torsions:
REMARK  status: ('A' for Active; 'I' for Inactive)
REMARK    1  A    between atoms: C_2  and  N_1 
REMARK    2  A    between atoms: C_4  and  C_2 
REMARK    3  A    between atoms: C_6  and  C_2 
REMARK    4  A    between atoms: C_8  and  N_3 
REMARK       I    between atoms: C_5  and  N_7 
REMARK    5  A    between atoms: O_17  and  C_5 
REMARK    6  A    between atoms: N_7  and  C_6 
REMARK    7  A    between atoms: C_22  and  O_17 
REMARK    8  A    between atoms: O_26  and  C_21 
REMARK    9  A    between atoms: C_25  and  C_22 
ROOT
ATOM      1  C   UNL d   1      46.232 -18.342  42.398  0.00  0.00     0.107 C 
ENDROOT
BRANCH   1   2
ATOM      2  N   UNL d   1      46.008 -18.063  41.645  0.00  0.00    -0.298 N 
ATOM      3  C   UNL d   1      46.574 -17.940  41.068  0.00  0.00     0.100 A 
ATOM      4  C   UNL d   1      46.349 -17.662  40.316  0.00  0.00     0.100 A 
ATOM      5  N   UNL d   1      45.554 -17.512  40.157  0.00  0.00    -0.301 N 
ATOM      6  C   UNL d   1      44.987 -17.642  40.751  0.00  0.00     0.100 A 
ATOM      7  C   UNL d   1      45.212 -17.914  41.486  0.00  0.00     0.100 A 
BRANCH   5   8
ATOM      8  C   UNL d   1      45.327 -17.242  39.430  0.00  0.00     0.064 A 
ATOM      9  C   UNL d   1      45.892 -17.013  38.875  0.00  0.00     0.020 A 
ATOM     10  C   UNL d   1      45.656 -16.738  38.133  0.00  0.00     0.026 A 
ATOM     11  C   UNL d   1      44.852 -16.692  37.947  0.00  0.00     0.094 A 
ATOM     12  C   UNL d   1      44.287 -16.921  38.502  0.00  0.00     0.026 A 
ATOM     13  C   UNL d   1      44.527 -17.195  39.241  0.00  0.00     0.020 A 
BRANCH  11  14
ATOM     14  O   UNL d   1      44.615 -16.413  37.194  0.00  0.00    -0.328 OA
ATOM     15  C   UNL d   1      44.798 -15.639  36.982  0.00  0.00     0.181 C 
ENDBRANCH  11  14
ENDBRANCH   5   8
ENDBRANCH   1   2
BRANCH   1  16
ATOM     16  C   UNL d   1      46.039 -19.128  42.615  0.00  0.00     0.118 A 
ATOM     17  O   UNL d   1      45.362 -19.589  42.493  0.00  0.00    -0.304 OA
ATOM     18  C   UNL d   1      45.503 -20.330  42.841  0.00  0.00     0.123 A 
ATOM     19  C   UNL d   1      46.249 -20.326  43.170  0.00  0.00     0.029 A 
ATOM     20  C   UNL d   1      46.585 -19.580  43.031  0.00  0.00     0.028 A 
ENDBRANCH   1  16
BRANCH   1  21
ATOM     21  C   UNL d   1      46.638 -17.862  42.929  0.00  0.00     0.124 C 
BRANCH  21  22
ATOM     22  N   UNL d   1      46.256 -17.189  43.254  0.00  0.00    -0.183 NA
ATOM     23  C   UNL d   1      46.258 -17.063  44.057  0.00  0.00     0.392 C 
ATOM     24  O   UNL d   1      46.639 -17.600  44.559  0.00  0.00    -0.236 OA
BRANCH  23  25
ATOM     25  O   UNL d   1      45.881 -16.399  44.368  0.00  0.00    -0.256 OA
BRANCH  25  26
ATOM     26  C   UNL d   1      46.247 -15.660  44.331  0.00  0.00     0.128 C 
BRANCH  26  27
ATOM     27  C   UNL d   1      45.811 -14.976  44.477  0.00  0.00     0.025 A 
ATOM     28  C   UNL d   1      46.129 -14.237  44.291  0.00  0.00     0.002 A 
ATOM     29  C   UNL d   1      45.693 -13.552  44.437  0.00  0.00     0.000 A 
ATOM     30  C   UNL d   1      44.939 -13.606  44.770  0.00  0.00     0.000 A 
ATOM     31  C   UNL d   1      44.626 -14.343  44.955  0.00  0.00     0.000 A 
ATOM     32  C   UNL d   1      45.058 -15.030  44.810  0.00  0.00     0.002 A 
ENDBRANCH  26  27
ENDBRANCH  25  26
ENDBRANCH  23  25
ENDBRANCH  21  22
ENDBRANCH   1  21
TORSDOF 9
ENDMDL
MODEL 2
REMARK VINA RESULT:      49.4      1.187      5.042
REMARK  9 active torsions:
REMARK  status: ('A' for Active; 'I' for Inactive)
REMARK    1  A    between atoms: C_2  and  N_1 
REMARK    2  A    between atoms: C_4  and  C_2 
REMARK    3  A    between atoms: C_6  and  C_2 
REMARK    4  A    between atoms: C_8  and  N_3 
REMARK       I    between atoms: C_5  and  N_7 
REMARK    5  A    between atoms: O_17  and  C_5 
REMARK    6  A    between atoms: N_7  and  C_6 
REMARK    7  A    between atoms: C_22  and  O_17 
REMARK    8  A    between atoms: O_26  and  C_21 
REMARK    9  A    between atoms: C_25  and  C_22 
ROOT
ATOM      1  C   UNL d   1      46.355 -18.302  42.285  0.00  0.00     0.107 C 
ENDROOT
BRANCH   1   2
ATOM      2  N   UNL d   1      46.228 -17.574  42.670  0.00  0.00    -0.298 N 
ATOM      3  C   UNL d   1      45.694 -17.524  43.286  0.00  0.00     0.100 A 
ATOM      4  C   UNL d   1      45.567 -16.796  43.671  0.00  0.00     0.100 A 
ATOM      5  N   UNL d   1      45.984 -16.127  43.426  0.00  0.00    -0.301 N 
ATOM      6  C   UNL d   1      46.525 -16.191  42.799  0.00  0.00     0.100 A 
ATOM      7  C   UNL d   1      46.645 -16.906  42.425  0.00  0.00     0.100 A 
BRANCH   5   8
ATOM      8  C   UNL d   1      45.868 -15.417  43.793  0.00  0.00     0.064 A 
ATOM      9  C   UNL d   1      45.610 -15.390  44.576  0.00  0.00     0.020 A 
ATOM     10  C   UNL d   1      45.492 -14.662  44.947  0.00  0.00     0.026 A 
ATOM     11  C   UNL d   1      45.633 -13.961  44.534  0.00  0.00     0.094 A 
ATOM     12  C   UNL d   1      45.891 -13.988  43.751  0.00  0.00     0.026 A 
ATOM     13  C   UNL d   1      46.007 -14.716  43.385  0.00  0.00     0.020 A 
BRANCH  11  14
ATOM     14  O   UNL d   1      45.513 -13.223  44.914  0.00  0.00    -0.328 OA
ATOM     15  C   UNL d   1      45.043 -12.658  44.545  0.00  0.00     0.181 C 
ENDBRANCH  11  14
ENDBRANCH   5   8
ENDBRANCH   1   2
BRANCH   1  16
ATOM     16  C   UNL d   1      46.355 -19.008  42.739  0.00  0.00     0.118 A 
ATOM     17  O   UNL d   1      46.354 -19.144  43.556  0.00  0.00    -0.304 OA
ATOM     18  C   UNL d   1      46.355 -19.967  43.667  0.00  0.00     0.123 A 
ATOM     19  C   UNL d   1      46.357 -20.329  42.937  0.00  0.00     0.029 A 
ATOM     20  C   UNL d   1      46.357 -19.735  42.358  0.00  0.00     0.028 A 
ENDBRANCH   1  16
BRANCH   1  21
ATOM     21  C   UNL d   1      46.479 -18.342  41.473  0.00  0.00     0.124 C 
BRANCH  21  22
ATOM     22  N   UNL d   1      45.974 -17.916  40.956  0.00  0.00    -0.183 NA
ATOM     23  C   UNL d   1      45.872 -18.160  40.187  0.00  0.00     0.392 C 
ATOM     24  O   UNL d   1      46.268 -18.833  39.911  0.00  0.00    -0.236 OA
BRANCH  23  25
ATOM     25  O   UNL d   1      45.375 -17.735  39.685  0.00  0.00    -0.256 OA
BRANCH  25  26
ATOM     26  C   UNL d   1      45.679 -17.120  39.226  0.00  0.00     0.128 C 
BRANCH  26  27
ATOM     27  C   UNL d   1      45.222 -16.791  38.623  0.00  0.00     0.025 A 
ATOM     28  C   UNL d   1      44.402 -16.880  38.631  0.00  0.00     0.002 A 
ATOM     29  C   UNL d   1      43.946 -16.552  38.027  0.00  0.00     0.000 A 
ATOM     30  C   UNL d   1      44.310 -16.134  37.415  0.00  0.00     0.000 A 
ATOM     31  C   UNL d   1      45.127 -16.048  37.409  0.00  0.00     0.000 A 
ATOM     32  C   UNL d   1      45.587 -16.374  38.011  0.00  0.00     0.002 A 
ENDBRANCH  26  27
ENDBRANCH  25  26
ENDBRANCH  23  25
ENDBRANCH  21  22
ENDBRANCH   1  21
TORSDOF 9
ENDMDL
