MODEL 1
REMARK VINA RESULT:      45.7      0.000      0.000
REMARK  2 active torsions:
REMARK  status: ('A' for Active; 'I' for Inactive)
REMARK    1  A    between atoms: C_6  and  N_2 
REMARK    2  A    between atoms: C_8  and  C_5 
ROOT
ATOM      1  C   UNL d   1     -58.996 -98.772 -43.046  0.00  0.00     0.265 A 
ATOM      2  N   UNL d   1     -58.512 -98.791 -43.713  0.00  0.00    -0.275 N 
ATOM      3  C   UNL d   1     -57.728 -98.777 -42.635  0.00  0.00     0.021 A 
ATOM      4  C   UNL d   1     -58.512 -98.764 -42.378  0.00  0.00     0.063 A 
ATOM      5  C   UNL d   1     -57.731 -98.793 -43.462  0.00  0.00     0.067 A 
ATOM      6  O   UNL d   1     -59.827 -98.764 -43.043  0.00  0.00    -0.267 OA
ATOM      7  C   UNL d   1     -57.060 -98.773 -42.151  0.00  0.00     0.002 C 
ENDROOT
BRANCH   2   8
ATOM      8  C   UNL d   1     -58.778 -98.804 -44.499  0.00  0.00     0.067 A 
ATOM      9  C   UNL d   1     -59.590 -98.865 -44.651  0.00  0.00     0.018 A 
ATOM     10  C   UNL d   1     -59.867 -98.879 -45.421  0.00  0.00     0.002 A 
ATOM     11  C   UNL d   1     -59.333 -98.831 -46.054  0.00  0.00     0.000 A 
ATOM     12  C   UNL d   1     -58.517 -98.770 -45.896  0.00  0.00     0.002 A 
ATOM     13  C   UNL d   1     -59.605 -98.845 -46.833  0.00  0.00     0.000 C 
ATOM     14  C   UNL d   1     -58.246 -98.756 -45.121  0.00  0.00     0.018 A 
ENDBRANCH   2   8
BRANCH   5  15
ATOM     15  C   UNL d   1     -57.063 -98.809 -43.947  0.00  0.00     0.016 A 
ATOM     16  C   UNL d   1     -56.307 -98.847 -43.610  0.00  0.00     0.002 A 
ATOM     17  C   UNL d   1     -55.640 -98.864 -44.095  0.00  0.00     0.011 A 
ATOM     18  C   UNL d   1     -55.725 -98.842 -44.921  0.00  0.00     0.058 A 
ATOM     19  C   UNL d   1     -56.477 -98.804 -45.258  0.00  0.00     0.011 A 
ATOM     20 CL   UNL d   1     -55.048 -98.858 -45.406  0.00  0.00    -0.082 Cl
ATOM     21  C   UNL d   1     -57.148 -98.787 -44.773  0.00  0.00     0.002 A 
ENDBRANCH   5  15
TORSDOF 2
ENDMDL
MODEL 2
REMARK VINA RESULT:      46.7      6.459      8.125
REMARK  2 active torsions:
REMARK  status: ('A' for Active; 'I' for Inactive)
REMARK    1  A    between atoms: C_6  and  N_2 
REMARK    2  A    between atoms: C_8  and  C_5 
ROOT
ATOM      1  C   UNL d   1     -54.748 -99.437 -37.095  0.00  0.00     0.265 A 
ATOM      2  N   UNL d   1     -54.743-100.219 -37.356  0.00  0.00    -0.275 N 
ATOM      3  C   UNL d   1     -54.744 -99.427 -38.428  0.00  0.00     0.021 A 
ATOM      4  C   UNL d   1     -54.748 -98.946 -37.758  0.00  0.00     0.063 A 
ATOM      5  C   UNL d   1     -54.741-100.215 -38.177  0.00  0.00     0.067 A 
ATOM      6  O   UNL d   1     -54.751 -99.184 -36.303  0.00  0.00    -0.267 OA
ATOM      7  C   UNL d   1     -54.743 -99.166 -39.210  0.00  0.00     0.002 C 
ENDROOT
BRANCH   2   8
ATOM      8  C   UNL d   1     -54.742-100.889 -36.866  0.00  0.00     0.067 A 
ATOM      9  C   UNL d   1     -54.718-100.789 -36.044  0.00  0.00     0.018 A 
ATOM     10  C   UNL d   1     -54.716-101.440 -35.548  0.00  0.00     0.002 A 
ATOM     11  C   UNL d   1     -54.737-102.206 -35.869  0.00  0.00     0.000 A 
ATOM     12  C   UNL d   1     -54.761-102.300 -36.696  0.00  0.00     0.002 A 
ATOM     13  C   UNL d   1     -54.736-102.867 -35.376  0.00  0.00     0.000 C 
ATOM     14  C   UNL d   1     -54.763-101.643 -37.188  0.00  0.00     0.018 A 
ENDBRANCH   2   8
BRANCH   5  15
ATOM     15  C   UNL d   1     -54.737-100.878 -38.667  0.00  0.00     0.016 A 
ATOM     16  C   UNL d   1     -54.750-101.638 -38.338  0.00  0.00     0.002 A 
ATOM     17  C   UNL d   1     -54.746-102.301 -38.829  0.00  0.00     0.011 A 
ATOM     18  C   UNL d   1     -54.729-102.207 -39.655  0.00  0.00     0.058 A 
ATOM     19  C   UNL d   1     -54.716-101.451 -39.984  0.00  0.00     0.011 A 
ATOM     20 CL   UNL d   1     -54.725-102.879 -40.146  0.00  0.00    -0.082 Cl
ATOM     21  C   UNL d   1     -54.720-100.785 -39.493  0.00  0.00     0.002 A 
ENDBRANCH   5  15
TORSDOF 2
ENDMDL
