MODEL 1
REMARK VINA RESULT:      66.8      0.000      0.000
REMARK  3 active torsions:
REMARK  status: ('A' for Active; 'I' for Inactive)
REMARK    1  A    between atoms: C_10  and  N_1 
REMARK       I    between atoms: N_3  and  C_4 
REMARK    2  A    between atoms: C_4  and  C_10 
REMARK    3  A    between atoms: O_17  and  C_13 
ROOT
ATOM      1  N   UNL d   1      13.777  13.966  -3.514  0.00  0.00    -0.268 N 
ATOM      2  C   UNL d   1      13.591  14.050  -4.319  0.00  0.00     0.265 A 
ATOM      3  C   UNL d   1      13.724  14.770  -4.699  0.00  0.00     0.059 A 
ATOM      4  C   UNL d   1      14.042  15.407  -4.283  0.00  0.00     0.028 A 
ATOM      5  C   UNL d   1      14.230  15.335  -3.481  0.00  0.00     0.021 A 
ATOM      6  C   UNL d   1      14.096  14.606  -3.096  0.00  0.00     0.083 A 
ATOM      7  O   UNL d   1      13.274  13.413  -4.735  0.00  0.00    -0.267 OA
ATOM      8  C   UNL d   1      14.174  16.125  -4.664  0.00  0.00     0.094 A 
ATOM      9  C   UNL d   1      13.537  14.846  -5.499  0.00  0.00     0.005 A 
ATOM     10  C   UNL d   1      13.669  15.564  -5.880  0.00  0.00     0.002 A 
ATOM     11  C   UNL d   1      13.986  16.201  -5.464  0.00  0.00     0.024 A 
ENDROOT
BRANCH   1  12
ATOM     12  C   UNL d   1      13.645  13.249  -3.133  0.00  0.00     0.144 C 
BRANCH  12  13
ATOM     13  C   UNL d   1      14.171  12.988  -2.551  0.00  0.00     0.283 C 
ATOM     14  N   UNL d   1      13.891  12.642  -1.857  0.00  0.00    -0.272 N 
ATOM     15  C   UNL d   1      14.418  12.387  -1.288  0.00  0.00     0.067 A 
ATOM     16  C   UNL d   1      13.071  12.554  -1.745  0.00  0.00     0.083 A 
ATOM     17  C   UNL d   1      14.132  12.039  -0.592  0.00  0.00     0.016 A 
ATOM     18  C   UNL d   1      15.221  12.474  -1.401  0.00  0.00     0.018 A 
ATOM     19  C   UNL d   1      14.656  11.781  -0.015  0.00  0.00     0.001 A 
ATOM     20  C   UNL d   1      13.317  11.948  -0.471  0.00  0.00     0.003 A 
ATOM     21  C   UNL d   1      15.467  11.867  -0.126  0.00  0.00     0.000 A 
ATOM     22  C   UNL d   1      15.754  12.217  -0.825  0.00  0.00     0.002 A 
ATOM     23  C   UNL d   1      12.792  12.204  -1.044  0.00  0.00     0.019 A 
ATOM     24  O   UNL d   1      14.986  13.078  -2.668  0.00  0.00    -0.265 OA
ENDBRANCH  12  13
ENDBRANCH   1  12
BRANCH   8  25
ATOM     25  O   UNL d   1      14.491  16.764  -4.252  0.00  0.00    -0.328 OA
ATOM     26  C   UNL d   1      15.025  17.266  -4.620  0.00  0.00     0.181 C 
ENDBRANCH   8  25
TORSDOF 3
ENDMDL
MODEL 2
REMARK VINA RESULT:      69.7      1.254      2.143
REMARK  3 active torsions:
REMARK  status: ('A' for Active; 'I' for Inactive)
REMARK    1  A    between atoms: C_10  and  N_1 
REMARK       I    between atoms: N_3  and  C_4 
REMARK    2  A    between atoms: C_4  and  C_10 
REMARK    3  A    between atoms: O_17  and  C_13 
ROOT
ATOM      1  N   UNL d   1      14.338  15.608  -2.973  0.00  0.00    -0.268 N 
ATOM      2  C   UNL d   1      14.792  16.287  -3.125  0.00  0.00     0.265 A 
ATOM      3  C   UNL d   1      14.864  16.570  -3.897  0.00  0.00     0.059 A 
ATOM      4  C   UNL d   1      14.488  16.181  -4.519  0.00  0.00     0.028 A 
ATOM      5  C   UNL d   1      14.034  15.504  -4.379  0.00  0.00     0.021 A 
ATOM      6  C   UNL d   1      13.960  15.218  -3.598  0.00  0.00     0.083 A 
ATOM      7  O   UNL d   1      15.168  16.676  -2.503  0.00  0.00    -0.267 OA
ATOM      8  C   UNL d   1      14.561  16.465  -5.288  0.00  0.00     0.094 A 
ATOM      9  C   UNL d   1      15.316  17.245  -4.039  0.00  0.00     0.005 A 
ATOM     10  C   UNL d   1      15.390  17.529  -4.809  0.00  0.00     0.002 A 
ATOM     11  C   UNL d   1      15.014  17.140  -5.430  0.00  0.00     0.024 A 
ENDROOT
BRANCH   1  12
ATOM     12  C   UNL d   1      14.265  15.324  -2.204  0.00  0.00     0.144 C 
BRANCH  12  13
ATOM     13  C   UNL d   1      14.284  14.510  -2.062  0.00  0.00     0.283 C 
ATOM     14  N   UNL d   1      14.643  14.211  -1.383  0.00  0.00    -0.272 N 
ATOM     15  C   UNL d   1      14.657  13.405  -1.250  0.00  0.00     0.067 A 
ATOM     16  C   UNL d   1      14.988  14.737  -0.838  0.00  0.00     0.083 A 
ATOM     17  C   UNL d   1      15.019  13.109  -0.566  0.00  0.00     0.016 A 
ATOM     18  C   UNL d   1      14.317  12.894  -1.787  0.00  0.00     0.018 A 
ATOM     19  C   UNL d   1      15.037  12.301  -0.427  0.00  0.00     0.001 A 
ATOM     20  C   UNL d   1      15.366  13.625  -0.017  0.00  0.00     0.003 A 
ATOM     21  C   UNL d   1      14.695  11.782  -0.965  0.00  0.00     0.000 A 
ATOM     22  C   UNL d   1      14.331  12.079  -1.653  0.00  0.00     0.002 A 
ATOM     23  C   UNL d   1      15.350  14.432  -0.153  0.00  0.00     0.019 A 
ATOM     24  O   UNL d   1      13.938  13.993  -2.608  0.00  0.00    -0.265 OA
ENDBRANCH  12  13
ENDBRANCH   1  12
BRANCH   8  25
ATOM     25  O   UNL d   1      14.187  16.080  -5.912  0.00  0.00    -0.328 OA
ATOM     26  C   UNL d   1      13.654  16.486  -6.386  0.00  0.00     0.181 C 
ENDBRANCH   8  25
TORSDOF 3
ENDMDL
