MODEL 1
REMARK VINA RESULT:      -3.0      0.000      0.000
REMARK  3 active torsions:
REMARK  status: ('A' for Active; 'I' for Inactive)
REMARK    1  A    between atoms: C_7  and  C_4 
REMARK    2  A    between atoms: C_8  and  C_7 
REMARK    3  A    between atoms: C_11  and  C_8 
ROOT
ATOM      1  N   UNL d   1      32.566  23.111 -21.022  0.00  0.00    -0.269 N 
ATOM      2  C   UNL d   1      32.626  22.527 -21.601  0.00  0.00     0.282 A 
ATOM      3  N   UNL d   1      33.060  21.597 -20.614  0.00  0.00    -0.239 NA
ATOM      4  C   UNL d   1      32.872  21.772 -21.398  0.00  0.00     0.138 A 
ATOM      5  C   UNL d   1      32.754  22.936 -20.239  0.00  0.00     0.085 A 
ATOM      6  C   UNL d   1      33.000  22.181 -20.035  0.00  0.00     0.098 A 
ATOM      7  O   UNL d   1      32.438  22.702 -22.385  0.00  0.00    -0.265 OA
ATOM      8  C   UNL d   1      32.274  23.684 -21.770  0.00  0.00     0.102 C 
ATOM      9  C   UNL d   1      32.694  23.520 -19.659  0.00  0.00     0.019 A 
ATOM     10  C   UNL d   1      33.188  22.006 -19.251  0.00  0.00     0.021 A 
ATOM     11  C   UNL d   1      32.877  23.329 -18.929  0.00  0.00     0.002 A 
ATOM     12  C   UNL d   1      33.123  22.574 -18.726  0.00  0.00     0.002 A 
ENDROOT
BRANCH   4  13
ATOM     13  C   UNL d   1      32.932  21.188 -21.977  0.00  0.00     0.024 C 
BRANCH  13  14
ATOM     14  C   UNL d   1      33.241  20.448 -21.787  0.00  0.00     0.002 C 
BRANCH  14  15
ATOM     15  C   UNL d   1      33.222  19.837 -22.342  0.00  0.00     0.000 A 
ATOM     16  C   UNL d   1      33.236  20.013 -23.149  0.00  0.00     0.000 A 
ATOM     17  C   UNL d   1      33.217  19.404 -23.704  0.00  0.00     0.000 A 
ATOM     18  C   UNL d   1      33.186  18.618 -23.454  0.00  0.00     0.000 A 
ATOM     19  C   UNL d   1      33.172  18.442 -22.647  0.00  0.00     0.000 A 
ATOM     20  C   UNL d   1      33.191  19.052 -22.092  0.00  0.00     0.000 A 
ENDBRANCH  14  15
ENDBRANCH  13  14
ENDBRANCH   4  13
TORSDOF 3
ENDMDL
MODEL 2
REMARK VINA RESULT:      -3.0      1.730      2.822
REMARK  3 active torsions:
REMARK  status: ('A' for Active; 'I' for Inactive)
REMARK    1  A    between atoms: C_7  and  C_4 
REMARK    2  A    between atoms: C_8  and  C_7 
REMARK    3  A    between atoms: C_11  and  C_8 
ROOT
ATOM      1  N   UNL d   1      33.227  20.868 -23.013  0.00  0.00    -0.269 N 
ATOM      2  C   UNL d   1      33.233  20.115 -23.349  0.00  0.00     0.282 A 
ATOM      3  N   UNL d   1      33.228  19.537 -22.048  0.00  0.00    -0.239 NA
ATOM      4  C   UNL d   1      33.234  19.451 -22.868  0.00  0.00     0.138 A 
ATOM      5  C   UNL d   1      33.221  20.953 -22.193  0.00  0.00     0.085 A 
ATOM      6  C   UNL d   1      33.222  20.289 -21.712  0.00  0.00     0.098 A 
ATOM      7  O   UNL d   1      33.239  20.029 -24.170  0.00  0.00    -0.265 OA
ATOM      8  C   UNL d   1      33.231  21.179 -23.949  0.00  0.00     0.102 C 
ATOM      9  C   UNL d   1      33.215  21.707 -21.856  0.00  0.00     0.019 A 
ATOM     10  C   UNL d   1      33.216  20.376 -20.891  0.00  0.00     0.021 A 
ATOM     11  C   UNL d   1      33.210  21.759 -21.082  0.00  0.00     0.002 A 
ATOM     12  C   UNL d   1      33.210  21.095 -20.600  0.00  0.00     0.002 A 
ENDROOT
BRANCH   4  13
ATOM     13  C   UNL d   1      33.240  18.698 -23.205  0.00  0.00     0.024 C 
BRANCH  13  14
ATOM     14  C   UNL d   1      32.797  18.090 -22.866  0.00  0.00     0.002 C 
BRANCH  14  15
ATOM     15  C   UNL d   1      32.648  17.400 -23.293  0.00  0.00     0.000 A 
ATOM     16  C   UNL d   1      31.914  17.292 -23.658  0.00  0.00     0.000 A 
ATOM     17  C   UNL d   1      31.764  16.603 -24.084  0.00  0.00     0.000 A 
ATOM     18  C   UNL d   1      32.346  16.021 -24.148  0.00  0.00     0.000 A 
ATOM     19  C   UNL d   1      33.079  16.130 -23.784  0.00  0.00     0.000 A 
ATOM     20  C   UNL d   1      33.229  16.820 -23.357  0.00  0.00     0.000 A 
ENDBRANCH  14  15
ENDBRANCH  13  14
ENDBRANCH   4  13
TORSDOF 3
ENDMDL
MODEL 3
REMARK VINA RESULT:      -2.8      1.252      4.317
REMARK  3 active torsions:
REMARK  status: ('A' for Active; 'I' for Inactive)
REMARK    1  A    between atoms: C_7  and  C_4 
REMARK    2  A    between atoms: C_8  and  C_7 
REMARK    3  A    between atoms: C_11  and  C_8 
ROOT
ATOM      1  N   UNL d   1      33.238  19.987 -23.810  0.00  0.00    -0.269 N 
ATOM      2  C   UNL d   1      33.239  20.628 -23.291  0.00  0.00     0.282 A 
ATOM      3  N   UNL d   1      33.239  19.730 -22.186  0.00  0.00    -0.239 NA
ATOM      4  C   UNL d   1      33.239  20.500 -22.481  0.00  0.00     0.138 A 
ATOM      5  C   UNL d   1      33.238  19.217 -23.514  0.00  0.00     0.085 A 
ATOM      6  C   UNL d   1      33.238  19.089 -22.704  0.00  0.00     0.098 A 
ATOM      7  O   UNL d   1      33.239  21.398 -23.587  0.00  0.00    -0.265 OA
ATOM      8  C   UNL d   1      33.238  20.680 -24.511  0.00  0.00     0.102 C 
ATOM      9  C   UNL d   1      33.238  18.575 -24.033  0.00  0.00     0.019 A 
ATOM     10  C   UNL d   1      33.238  18.319 -22.409  0.00  0.00     0.021 A 
ATOM     11  C   UNL d   1      33.238  17.861 -23.729  0.00  0.00     0.002 A 
ATOM     12  C   UNL d   1      33.238  17.733 -22.919  0.00  0.00     0.002 A 
ENDROOT
BRANCH   4  13
ATOM     13  C   UNL d   1      33.239  21.142 -21.963  0.00  0.00     0.024 C 
BRANCH  13  14
ATOM     14  C   UNL d   1      32.597  21.269 -21.462  0.00  0.00     0.002 C 
BRANCH  14  15
ATOM     15  C   UNL d   1      32.640  21.844 -20.872  0.00  0.00     0.000 A 
ATOM     16  C   UNL d   1      32.133  22.496 -20.894  0.00  0.00     0.000 A 
ATOM     17  C   UNL d   1      32.175  23.070 -20.304  0.00  0.00     0.000 A 
ATOM     18  C   UNL d   1      32.724  22.995 -19.692  0.00  0.00     0.000 A 
ATOM     19  C   UNL d   1      33.231  22.343 -19.671  0.00  0.00     0.000 A 
ATOM     20  C   UNL d   1      33.188  21.768 -20.261  0.00  0.00     0.000 A 
ENDBRANCH  14  15
ENDBRANCH  13  14
ENDBRANCH   4  13
TORSDOF 3
ENDMDL
MODEL 4
REMARK VINA RESULT:      -1.8      4.440      6.413
REMARK  3 active torsions:
REMARK  status: ('A' for Active; 'I' for Inactive)
REMARK    1  A    between atoms: C_7  and  C_4 
REMARK    2  A    between atoms: C_8  and  C_7 
REMARK    3  A    between atoms: C_11  and  C_8 
ROOT
ATOM      1  N   UNL d   1      28.741  17.381 -24.354  0.00  0.00    -0.269 N 
ATOM      2  C   UNL d   1      29.498  17.596 -24.598  0.00  0.00     0.282 A 
ATOM      3  N   UNL d   1      30.043  16.505 -23.864  0.00  0.00    -0.239 NA
ATOM      4  C   UNL d   1      30.147  17.159 -24.354  0.00  0.00     0.138 A 
ATOM      5  C   UNL d   1      28.636  16.726 -23.864  0.00  0.00     0.085 A 
ATOM      6  C   UNL d   1      29.286  16.289 -23.619  0.00  0.00     0.098 A 
ATOM      7  O   UNL d   1      29.603  18.251 -25.089  0.00  0.00    -0.265 OA
ATOM      8  C   UNL d   1      28.453  18.158 -24.888  0.00  0.00     0.102 C 
ATOM      9  C   UNL d   1      27.879  16.510 -23.618  0.00  0.00     0.019 A 
ATOM     10  C   UNL d   1      29.181  15.634 -23.129  0.00  0.00     0.021 A 
ATOM     11  C   UNL d   1      27.808  15.890 -23.157  0.00  0.00     0.002 A 
ATOM     12  C   UNL d   1      28.457  15.453 -22.913  0.00  0.00     0.002 A 
ENDROOT
BRANCH   4  13
ATOM     13  C   UNL d   1      30.905  17.375 -24.599  0.00  0.00     0.024 C 
BRANCH  13  14
ATOM     14  C   UNL d   1      31.546  17.285 -24.089  0.00  0.00     0.002 C 
BRANCH  14  15
ATOM     15  C   UNL d   1      32.111  17.883 -24.025  0.00  0.00     0.000 A 
ATOM     16  C   UNL d   1      32.294  18.199 -23.284  0.00  0.00     0.000 A 
ATOM     17  C   UNL d   1      32.859  18.797 -23.220  0.00  0.00     0.000 A 
ATOM     18  C   UNL d   1      33.241  19.079 -23.895  0.00  0.00     0.000 A 
ATOM     19  C   UNL d   1      33.057  18.762 -24.635  0.00  0.00     0.000 A 
ATOM     20  C   UNL d   1      32.492  18.165 -24.699  0.00  0.00     0.000 A 
ENDBRANCH  14  15
ENDBRANCH  13  14
ENDBRANCH   4  13
TORSDOF 3
ENDMDL
MODEL 5
REMARK VINA RESULT:      -0.7      3.798      6.211
REMARK  3 active torsions:
REMARK  status: ('A' for Active; 'I' for Inactive)
REMARK    1  A    between atoms: C_7  and  C_4 
REMARK    2  A    between atoms: C_8  and  C_7 
REMARK    3  A    between atoms: C_11  and  C_8 
ROOT
ATOM      1  N   UNL d   1      31.120  16.084 -23.759  0.00  0.00    -0.269 N 
ATOM      2  C   UNL d   1      31.765  16.596 -23.798  0.00  0.00     0.282 A 
ATOM      3  N   UNL d   1      30.942  17.581 -24.416  0.00  0.00    -0.239 NA
ATOM      4  C   UNL d   1      31.676  17.343 -24.126  0.00  0.00     0.138 A 
ATOM      5  C   UNL d   1      30.386  16.322 -24.049  0.00  0.00     0.085 A 
ATOM      6  C   UNL d   1      30.297  17.068 -24.377  0.00  0.00     0.098 A 
ATOM      7  O   UNL d   1      32.500  16.359 -23.508  0.00  0.00    -0.265 OA
ATOM      8  C   UNL d   1      31.762  15.465 -23.338  0.00  0.00     0.102 C 
ATOM      9  C   UNL d   1      29.740  15.809 -24.010  0.00  0.00     0.019 A 
ATOM     10  C   UNL d   1      29.562  17.306 -24.667  0.00  0.00     0.021 A 
ATOM     11  C   UNL d   1      29.060  16.058 -24.291  0.00  0.00     0.002 A 
ATOM     12  C   UNL d   1      28.971  16.804 -24.618  0.00  0.00     0.002 A 
ENDROOT
BRANCH   4  13
ATOM     13  C   UNL d   1      32.321  17.855 -24.164  0.00  0.00     0.024 C 
BRANCH  13  14
ATOM     14  C   UNL d   1      32.419  18.441 -23.592  0.00  0.00     0.002 C 
BRANCH  14  15
ATOM     15  C   UNL d   1      32.693  19.188 -23.808  0.00  0.00     0.000 A 
ATOM     16  C   UNL d   1      32.696  19.802 -23.256  0.00  0.00     0.000 A 
ATOM     17  C   UNL d   1      32.970  20.549 -23.471  0.00  0.00     0.000 A 
ATOM     18  C   UNL d   1      33.241  20.685 -24.239  0.00  0.00     0.000 A 
ATOM     19  C   UNL d   1      33.237  20.071 -24.792  0.00  0.00     0.000 A 
ATOM     20  C   UNL d   1      32.963  19.323 -24.575  0.00  0.00     0.000 A 
ENDBRANCH  14  15
ENDBRANCH  13  14
ENDBRANCH   4  13
TORSDOF 3
ENDMDL
MODEL 6
REMARK VINA RESULT:      -0.7      0.997      1.445
REMARK  3 active torsions:
REMARK  status: ('A' for Active; 'I' for Inactive)
REMARK    1  A    between atoms: C_7  and  C_4 
REMARK    2  A    between atoms: C_8  and  C_7 
REMARK    3  A    between atoms: C_11  and  C_8 
ROOT
ATOM      1  N   UNL d   1      31.975  23.268 -19.491  0.00  0.00    -0.269 N 
ATOM      2  C   UNL d   1      32.213  22.820 -20.141  0.00  0.00     0.282 A 
ATOM      3  N   UNL d   1      33.134  22.116 -19.315  0.00  0.00    -0.239 NA
ATOM      4  C   UNL d   1      32.791  22.245 -20.053  0.00  0.00     0.138 A 
ATOM      5  C   UNL d   1      32.318  23.138 -18.753  0.00  0.00     0.085 A 
ATOM      6  C   UNL d   1      32.896  22.563 -18.665  0.00  0.00     0.098 A 
ATOM      7  O   UNL d   1      31.870  22.950 -20.880  0.00  0.00    -0.265 OA
ATOM      8  C   UNL d   1      31.368  23.701 -20.136  0.00  0.00     0.102 C 
ATOM      9  C   UNL d   1      32.080  23.586 -18.102  0.00  0.00     0.019 A 
ATOM     10  C   UNL d   1      33.240  22.434 -17.926  0.00  0.00     0.021 A 
ATOM     11  C   UNL d   1      32.419  23.444 -17.418  0.00  0.00     0.002 A 
ATOM     12  C   UNL d   1      32.997  22.869 -17.330  0.00  0.00     0.002 A 
ENDROOT
BRANCH   4  13
ATOM     13  C   UNL d   1      33.029  21.797 -20.704  0.00  0.00     0.024 C 
BRANCH  13  14
ATOM     14  C   UNL d   1      32.802  21.008 -20.767  0.00  0.00     0.002 C 
BRANCH  14  15
ATOM     15  C   UNL d   1      32.945  20.591 -21.465  0.00  0.00     0.000 A 
ATOM     16  C   UNL d   1      33.087  21.000 -22.168  0.00  0.00     0.000 A 
ATOM     17  C   UNL d   1      33.231  20.584 -22.865  0.00  0.00     0.000 A 
ATOM     18  C   UNL d   1      33.232  19.759 -22.861  0.00  0.00     0.000 A 
ATOM     19  C   UNL d   1      33.089  19.350 -22.158  0.00  0.00     0.000 A 
ATOM     20  C   UNL d   1      32.946  19.766 -21.461  0.00  0.00     0.000 A 
ENDBRANCH  14  15
ENDBRANCH  13  14
ENDBRANCH   4  13
TORSDOF 3
ENDMDL
