MODEL 1
REMARK VINA RESULT:      82.9      0.000      0.000
REMARK  5 active torsions:
REMARK  status: ('A' for Active; 'I' for Inactive)
REMARK    1  A    between atoms: C_11  and  C_4 
REMARK    2  A    between atoms: N_10  and  C_6 
REMARK    3  A    between atoms: C_13  and  C_9 
REMARK    4  A    between atoms: C_14  and  N_10 
REMARK    5  A    between atoms: C_15  and  C_14 
ROOT
ATOM      1  C   UNL d   1     -57.643 -99.155 -44.530  0.00  0.00     0.167 A 
ATOM      2  N   UNL d   1     -58.172 -99.048 -45.147  0.00  0.00    -0.195 N 
ATOM      3  N   UNL d   1     -57.099 -98.934 -46.048  0.00  0.00    -0.163 NA
ATOM      4  C   UNL d   1     -56.857 -99.151 -44.675  0.00  0.00     0.055 A 
ATOM      5  N   UNL d   1     -57.924 -99.264 -43.779  0.00  0.00    -0.227 NA
ATOM      6  C   UNL d   1     -58.965 -99.054 -44.992  0.00  0.00     0.167 A 
ATOM      7  C   UNL d   1     -56.569 -99.041 -45.431  0.00  0.00     0.104 A 
ATOM      8  C   UNL d   1     -59.246 -99.167 -44.213  0.00  0.00     0.058 A 
ATOM      9  C   UNL d   1     -58.713 -99.269 -43.631  0.00  0.00     0.086 A 
ATOM     10  C   UNL d   1     -55.787 -99.036 -45.573  0.00  0.00     0.023 C 
ENDROOT
BRANCH   6  11
ATOM     11  N   UNL d   1     -59.512 -98.945 -45.622  0.00  0.00    -0.224 NA
BRANCH  11  12
ATOM     12  C   UNL d   1     -59.942 -99.372 -46.206  0.00  0.00     0.120 C 
BRANCH  12  13
ATOM     13  C   UNL d   1     -59.687 -99.375 -47.004  0.00  0.00     0.101 A 
ATOM     14  N   UNL d   1     -59.935 -99.989 -47.523  0.00  0.00    -0.242 NA
ATOM     15  C   UNL d   1     -59.680 -99.992 -48.322  0.00  0.00     0.099 A 
ATOM     16  C   UNL d   1     -59.174 -99.377 -48.600  0.00  0.00     0.021 A 
ATOM     17  C   UNL d   1     -58.923 -98.760 -48.081  0.00  0.00     0.003 A 
ATOM     18  C   UNL d   1     -59.183 -98.764 -47.282  0.00  0.00     0.021 A 
ENDBRANCH  12  13
ENDBRANCH  11  12
ENDBRANCH   6  11
BRANCH   9  19
ATOM     19  C   UNL d   1     -59.004 -99.385 -42.838  0.00  0.00     0.018 C 
ATOM     20  C   UNL d   1     -59.446 -98.757 -42.460  0.00  0.00     0.002 C 
ATOM     21  C   UNL d   1     -58.856-100.114 -42.431  0.00  0.00     0.002 C 
ENDBRANCH   9  19
BRANCH   4  22
ATOM     22  C   UNL d   1     -56.322 -99.259 -44.051  0.00  0.00     0.004 A 
ATOM     23  C   UNL d   1     -55.790 -99.865 -44.078  0.00  0.00     0.000 A 
ATOM     24  C   UNL d   1     -55.262 -99.972 -43.463  0.00  0.00     0.000 A 
ATOM     25  C   UNL d   1     -55.278 -99.469 -42.835  0.00  0.00     0.000 A 
ATOM     26  C   UNL d   1     -55.818 -98.857 -42.811  0.00  0.00     0.000 A 
ATOM     27  C   UNL d   1     -56.333 -98.759 -43.420  0.00  0.00     0.000 A 
ENDBRANCH   4  22
TORSDOF 5
ENDMDL
