MODEL 1
REMARK VINA RESULT:      54.4      0.000      0.000
REMARK  6 active torsions:
REMARK  status: ('A' for Active; 'I' for Inactive)
REMARK    1  A    between atoms: C_4  and  N_1 
REMARK    2  A    between atoms: N_6  and  C_2 
REMARK    3  A    between atoms: S_10  and  C_7 
REMARK    4  A    between atoms: C_12  and  C_9 
REMARK    5  A    between atoms: C_11  and  S_10 
REMARK    6  A    between atoms: O_24  and  C_20 
ROOT
ATOM      1  N   UNL d   1      14.880  15.535  -1.292  0.00  0.00    -0.240 N 
ATOM      2  C   UNL d   1      14.614  15.741  -0.547  0.00  0.00     0.268 A 
ATOM      3  C   UNL d   1      15.099  14.735  -1.312  0.00  0.00     0.273 A 
ATOM      4  C   UNL d   1      14.960  14.441  -0.542  0.00  0.00     0.091 A 
ATOM      5  C   UNL d   1      14.665  15.061  -0.083  0.00  0.00     0.072 A 
ATOM      6  O   UNL d   1      14.362  16.247  -0.134  0.00  0.00    -0.267 OA
ATOM      7  O   UNL d   1      15.395  14.297  -1.942  0.00  0.00    -0.266 OA
ENDROOT
BRANCH   1   8
ATOM      8  C   UNL d   1      14.921  16.062  -1.936  0.00  0.00     0.092 A 
ATOM      9  C   UNL d   1      15.321  16.765  -1.820  0.00  0.00     0.145 A 
ATOM     10  C   UNL d   1      15.376  17.307  -2.449  0.00  0.00     0.049 A 
ATOM     11  C   UNL d   1      15.029  17.129  -3.175  0.00  0.00     0.096 A 
ATOM     12  C   UNL d   1      14.615  16.396  -3.287  0.00  0.00     0.026 A 
ATOM     13  C   UNL d   1      14.569  15.869  -2.656  0.00  0.00     0.021 A 
BRANCH   9  14
ATOM     14  N   UNL d   1      15.665  16.931  -1.087  0.00  0.00    -0.112 N 
ATOM     15  O   UNL d   1      15.874  16.576  -0.788  0.00  0.00    -0.532 OA
ATOM     16  O   UNL d   1      15.707  17.689  -0.760  0.00  0.00    -0.532 OA
ENDBRANCH   9  14
BRANCH  11  17
ATOM     17  O   UNL d   1      15.096  17.683  -3.787  0.00  0.00    -0.328 OA
ATOM     18  C   UNL d   1      15.426  17.482  -4.508  0.00  0.00     0.181 C 
ENDBRANCH  11  17
ENDBRANCH   1   8
BRANCH   4  19
ATOM     19  S   UNL d   1      15.122  13.656  -0.373  0.00  0.00    -0.082 SA
BRANCH  19  20
ATOM     20  C   UNL d   1      14.488  13.110  -0.291  0.00  0.00     0.035 A 
ATOM     21  C   UNL d   1      14.615  12.316  -0.402  0.00  0.00     0.070 A 
ATOM     22  C   UNL d   1      14.003  11.780  -0.325  0.00  0.00     0.007 A 
ATOM     23  C   UNL d   1      13.242  12.061  -0.129  0.00  0.00     0.000 A 
ATOM     24  C   UNL d   1      13.106  12.871  -0.014  0.00  0.00     0.001 A 
ATOM     25  C   UNL d   1      13.754  13.384  -0.102  0.00  0.00     0.007 A 
BRANCH  21  26
ATOM     26  C   UNL d   1      15.360  12.022  -0.596  0.00  0.00     0.211 C 
ATOM     27  O   UNL d   1      15.954  11.953  -0.038  0.00  0.00    -0.644 OA
ATOM     28  O   UNL d   1      15.528  11.784  -1.383  0.00  0.00    -0.644 OA
ENDBRANCH  21  26
ENDBRANCH  19  20
ENDBRANCH   4  19
TORSDOF 6
ENDMDL
