MODEL 1
REMARK VINA RESULT:      57.4      0.000      0.000
REMARK  3 active torsions:
REMARK  status: ('A' for Active; 'I' for Inactive)
REMARK    1  A    between atoms: C_4  and  C_1 
REMARK    2  A    between atoms: C_9  and  N_2 
REMARK    3  A    between atoms: C_8  and  C_13 
ROOT
ATOM      1  N   UNL d   1     -50.017  26.749  33.693  0.00  0.00    -0.273 N 
ATOM      2  C   UNL d   1     -50.685  25.595  33.501  0.00  0.00     0.056 A 
ATOM      3  C   UNL d   1     -49.474  26.174  33.429  0.00  0.00     0.265 A 
ATOM      4  C   UNL d   1     -50.756  26.391  33.736  0.00  0.00     0.086 A 
ATOM      5  C   UNL d   1     -49.884  25.469  33.312  0.00  0.00     0.066 A 
ATOM      6  O   UNL d   1     -48.663  26.301  33.309  0.00  0.00    -0.267 OA
ENDROOT
BRANCH   1   7
ATOM      7  C   UNL d   1     -49.809  27.514  33.866  0.00  0.00     0.067 A 
ATOM      8  C   UNL d   1     -49.157  27.662  34.338  0.00  0.00     0.021 A 
ATOM      9  C   UNL d   1     -48.931  28.441  34.524  0.00  0.00     0.073 A 
ATOM     10  C   UNL d   1     -49.381  29.080  34.221  0.00  0.00     0.004 A 
ATOM     11  C   UNL d   1     -50.033  28.931  33.749  0.00  0.00     0.001 A 
ATOM     12  C   UNL d   1     -50.250  28.147  33.569  0.00  0.00     0.018 A 
BRANCH   9  13
ATOM     13  C   UNL d   1     -48.282  28.572  34.993  0.00  0.00     0.419 C 
ATOM     14  F   UNL d   1     -47.609  28.710  35.472  0.00  0.00    -0.166 F 
ATOM     15  F   UNL d   1     -48.655  28.204  35.624  0.00  0.00    -0.166 F 
ATOM     16  F   UNL d   1     -47.892  28.946  34.366  0.00  0.00    -0.166 F 
ENDBRANCH   9  13
ENDBRANCH   1   7
BRANCH   2  17
ATOM     17  C   UNL d   1     -51.320  25.078  33.479  0.00  0.00     0.142 A 
ATOM     18  N   UNL d   1     -51.327  24.283  33.425  0.00  0.00    -0.227 NA
ATOM     19  C   UNL d   1     -52.115  24.021  33.423  0.00  0.00     0.099 A 
ATOM     20  C   UNL d   1     -52.439  23.271  33.379  0.00  0.00     0.021 A 
ATOM     21  C   UNL d   1     -52.592  24.683  33.479  0.00  0.00     0.076 A 
ATOM     22  C   UNL d   1     -53.268  23.193  33.391  0.00  0.00     0.002 A 
ATOM     23  C   UNL d   1     -53.745  23.855  33.446  0.00  0.00     0.002 A 
ATOM     24  C   UNL d   1     -53.407  24.615  33.491  0.00  0.00     0.019 A 
ATOM     25  N   UNL d   1     -52.092  25.345  33.514  0.00  0.00    -0.338 N 
ATOM     26  H   UNL d   1     -52.333  26.147  33.574  0.00  0.00     0.167 HD
ENDBRANCH   2  17
TORSDOF 3
ENDMDL
