MODEL 1
REMARK VINA RESULT:      -6.4      0.000      0.000
REMARK  4 active torsions:
REMARK  status: ('A' for Active; 'I' for Inactive)
REMARK    1  A    between atoms: S_2  and  N_1 
REMARK    2  A    between atoms: C_10  and  S_2 
REMARK    3  A    between atoms: C_7  and  C_4 
REMARK    4  A    between atoms: C_11  and  C_5 
ROOT
ATOM      1  N   UNL d   1     -38.926  14.492  19.962  0.00  0.00    -0.152 N 
ATOM      2  N   UNL d   1     -38.466  14.260  19.296  0.00  0.00    -0.155 NA
ATOM      3  C   UNL d   1     -39.686  14.692  19.694  0.00  0.00     0.099 A 
ATOM      4  C   UNL d   1     -38.935  14.314  18.613  0.00  0.00     0.104 A 
ATOM      5  C   UNL d   1     -39.687  14.579  18.852  0.00  0.00     0.041 A 
ENDROOT
BRANCH   1   6
ATOM      6  S   UNL d   1     -38.684  14.520  20.735  0.00  0.00     0.286 S 
ATOM      7  O   UNL d   1     -38.678  15.437  20.740  0.00  0.00    -0.198 OA
ATOM      8  O   UNL d   1     -38.683  13.685  20.750  0.00  0.00    -0.198 OA
BRANCH   6   9
ATOM      9  C   UNL d   1     -38.450  14.294  21.488  0.00  0.00     0.105 A 
ATOM     10  C   UNL d   1     -38.489  13.500  21.711  0.00  0.00     0.013 A 
ATOM     11  C   UNL d   1     -38.253  13.272  22.469  0.00  0.00     0.001 A 
ATOM     12  C   UNL d   1     -37.986  13.845  22.981  0.00  0.00     0.000 A 
ATOM     13  C   UNL d   1     -37.940  14.633  22.781  0.00  0.00     0.001 A 
ATOM     14  C   UNL d   1     -38.175  14.861  22.023  0.00  0.00     0.013 A 
ENDBRANCH   6   9
ENDBRANCH   1   6
BRANCH   3  15
ATOM     15  C   UNL d   1     -40.322  14.950  20.151  0.00  0.00     0.058 A 
ATOM     16  C   UNL d   1     -40.966  14.460  20.228  0.00  0.00     0.197 A 
ATOM     17  O   UNL d   1     -41.015  13.729  19.878  0.00  0.00    -0.286 OA
ATOM     18  C   UNL d   1     -41.624  14.728  20.701  0.00  0.00     0.042 A 
ATOM     19  C   UNL d   1     -41.595  15.468  21.066  0.00  0.00     0.003 A 
ATOM     20  C   UNL d   1     -40.920  15.922  20.955  0.00  0.00     0.000 A 
ATOM     21  C   UNL d   1     -40.304  15.671  20.512  0.00  0.00     0.005 A 
ENDBRANCH   3  15
BRANCH   4  22
ATOM     22  C   UNL d   1     -38.691  14.137  17.863  0.00  0.00     0.019 A 
ATOM     23  C   UNL d   1     -38.490  14.750  17.342  0.00  0.00     0.002 A 
ATOM     24  C   UNL d   1     -38.244  14.574  16.589  0.00  0.00     0.000 A 
ATOM     25  C   UNL d   1     -38.199  13.821  16.359  0.00  0.00     0.000 A 
ATOM     26  C   UNL d   1     -38.387  13.206  16.841  0.00  0.00     0.000 A 
ATOM     27  C   UNL d   1     -37.947  13.665  15.589  0.00  0.00     0.000 C 
ATOM     28  C   UNL d   1     -38.640  13.362  17.614  0.00  0.00     0.002 A 
ENDBRANCH   4  22
TORSDOF 4
ENDMDL
MODEL 2
REMARK VINA RESULT:      -6.4      7.145      9.352
REMARK  4 active torsions:
REMARK  status: ('A' for Active; 'I' for Inactive)
REMARK    1  A    between atoms: S_2  and  N_1 
REMARK    2  A    between atoms: C_10  and  S_2 
REMARK    3  A    between atoms: C_7  and  C_4 
REMARK    4  A    between atoms: C_11  and  C_5 
ROOT
ATOM      1  N   UNL d   1     -47.606  13.503  22.665  0.00  0.00    -0.152 N 
ATOM      2  N   UNL d   1     -46.775  13.633  22.637  0.00  0.00    -0.155 NA
ATOM      3  C   UNL d   1     -47.758  12.743  22.367  0.00  0.00     0.099 A 
ATOM      4  C   UNL d   1     -46.407  12.958  22.321  0.00  0.00     0.104 A 
ATOM      5  C   UNL d   1     -47.008  12.407  22.153  0.00  0.00     0.041 A 
ENDROOT
BRANCH   1   6
ATOM      6  S   UNL d   1     -48.171  14.017  22.934  0.00  0.00     0.286 S 
ATOM      7  O   UNL d   1     -48.310  13.528  23.697  0.00  0.00    -0.198 OA
ATOM      8  O   UNL d   1     -48.058  14.477  22.245  0.00  0.00    -0.198 OA
BRANCH   6   9
ATOM      9  C   UNL d   1     -48.684  14.656  22.984  0.00  0.00     0.105 A 
ATOM     10  C   UNL d   1     -48.678  15.238  22.399  0.00  0.00     0.013 A 
ATOM     11  C   UNL d   1     -49.195  15.880  22.449  0.00  0.00     0.001 A 
ATOM     12  C   UNL d   1     -49.701  15.922  23.085  0.00  0.00     0.000 A 
ATOM     13  C   UNL d   1     -49.723  15.359  23.673  0.00  0.00     0.001 A 
ATOM     14  C   UNL d   1     -49.207  14.716  23.622  0.00  0.00     0.013 A 
ENDBRANCH   6   9
ENDBRANCH   1   6
BRANCH   3  15
ATOM     15  C   UNL d   1     -48.494  12.378  22.289  0.00  0.00     0.058 A 
ATOM     16  C   UNL d   1     -48.812  12.306  21.544  0.00  0.00     0.197 A 
ATOM     17  O   UNL d   1     -48.441  12.575  20.872  0.00  0.00    -0.286 OA
ATOM     18  C   UNL d   1     -49.573  11.929  21.463  0.00  0.00     0.042 A 
ATOM     19  C   UNL d   1     -49.967  11.648  22.133  0.00  0.00     0.003 A 
ATOM     20  C   UNL d   1     -49.600  11.747  22.860  0.00  0.00     0.000 A 
ATOM     21  C   UNL d   1     -48.888  12.100  22.936  0.00  0.00     0.005 A 
ENDBRANCH   3  15
BRANCH   4  22
ATOM     22  C   UNL d   1     -45.612  12.870  22.206  0.00  0.00     0.019 A 
ATOM     23  C   UNL d   1     -45.205  12.264  22.598  0.00  0.00     0.002 A 
ATOM     24  C   UNL d   1     -44.407  12.174  22.484  0.00  0.00     0.000 A 
ATOM     25  C   UNL d   1     -44.025  12.665  22.000  0.00  0.00     0.000 A 
ATOM     26  C   UNL d   1     -44.391  13.262  21.606  0.00  0.00     0.000 A 
ATOM     27  C   UNL d   1     -43.213  12.556  21.898  0.00  0.00     0.000 C 
ATOM     28  C   UNL d   1     -45.206  13.372  21.708  0.00  0.00     0.002 A 
ENDBRANCH   4  22
TORSDOF 4
ENDMDL
MODEL 3
REMARK VINA RESULT:      -6.1      7.928      9.811
REMARK  4 active torsions:
REMARK  status: ('A' for Active; 'I' for Inactive)
REMARK    1  A    between atoms: S_2  and  N_1 
REMARK    2  A    between atoms: C_10  and  S_2 
REMARK    3  A    between atoms: C_7  and  C_4 
REMARK    4  A    between atoms: C_11  and  C_5 
ROOT
ATOM      1  N   UNL d   1     -47.844  12.226  22.735  0.00  0.00    -0.152 N 
ATOM      2  N   UNL d   1     -47.334  11.587  22.937  0.00  0.00    -0.155 NA
ATOM      3  C   UNL d   1     -47.381  12.909  22.651  0.00  0.00     0.099 A 
ATOM      4  C   UNL d   1     -46.554  11.869  22.979  0.00  0.00     0.104 A 
ATOM      5  C   UNL d   1     -46.577  12.683  22.804  0.00  0.00     0.041 A 
ENDROOT
BRANCH   1   6
ATOM      6  S   UNL d   1     -48.648  12.195  22.636  0.00  0.00     0.286 S 
ATOM      7  O   UNL d   1     -48.577  12.240  21.724  0.00  0.00    -0.198 OA
ATOM      8  O   UNL d   1     -48.733  12.153  23.467  0.00  0.00    -0.198 OA
BRANCH   6   9
ATOM      9  C   UNL d   1     -49.452  12.152  22.794  0.00  0.00     0.105 A 
ATOM     10  C   UNL d   1     -49.715  11.914  23.539  0.00  0.00     0.013 A 
ATOM     11  C   UNL d   1     -50.525  11.871  23.698  0.00  0.00     0.001 A 
ATOM     12  C   UNL d   1     -51.047  12.068  23.106  0.00  0.00     0.000 A 
ATOM     13  C   UNL d   1     -50.809  12.306  22.364  0.00  0.00     0.001 A 
ATOM     14  C   UNL d   1     -49.999  12.349  22.206  0.00  0.00     0.013 A 
ENDBRANCH   6   9
ENDBRANCH   1   6
BRANCH   3  15
ATOM     15  C   UNL d   1     -47.644  13.667  22.456  0.00  0.00     0.058 A 
ATOM     16  C   UNL d   1     -47.438  14.284  22.944  0.00  0.00     0.197 A 
ATOM     17  O   UNL d   1     -46.987  14.192  23.614  0.00  0.00    -0.286 OA
ATOM     18  C   UNL d   1     -47.710  15.067  22.743  0.00  0.00     0.042 A 
ATOM     19  C   UNL d   1     -48.170  15.183  22.066  0.00  0.00     0.003 A 
ATOM     20  C   UNL d   1     -48.348  14.525  21.610  0.00  0.00     0.000 A 
ATOM     21  C   UNL d   1     -48.093  13.791  21.798  0.00  0.00     0.005 A 
ENDBRANCH   3  15
BRANCH   4  22
ATOM     22  C   UNL d   1     -45.905  11.422  23.159  0.00  0.00     0.019 A 
ATOM     23  C   UNL d   1     -45.148  11.703  22.970  0.00  0.00     0.002 A 
ATOM     24  C   UNL d   1     -44.496  11.255  23.149  0.00  0.00     0.000 A 
ATOM     25  C   UNL d   1     -44.587  10.556  23.502  0.00  0.00     0.000 A 
ATOM     26  C   UNL d   1     -45.308  10.258  23.698  0.00  0.00     0.000 A 
ATOM     27  C   UNL d   1     -43.910  10.117  23.676  0.00  0.00     0.000 C 
ATOM     28  C   UNL d   1     -45.987  10.698  23.524  0.00  0.00     0.002 A 
ENDBRANCH   4  22
TORSDOF 4
ENDMDL
MODEL 4
REMARK VINA RESULT:      -6.1      7.885      9.826
REMARK  4 active torsions:
REMARK  status: ('A' for Active; 'I' for Inactive)
REMARK    1  A    between atoms: S_2  and  N_1 
REMARK    2  A    between atoms: C_10  and  S_2 
REMARK    3  A    between atoms: C_7  and  C_4 
REMARK    4  A    between atoms: C_11  and  C_5 
ROOT
ATOM      1  N   UNL d   1     -47.769  12.895  22.997  0.00  0.00    -0.152 N 
ATOM      2  N   UNL d   1     -46.954  12.728  23.122  0.00  0.00    -0.155 NA
ATOM      3  C   UNL d   1     -48.167  12.174  22.892  0.00  0.00     0.099 A 
ATOM      4  C   UNL d   1     -46.840  11.905  23.096  0.00  0.00     0.104 A 
ATOM      5  C   UNL d   1     -47.584  11.559  22.955  0.00  0.00     0.041 A 
ENDROOT
BRANCH   1   6
ATOM      6  S   UNL d   1     -48.120  13.625  22.978  0.00  0.00     0.286 S 
ATOM      7  O   UNL d   1     -48.653  13.431  23.698  0.00  0.00    -0.198 OA
ATOM      8  O   UNL d   1     -47.643  13.821  22.321  0.00  0.00    -0.198 OA
BRANCH   6   9
ATOM      9  C   UNL d   1     -48.315  14.392  22.760  0.00  0.00     0.105 A 
ATOM     10  C   UNL d   1     -48.937  14.783  23.136  0.00  0.00     0.013 A 
ATOM     11  C   UNL d   1     -49.133  15.555  22.917  0.00  0.00     0.001 A 
ATOM     12  C   UNL d   1     -48.700  15.912  22.328  0.00  0.00     0.000 A 
ATOM     13  C   UNL d   1     -48.083  15.545  21.945  0.00  0.00     0.001 A 
ATOM     14  C   UNL d   1     -47.887  14.773  22.164  0.00  0.00     0.013 A 
ENDBRANCH   6   9
ENDBRANCH   1   6
BRANCH   3  15
ATOM     15  C   UNL d   1     -48.973  12.066  22.753  0.00  0.00     0.058 A 
ATOM     16  C   UNL d   1     -49.213  11.881  21.998  0.00  0.00     0.197 A 
ATOM     17  O   UNL d   1     -48.699  11.796  21.375  0.00  0.00    -0.286 OA
ATOM     18  C   UNL d   1     -50.047  11.770  21.855  0.00  0.00     0.042 A 
ATOM     19  C   UNL d   1     -50.587  11.852  22.475  0.00  0.00     0.003 A 
ATOM     20  C   UNL d   1     -50.290  12.040  23.216  0.00  0.00     0.000 A 
ATOM     21  C   UNL d   1     -49.509  12.144  23.351  0.00  0.00     0.005 A 
ENDBRANCH   3  15
BRANCH   4  22
ATOM     22  C   UNL d   1     -46.132  11.529  23.193  0.00  0.00     0.019 A 
ATOM     23  C   UNL d   1     -46.103  10.807  23.600  0.00  0.00     0.002 A 
ATOM     24  C   UNL d   1     -45.392  10.428  23.697  0.00  0.00     0.000 A 
ATOM     25  C   UNL d   1     -44.735  10.749  23.404  0.00  0.00     0.000 A 
ATOM     26  C   UNL d   1     -44.731  11.447  23.005  0.00  0.00     0.000 A 
ATOM     27  C   UNL d   1     -44.023  10.346  23.514  0.00  0.00     0.000 C 
ATOM     28  C   UNL d   1     -45.445  11.851  22.893  0.00  0.00     0.002 A 
ENDBRANCH   4  22
TORSDOF 4
ENDMDL
MODEL 5
REMARK VINA RESULT:      -6.1      1.254      4.070
REMARK  4 active torsions:
REMARK  status: ('A' for Active; 'I' for Inactive)
REMARK    1  A    between atoms: S_2  and  N_1 
REMARK    2  A    between atoms: C_10  and  S_2 
REMARK    3  A    between atoms: C_7  and  C_4 
REMARK    4  A    between atoms: C_11  and  C_5 
ROOT
ATOM      1  N   UNL d   1     -38.884  14.266  19.056  0.00  0.00    -0.152 N 
ATOM      2  N   UNL d   1     -38.560  14.085  19.811  0.00  0.00    -0.155 NA
ATOM      3  C   UNL d   1     -39.576  14.709  19.172  0.00  0.00     0.099 A 
ATOM      4  C   UNL d   1     -39.047  14.413  20.399  0.00  0.00     0.104 A 
ATOM      5  C   UNL d   1     -39.674  14.799  20.010  0.00  0.00     0.041 A 
ENDROOT
BRANCH   1   6
ATOM      6  S   UNL d   1     -38.585  14.053  18.334  0.00  0.00     0.286 S 
ATOM      7  O   UNL d   1     -38.312  14.908  18.150  0.00  0.00    -0.198 OA
ATOM      8  O   UNL d   1     -38.826  13.267  18.483  0.00  0.00    -0.198 OA
BRANCH   6   9
ATOM      9  C   UNL d   1     -38.368  13.607  17.679  0.00  0.00     0.105 A 
ATOM     10  C   UNL d   1     -38.362  12.782  17.725  0.00  0.00     0.013 A 
ATOM     11  C   UNL d   1     -38.144  12.334  17.067  0.00  0.00     0.001 A 
ATOM     12  C   UNL d   1     -37.940  12.723  16.382  0.00  0.00     0.000 A 
ATOM     13  C   UNL d   1     -37.940  13.535  16.316  0.00  0.00     0.001 A 
ATOM     14  C   UNL d   1     -38.157  13.983  16.975  0.00  0.00     0.013 A 
ENDBRANCH   6   9
ENDBRANCH   1   6
BRANCH   3  15
ATOM     15  C   UNL d   1     -40.078  15.008  18.589  0.00  0.00     0.058 A 
ATOM     16  C   UNL d   1     -40.805  14.658  18.489  0.00  0.00     0.197 A 
ATOM     17  O   UNL d   1     -41.062  14.029  18.934  0.00  0.00    -0.286 OA
ATOM     18  C   UNL d   1     -41.324  14.967  17.886  0.00  0.00     0.042 A 
ATOM     19  C   UNL d   1     -41.082  15.607  17.422  0.00  0.00     0.003 A 
ATOM     20  C   UNL d   1     -40.338  15.922  17.566  0.00  0.00     0.000 A 
ATOM     21  C   UNL d   1     -39.852  15.632  18.130  0.00  0.00     0.005 A 
ENDBRANCH   3  15
BRANCH   4  22
ATOM     22  C   UNL d   1     -38.920  14.359  21.195  0.00  0.00     0.019 A 
ATOM     23  C   UNL d   1     -38.616  15.010  21.608  0.00  0.00     0.002 A 
ATOM     24  C   UNL d   1     -38.488  14.957  22.407  0.00  0.00     0.000 A 
ATOM     25  C   UNL d   1     -38.654  14.285  22.785  0.00  0.00     0.000 A 
ATOM     26  C   UNL d   1     -38.950  13.637  22.412  0.00  0.00     0.000 A 
ATOM     27  C   UNL d   1     -38.516  14.252  23.598  0.00  0.00     0.000 C 
ATOM     28  C   UNL d   1     -39.088  13.669  21.596  0.00  0.00     0.002 A 
ENDBRANCH   4  22
TORSDOF 4
ENDMDL
MODEL 6
REMARK VINA RESULT:      -5.1      0.815      2.555
REMARK  4 active torsions:
REMARK  status: ('A' for Active; 'I' for Inactive)
REMARK    1  A    between atoms: S_2  and  N_1 
REMARK    2  A    between atoms: C_10  and  S_2 
REMARK    3  A    between atoms: C_7  and  C_4 
REMARK    4  A    between atoms: C_11  and  C_5 
ROOT
ATOM      1  N   UNL d   1     -39.502  14.821  19.302  0.00  0.00    -0.152 N 
ATOM      2  N   UNL d   1     -39.526  14.733  18.465  0.00  0.00    -0.155 NA
ATOM      3  C   UNL d   1     -38.757  14.567  19.567  0.00  0.00     0.099 A 
ATOM      4  C   UNL d   1     -38.799  14.425  18.206  0.00  0.00     0.104 A 
ATOM      5  C   UNL d   1     -38.322  14.321  18.881  0.00  0.00     0.041 A 
ENDROOT
BRANCH   1   6
ATOM      6  S   UNL d   1     -40.093  15.102  19.779  0.00  0.00     0.286 S 
ATOM      7  O   UNL d   1     -39.691  15.922  19.862  0.00  0.00    -0.198 OA
ATOM      8  O   UNL d   1     -40.476  14.362  19.716  0.00  0.00    -0.198 OA
BRANCH   6   9
ATOM      9  C   UNL d   1     -40.782  15.149  20.223  0.00  0.00     0.105 A 
ATOM     10  C   UNL d   1     -40.995  15.863  20.580  0.00  0.00     0.013 A 
ATOM     11  C   UNL d   1     -41.689  15.910  21.027  0.00  0.00     0.001 A 
ATOM     12  C   UNL d   1     -42.148  15.243  21.102  0.00  0.00     0.000 A 
ATOM     13  C   UNL d   1     -41.956  14.530  20.757  0.00  0.00     0.001 A 
ATOM     14  C   UNL d   1     -41.263  14.483  20.311  0.00  0.00     0.013 A 
ENDBRANCH   6   9
ENDBRANCH   1   6
BRANCH   3  15
ATOM     15  C   UNL d   1     -38.485  14.554  20.345  0.00  0.00     0.058 A 
ATOM     16  C   UNL d   1     -38.338  13.832  20.690  0.00  0.00     0.197 A 
ATOM     17  O   UNL d   1     -38.446  13.124  20.307  0.00  0.00    -0.286 OA
ATOM     18  C   UNL d   1     -38.057  13.818  21.495  0.00  0.00     0.042 A 
ATOM     19  C   UNL d   1     -37.940  14.527  21.905  0.00  0.00     0.003 A 
ATOM     20  C   UNL d   1     -38.104  15.226  21.508  0.00  0.00     0.000 A 
ATOM     21  C   UNL d   1     -38.368  15.239  20.754  0.00  0.00     0.005 A 
ENDBRANCH   3  15
BRANCH   4  22
ATOM     22  C   UNL d   1     -38.608  14.263  17.438  0.00  0.00     0.019 A 
ATOM     23  C   UNL d   1     -38.517  13.476  17.195  0.00  0.00     0.002 A 
ATOM     24  C   UNL d   1     -38.325  13.312  16.424  0.00  0.00     0.000 A 
ATOM     25  C   UNL d   1     -38.227  13.903  15.912  0.00  0.00     0.000 A 
ATOM     26  C   UNL d   1     -38.308  14.676  16.117  0.00  0.00     0.000 A 
ATOM     27  C   UNL d   1     -38.032  13.713  15.132  0.00  0.00     0.000 C 
ATOM     28  C   UNL d   1     -38.504  14.866  16.899  0.00  0.00     0.002 A 
ENDBRANCH   4  22
TORSDOF 4
ENDMDL
