MODEL 1
REMARK VINA RESULT:      -3.2      0.000      0.000
REMARK  7 active torsions:
REMARK  status: ('A' for Active; 'I' for Inactive)
REMARK    1  A    between atoms: C_6  and  C_13 
REMARK       I    between atoms: N_12  and  C_6 
REMARK    2  A    between atoms: O_8  and  C_7 
REMARK    3  A    between atoms: C_13  and  O_8 
REMARK    4  A    between atoms: O_14  and  C_10 
REMARK    5  A    between atoms: C_11  and  C_20 
REMARK    6  A    between atoms: C_15  and  N_12 
REMARK    7  A    between atoms: C_20  and  C_15 
ROOT
ATOM      1  C   UNL d   1     -41.915-122.251 -51.465  0.00  0.00     0.304 C 
ATOM      2  O   UNL d   1     -41.125-122.495 -51.419  0.00  0.00    -0.263 OA
ATOM      3  N   UNL d   1     -42.242-122.002 -52.175  0.00  0.00    -0.205 NA
ENDROOT
BRANCH   1   4
ATOM      4  C   UNL d   1     -42.382-122.259 -50.782  0.00  0.00     0.185 C 
BRANCH   4   5
ATOM      5  O   UNL d   1     -42.104-122.630 -50.102  0.00  0.00    -0.298 OA
BRANCH   5   6
ATOM      6  C   UNL d   1     -42.627-123.023 -49.611  0.00  0.00     0.122 A 
ATOM      7  C   UNL d   1     -42.432-123.157 -48.820  0.00  0.00     0.117 A 
ATOM      8  O   UNL d   1     -41.755-122.958 -48.379  0.00  0.00    -0.330 OA
ATOM      9  C   UNL d   1     -42.960-123.554 -48.324  0.00  0.00     0.022 A 
ATOM     10  C   UNL d   1     -41.870-123.237 -47.605  0.00  0.00     0.117 A 
ATOM     11  C   UNL d   1     -42.063-123.539 -46.877  0.00  0.00     0.035 C 
ATOM     12  C   UNL d   1     -41.125-122.903 -47.518  0.00  0.00     0.035 C 
ATOM     13  C   UNL d   1     -42.612-123.603 -47.574  0.00  0.00     0.003 A 
ATOM     14  C   UNL d   1     -43.681-123.816 -48.621  0.00  0.00     0.002 A 
ATOM     15  C   UNL d   1     -43.872-123.684 -49.400  0.00  0.00     0.002 A 
ATOM     16  C   UNL d   1     -43.344-123.287 -49.895  0.00  0.00     0.027 A 
ENDBRANCH   5   6
ENDBRANCH   4   5
ENDBRANCH   1   4
BRANCH   3  17
ATOM     17  C   UNL d   1     -41.781-121.993 -52.851  0.00  0.00     0.102 C 
BRANCH  17  18
ATOM     18  C   UNL d   1     -42.132-122.019 -53.602  0.00  0.00     0.023 C 
BRANCH  18  19
ATOM     19  C   UNL d   1     -41.849-122.529 -54.177  0.00  0.00     0.024 A 
ATOM     20  C   UNL d   1     -41.997-122.376 -54.974  0.00  0.00     0.094 A 
ATOM     21  C   UNL d   1     -41.706-122.898 -55.545  0.00  0.00     0.024 A 
ATOM     22  C   UNL d   1     -41.272-123.565 -55.328  0.00  0.00     0.002 A 
ATOM     23  C   UNL d   1     -41.123-123.721 -54.540  0.00  0.00     0.000 A 
ATOM     24  C   UNL d   1     -41.405-123.212 -53.960  0.00  0.00     0.002 A 
BRANCH  20  25
ATOM     25  O   UNL d   1     -42.425-121.719 -55.190  0.00  0.00    -0.328 OA
ATOM     26  C   UNL d   1     -42.655-121.622 -55.969  0.00  0.00     0.181 C 
ENDBRANCH  20  25
ENDBRANCH  18  19
ENDBRANCH  17  18
ENDBRANCH   3  17
TORSDOF 7
ENDMDL
