MODEL 1
REMARK VINA RESULT:      -8.4      0.000      0.000
REMARK  6 active torsions:
REMARK  status: ('A' for Active; 'I' for Inactive)
REMARK    1  A    between atoms: C_2  and  S_1 
REMARK    2  A    between atoms: N_4  and  S_1 
REMARK    3  A    between atoms: C_18  and  N_4 
REMARK    4  A    between atoms: O_20  and  C_6 
REMARK    5  A    between atoms: C_19  and  C_18 
REMARK    6  A    between atoms: C_24  and  O_20 
ROOT
ATOM      1  S   UNL d   1      52.662  32.667  53.209  0.00  0.00     0.327 S 
ATOM      2  O   UNL d   1      53.282  32.759  52.661  0.00  0.00    -0.186 OA
ATOM      3  O   UNL d   1      52.046  32.573  53.753  0.00  0.00    -0.186 OA
ENDROOT
BRANCH   1   4
ATOM      4  C   UNL d   1      52.767  33.440  53.463  0.00  0.00     0.118 A 
ATOM      5  C   UNL d   1      53.353  33.624  54.020  0.00  0.00     0.039 A 
ATOM      6  C   UNL d   1      53.460  34.400  54.276  0.00  0.00     0.101 A 
ATOM      7  C   UNL d   1      52.977  35.006  53.974  0.00  0.00     0.023 A 
ATOM      8  C   UNL d   1      52.393  34.826  53.419  0.00  0.00     0.003 A 
ATOM      9  C   UNL d   1      53.078  35.780  54.224  0.00  0.00     0.002 C 
ATOM     10  C   UNL d   1      52.283  34.045  53.160  0.00  0.00     0.013 A 
ATOM     11  C   UNL d   1      51.700  33.871  52.607  0.00  0.00     0.001 C 
BRANCH   6  12
ATOM     12  O   UNL d   1      54.040  34.576  54.826  0.00  0.00    -0.305 OA
BRANCH  12  13
ATOM     13  C   UNL d   1      54.479  33.967  55.156  0.00  0.00     0.123 C 
ATOM     14  C   UNL d   1      55.219  34.135  55.480  0.00  0.00     0.029 C 
ENDBRANCH  12  13
ENDBRANCH   6  12
ENDBRANCH   1   4
BRANCH   1  15
ATOM     15  N   UNL d   1      52.555  31.896  52.958  0.00  0.00    -0.314 NA
BRANCH  15  16
ATOM     16  C   UNL d   1      52.450  31.117  52.707  0.00  0.00     0.176 C 
BRANCH  16  17
ATOM     17  C   UNL d   1      52.812  30.490  53.112  0.00  0.00     0.035 A 
ATOM     18  C   UNL d   1      52.439  30.140  53.754  0.00  0.00     0.029 A 
ATOM     19  C   UNL d   1      52.801  29.516  54.156  0.00  0.00     0.119 A 
ATOM     20  O   UNL d   1      52.561  29.066  54.808  0.00  0.00    -0.300 OA
ATOM     21  C   UNL d   1      53.547  29.243  53.909  0.00  0.00     0.119 A 
ATOM     22  C   UNL d   1      53.159  28.515  54.963  0.00  0.00     0.304 A 
ATOM     23  O   UNL d   1      53.764  28.625  54.410  0.00  0.00    -0.300 OA
ATOM     24  C   UNL d   1      53.921  29.597  53.263  0.00  0.00     0.026 A 
ATOM     25  C   UNL d   1      53.558  30.217  52.865  0.00  0.00     0.005 A 
ENDBRANCH  16  17
ENDBRANCH  15  16
ENDBRANCH   1  15
TORSDOF 6
ENDMDL
MODEL 2
REMARK VINA RESULT:      -7.6      1.028      1.970
REMARK  6 active torsions:
REMARK  status: ('A' for Active; 'I' for Inactive)
REMARK    1  A    between atoms: C_2  and  S_1 
REMARK    2  A    between atoms: N_4  and  S_1 
REMARK    3  A    between atoms: C_18  and  N_4 
REMARK    4  A    between atoms: O_20  and  C_6 
REMARK    5  A    between atoms: C_19  and  C_18 
REMARK    6  A    between atoms: C_24  and  O_20 
ROOT
ATOM      1  S   UNL d   1      53.722  32.948  53.820  0.00  0.00     0.327 S 
ATOM      2  O   UNL d   1      53.956  33.230  53.072  0.00  0.00    -0.186 OA
ATOM      3  O   UNL d   1      53.491  32.667  54.562  0.00  0.00    -0.186 OA
ENDROOT
BRANCH   1   4
ATOM      4  C   UNL d   1      53.428  33.690  54.010  0.00  0.00     0.118 A 
ATOM      5  C   UNL d   1      52.720  33.960  53.675  0.00  0.00     0.039 A 
ATOM      6  C   UNL d   1      52.422  34.705  53.865  0.00  0.00     0.101 A 
ATOM      7  C   UNL d   1      52.835  35.192  54.398  0.00  0.00     0.023 A 
ATOM      8  C   UNL d   1      53.541  34.925  54.734  0.00  0.00     0.003 A 
ATOM      9  C   UNL d   1      52.546  35.934  54.592  0.00  0.00     0.002 C 
ATOM     10  C   UNL d   1      53.842  34.176  54.544  0.00  0.00     0.013 A 
ATOM     11  C   UNL d   1      54.545  33.916  54.881  0.00  0.00     0.001 C 
BRANCH   6  12
ATOM     12  O   UNL d   1      51.723  34.967  53.531  0.00  0.00    -0.305 OA
BRANCH  12  13
ATOM     13  C   UNL d   1      51.280  34.453  53.071  0.00  0.00     0.123 C 
ATOM     14  C   UNL d   1      50.519  34.673  52.841  0.00  0.00     0.029 C 
ENDBRANCH  12  13
ENDBRANCH   6  12
ENDBRANCH   1   4
BRANCH   1  15
ATOM     15  N   UNL d   1      54.016  32.208  53.633  0.00  0.00    -0.314 NA
BRANCH  15  16
ATOM     16  C   UNL d   1      54.314  31.463  53.442  0.00  0.00     0.176 C 
BRANCH  16  17
ATOM     17  C   UNL d   1      53.828  30.792  53.477  0.00  0.00     0.035 A 
ATOM     18  C   UNL d   1      53.877  30.276  54.114  0.00  0.00     0.029 A 
ATOM     19  C   UNL d   1      53.392  29.608  54.147  0.00  0.00     0.119 A 
ATOM     20  O   UNL d   1      53.321  29.004  54.709  0.00  0.00    -0.300 OA
ATOM     21  C   UNL d   1      52.853  29.459  53.531  0.00  0.00     0.119 A 
ATOM     22  C   UNL d   1      52.739  28.482  54.439  0.00  0.00     0.304 A 
ATOM     23  O   UNL d   1      52.452  28.763  53.717  0.00  0.00    -0.300 OA
ATOM     24  C   UNL d   1      52.806  29.979  52.892  0.00  0.00     0.026 A 
ATOM     25  C   UNL d   1      53.289  30.642  52.861  0.00  0.00     0.005 A 
ENDBRANCH  16  17
ENDBRANCH  15  16
ENDBRANCH   1  15
TORSDOF 6
ENDMDL
MODEL 3
REMARK VINA RESULT:      -6.4      1.846      4.890
REMARK  6 active torsions:
REMARK  status: ('A' for Active; 'I' for Inactive)
REMARK    1  A    between atoms: C_2  and  S_1 
REMARK    2  A    between atoms: N_4  and  S_1 
REMARK    3  A    between atoms: C_18  and  N_4 
REMARK    4  A    between atoms: O_20  and  C_6 
REMARK    5  A    between atoms: C_19  and  C_18 
REMARK    6  A    between atoms: C_24  and  O_20 
ROOT
ATOM      1  S   UNL d   1      52.647  33.003  53.105  0.00  0.00     0.327 S 
ATOM      2  O   UNL d   1      52.463  33.061  53.915  0.00  0.00    -0.186 OA
ATOM      3  O   UNL d   1      52.828  32.948  52.300  0.00  0.00    -0.186 OA
ENDROOT
BRANCH   1   4
ATOM      4  C   UNL d   1      53.028  32.289  53.238  0.00  0.00     0.118 A 
ATOM      5  C   UNL d   1      52.641  31.571  53.087  0.00  0.00     0.039 A 
ATOM      6  C   UNL d   1      53.022  30.852  53.221  0.00  0.00     0.101 A 
ATOM      7  C   UNL d   1      53.802  30.845  53.510  0.00  0.00     0.023 A 
ATOM      8  C   UNL d   1      54.189  31.558  53.662  0.00  0.00     0.003 A 
ATOM      9  C   UNL d   1      54.187  30.134  53.645  0.00  0.00     0.002 C 
ATOM     10  C   UNL d   1      53.808  32.282  53.528  0.00  0.00     0.013 A 
ATOM     11  C   UNL d   1      54.199  32.990  53.681  0.00  0.00     0.001 C 
BRANCH   6  12
ATOM     12  O   UNL d   1      52.635  30.147  53.069  0.00  0.00    -0.305 OA
BRANCH  12  13
ATOM     13  C   UNL d   1      52.000  29.928  53.539  0.00  0.00     0.123 C 
ATOM     14  C   UNL d   1      51.623  29.208  53.395  0.00  0.00     0.029 C 
ENDBRANCH  12  13
ENDBRANCH   6  12
ENDBRANCH   1   4
BRANCH   1  15
ATOM     15  N   UNL d   1      52.268  33.716  52.970  0.00  0.00    -0.314 NA
BRANCH  15  16
ATOM     16  C   UNL d   1      51.889  34.435  52.831  0.00  0.00     0.176 C 
BRANCH  16  17
ATOM     17  C   UNL d   1      51.101  34.454  52.572  0.00  0.00     0.035 A 
ATOM     18  C   UNL d   1      50.924  34.379  51.774  0.00  0.00     0.029 A 
ATOM     19  C   UNL d   1      50.139  34.397  51.518  0.00  0.00     0.119 A 
ATOM     20  O   UNL d   1      49.802  34.336  50.764  0.00  0.00    -0.300 OA
ATOM     21  C   UNL d   1      49.526  34.493  52.072  0.00  0.00     0.119 A 
ATOM     22  C   UNL d   1      48.982  34.394  50.853  0.00  0.00     0.304 A 
ATOM     23  O   UNL d   1      48.814  34.491  51.657  0.00  0.00    -0.300 OA
ATOM     24  C   UNL d   1      49.707  34.569  52.874  0.00  0.00     0.026 A 
ATOM     25  C   UNL d   1      50.488  34.550  53.126  0.00  0.00     0.005 A 
ENDBRANCH  16  17
ENDBRANCH  15  16
ENDBRANCH   1  15
TORSDOF 6
ENDMDL
MODEL 4
REMARK VINA RESULT:      -6.0      1.183      4.786
REMARK  6 active torsions:
REMARK  status: ('A' for Active; 'I' for Inactive)
REMARK    1  A    between atoms: C_2  and  S_1 
REMARK    2  A    between atoms: N_4  and  S_1 
REMARK    3  A    between atoms: C_18  and  N_4 
REMARK    4  A    between atoms: O_20  and  C_6 
REMARK    5  A    between atoms: C_19  and  C_18 
REMARK    6  A    between atoms: C_24  and  O_20 
ROOT
ATOM      1  S   UNL d   1      53.837  31.683  53.774  0.00  0.00     0.327 S 
ATOM      2  O   UNL d   1      54.295  31.605  53.083  0.00  0.00    -0.186 OA
ATOM      3  O   UNL d   1      53.384  31.762  54.461  0.00  0.00    -0.186 OA
ENDROOT
BRANCH   1   4
ATOM      4  C   UNL d   1      53.430  30.996  53.586  0.00  0.00     0.118 A 
ATOM      5  C   UNL d   1      53.606  30.284  53.971  0.00  0.00     0.039 A 
ATOM      6  C   UNL d   1      53.198  29.592  53.783  0.00  0.00     0.101 A 
ATOM      7  C   UNL d   1      52.603  29.608  53.202  0.00  0.00     0.023 A 
ATOM      8  C   UNL d   1      52.426  30.316  52.817  0.00  0.00     0.003 A 
ATOM      9  C   UNL d   1      52.193  28.925  53.010  0.00  0.00     0.002 C 
ATOM     10  C   UNL d   1      52.835  31.013  53.004  0.00  0.00     0.013 A 
ATOM     11  C   UNL d   1      52.654  31.716  52.617  0.00  0.00     0.001 C 
BRANCH   6  12
ATOM     12  O   UNL d   1      53.376  28.892  54.166  0.00  0.00    -0.305 OA
BRANCH  12  13
ATOM     13  C   UNL d   1      53.344  28.862  54.985  0.00  0.00     0.123 C 
ATOM     14  C   UNL d   1      53.615  28.187  55.374  0.00  0.00     0.029 C 
ENDBRANCH  12  13
ENDBRANCH   6  12
ENDBRANCH   1   4
BRANCH   1  15
ATOM     15  N   UNL d   1      54.242  32.368  53.964  0.00  0.00    -0.314 NA
BRANCH  15  16
ATOM     16  C   UNL d   1      54.651  33.060  54.151  0.00  0.00     0.176 C 
BRANCH  16  17
ATOM     17  C   UNL d   1      54.253  33.713  54.471  0.00  0.00     0.035 A 
ATOM     18  C   UNL d   1      53.838  34.226  53.982  0.00  0.00     0.029 A 
ATOM     19  C   UNL d   1      53.442  34.876  54.302  0.00  0.00     0.119 A 
ATOM     20  O   UNL d   1      52.989  35.475  53.952  0.00  0.00    -0.300 OA
ATOM     21  C   UNL d   1      53.463  35.010  55.123  0.00  0.00     0.119 A 
ATOM     22  C   UNL d   1      52.731  35.977  54.557  0.00  0.00     0.304 A 
ATOM     23  O   UNL d   1      53.023  35.690  55.275  0.00  0.00    -0.300 OA
ATOM     24  C   UNL d   1      53.880  34.491  55.612  0.00  0.00     0.026 A 
ATOM     25  C   UNL d   1      54.274  33.846  55.292  0.00  0.00     0.005 A 
ENDBRANCH  16  17
ENDBRANCH  15  16
ENDBRANCH   1  15
TORSDOF 6
ENDMDL
MODEL 5
REMARK VINA RESULT:      -5.9      2.333      3.741
REMARK  6 active torsions:
REMARK  status: ('A' for Active; 'I' for Inactive)
REMARK    1  A    between atoms: C_2  and  S_1 
REMARK    2  A    between atoms: N_4  and  S_1 
REMARK    3  A    between atoms: C_18  and  N_4 
REMARK    4  A    between atoms: O_20  and  C_6 
REMARK    5  A    between atoms: C_19  and  C_18 
REMARK    6  A    between atoms: C_24  and  O_20 
ROOT
ATOM      1  S   UNL d   1      51.160  34.239  53.206  0.00  0.00     0.327 S 
ATOM      2  O   UNL d   1      51.524  34.950  52.969  0.00  0.00    -0.186 OA
ATOM      3  O   UNL d   1      50.801  33.534  53.443  0.00  0.00    -0.186 OA
ENDROOT
BRANCH   1   4
ATOM      4  C   UNL d   1      50.511  34.411  52.735  0.00  0.00     0.118 A 
ATOM      5  C   UNL d   1      49.825  34.738  53.067  0.00  0.00     0.039 A 
ATOM      6  C   UNL d   1      49.171  34.912  52.596  0.00  0.00     0.101 A 
ATOM      7  C   UNL d   1      49.199  34.758  51.779  0.00  0.00     0.023 A 
ATOM      8  C   UNL d   1      49.880  34.433  51.446  0.00  0.00     0.003 A 
ATOM      9  C   UNL d   1      48.553  34.928  51.303  0.00  0.00     0.002 C 
ATOM     10  C   UNL d   1      50.539  34.257  51.918  0.00  0.00     0.013 A 
ATOM     11  C   UNL d   1      51.215  33.933  51.581  0.00  0.00     0.001 C 
BRANCH   6  12
ATOM     12  O   UNL d   1      48.498  35.234  52.929  0.00  0.00    -0.305 OA
BRANCH  12  13
ATOM     13  C   UNL d   1      48.564  35.890  53.416  0.00  0.00     0.123 C 
ATOM     14  C   UNL d   1      47.894  36.170  53.808  0.00  0.00     0.029 C 
ENDBRANCH  12  13
ENDBRANCH   6  12
ENDBRANCH   1   4
BRANCH   1  15
ATOM     15  N   UNL d   1      51.807  34.066  53.676  0.00  0.00    -0.314 NA
BRANCH  15  16
ATOM     16  C   UNL d   1      52.458  33.894  54.153  0.00  0.00     0.176 C 
BRANCH  16  17
ATOM     17  C   UNL d   1      52.989  33.293  53.941  0.00  0.00     0.035 A 
ATOM     18  C   UNL d   1      52.769  32.504  53.999  0.00  0.00     0.029 A 
ATOM     19  C   UNL d   1      53.298  31.907  53.788  0.00  0.00     0.119 A 
ATOM     20  O   UNL d   1      53.230  31.082  53.789  0.00  0.00    -0.300 OA
ATOM     21  C   UNL d   1      54.059  32.107  53.515  0.00  0.00     0.119 A 
ATOM     22  C   UNL d   1      53.948  30.773  53.517  0.00  0.00     0.304 A 
ATOM     23  O   UNL d   1      54.455  31.404  53.350  0.00  0.00    -0.300 OA
ATOM     24  C   UNL d   1      54.278  32.901  53.458  0.00  0.00     0.026 A 
ATOM     25  C   UNL d   1      53.749  33.493  53.668  0.00  0.00     0.005 A 
ENDBRANCH  16  17
ENDBRANCH  15  16
ENDBRANCH   1  15
TORSDOF 6
ENDMDL
MODEL 6
REMARK VINA RESULT:      -5.9      3.083      4.961
REMARK  6 active torsions:
REMARK  status: ('A' for Active; 'I' for Inactive)
REMARK    1  A    between atoms: C_2  and  S_1 
REMARK    2  A    between atoms: N_4  and  S_1 
REMARK    3  A    between atoms: C_18  and  N_4 
REMARK    4  A    between atoms: O_20  and  C_6 
REMARK    5  A    between atoms: C_19  and  C_18 
REMARK    6  A    between atoms: C_24  and  O_20 
ROOT
ATOM      1  S   UNL d   1      49.964  34.464  52.290  0.00  0.00     0.327 S 
ATOM      2  O   UNL d   1      49.655  34.074  52.958  0.00  0.00    -0.186 OA
ATOM      3  O   UNL d   1      50.273  34.850  51.628  0.00  0.00    -0.186 OA
ENDROOT
BRANCH   1   4
ATOM      4  C   UNL d   1      49.251  34.854  52.184  0.00  0.00     0.118 A 
ATOM      5  C   UNL d   1      48.971  35.385  52.756  0.00  0.00     0.039 A 
ATOM      6  C   UNL d   1      48.254  35.777  52.651  0.00  0.00     0.101 A 
ATOM      7  C   UNL d   1      47.805  35.640  51.964  0.00  0.00     0.023 A 
ATOM      8  C   UNL d   1      48.080  35.113  51.393  0.00  0.00     0.003 A 
ATOM      9  C   UNL d   1      47.090  36.027  51.852  0.00  0.00     0.002 C 
ATOM     10  C   UNL d   1      48.802  34.717  51.497  0.00  0.00     0.013 A 
ATOM     11  C   UNL d   1      49.072  34.191  50.924  0.00  0.00     0.001 C 
BRANCH   6  12
ATOM     12  O   UNL d   1      47.983  36.300  53.219  0.00  0.00    -0.305 OA
BRANCH  12  13
ATOM     13  C   UNL d   1      47.979  36.071  54.006  0.00  0.00     0.123 C 
ATOM     14  C   UNL d   1      47.754  36.618  54.582  0.00  0.00     0.029 C 
ENDBRANCH  12  13
ENDBRANCH   6  12
ENDBRANCH   1   4
BRANCH   1  15
ATOM     15  N   UNL d   1      50.677  34.077  52.395  0.00  0.00    -0.314 NA
BRANCH  15  16
ATOM     16  C   UNL d   1      51.396  33.683  52.497  0.00  0.00     0.176 C 
BRANCH  16  17
ATOM     17  C   UNL d   1      51.971  33.984  53.013  0.00  0.00     0.035 A 
ATOM     18  C   UNL d   1      52.175  33.572  53.693  0.00  0.00     0.029 A 
ATOM     19  C   UNL d   1      52.748  33.873  54.206  0.00  0.00     0.119 A 
ATOM     20  O   UNL d   1      53.059  33.585  54.918  0.00  0.00    -0.300 OA
ATOM     21  C   UNL d   1      53.121  34.596  54.031  0.00  0.00     0.119 A 
ATOM     22  C   UNL d   1      53.623  34.131  55.181  0.00  0.00     0.304 A 
ATOM     23  O   UNL d   1      53.659  34.750  54.635  0.00  0.00    -0.300 OA
ATOM     24  C   UNL d   1      52.914  35.008  53.345  0.00  0.00     0.026 A 
ATOM     25  C   UNL d   1      52.344  34.707  52.838  0.00  0.00     0.005 A 
ENDBRANCH  16  17
ENDBRANCH  15  16
ENDBRANCH   1  15
TORSDOF 6
ENDMDL
MODEL 7
REMARK VINA RESULT:      -5.9      2.598      4.989
REMARK  6 active torsions:
REMARK  status: ('A' for Active; 'I' for Inactive)
REMARK    1  A    between atoms: C_2  and  S_1 
REMARK    2  A    between atoms: N_4  and  S_1 
REMARK    3  A    between atoms: C_18  and  N_4 
REMARK    4  A    between atoms: O_20  and  C_6 
REMARK    5  A    between atoms: C_19  and  C_18 
REMARK    6  A    between atoms: C_24  and  O_20 
ROOT
ATOM      1  S   UNL d   1      51.324  33.832  52.852  0.00  0.00     0.327 S 
ATOM      2  O   UNL d   1      51.699  34.217  52.217  0.00  0.00    -0.186 OA
ATOM      3  O   UNL d   1      50.950  33.449  53.482  0.00  0.00    -0.186 OA
ENDROOT
BRANCH   1   4
ATOM      4  C   UNL d   1      52.041  33.780  53.248  0.00  0.00     0.118 A 
ATOM      5  C   UNL d   1      52.345  34.434  53.655  0.00  0.00     0.039 A 
ATOM      6  C   UNL d   1      53.065  34.385  54.053  0.00  0.00     0.101 A 
ATOM      7  C   UNL d   1      53.492  33.670  54.047  0.00  0.00     0.023 A 
ATOM      8  C   UNL d   1      53.191  33.017  53.643  0.00  0.00     0.003 A 
ATOM      9  C   UNL d   1      54.209  33.613  54.441  0.00  0.00     0.002 C 
ATOM     10  C   UNL d   1      52.467  33.065  53.242  0.00  0.00     0.013 A 
ATOM     11  C   UNL d   1      52.172  32.411  52.840  0.00  0.00     0.001 C 
BRANCH   6  12
ATOM     12  O   UNL d   1      53.361  35.034  54.453  0.00  0.00    -0.305 OA
BRANCH  12  13
ATOM     13  C   UNL d   1      52.869  35.674  54.600  0.00  0.00     0.123 C 
ATOM     14  C   UNL d   1      53.195  36.373  54.893  0.00  0.00     0.029 C 
ENDBRANCH  12  13
ENDBRANCH   6  12
ENDBRANCH   1   4
BRANCH   1  15
ATOM     15  N   UNL d   1      50.608  33.882  52.460  0.00  0.00    -0.314 NA
BRANCH  15  16
ATOM     16  C   UNL d   1      49.887  33.930  52.062  0.00  0.00     0.176 C 
BRANCH  16  17
ATOM     17  C   UNL d   1      49.368  34.561  52.203  0.00  0.00     0.035 A 
ATOM     18  C   UNL d   1      49.308  34.890  52.953  0.00  0.00     0.029 A 
ATOM     19  C   UNL d   1      48.790  35.519  53.091  0.00  0.00     0.119 A 
ATOM     20  O   UNL d   1      48.617  35.951  53.776  0.00  0.00    -0.300 OA
ATOM     21  C   UNL d   1      48.329  35.819  52.468  0.00  0.00     0.119 A 
ATOM     22  C   UNL d   1      48.049  36.518  53.574  0.00  0.00     0.304 A 
ATOM     23  O   UNL d   1      47.873  36.435  52.771  0.00  0.00    -0.300 OA
ATOM     24  C   UNL d   1      48.391  35.486  51.714  0.00  0.00     0.026 A 
ATOM     25  C   UNL d   1      48.906  34.862  51.579  0.00  0.00     0.005 A 
ENDBRANCH  16  17
ENDBRANCH  15  16
ENDBRANCH   1  15
TORSDOF 6
ENDMDL
