MODEL 1
REMARK VINA RESULT:      -5.5      0.000      0.000
REMARK  3 active torsions:
REMARK  status: ('A' for Active; 'I' for Inactive)
REMARK    1  A    between atoms: C_4  and  N_1 
REMARK    2  A    between atoms: C_2  and  O_5 
REMARK       I    between atoms: N_3  and  C_2 
REMARK    3  A    between atoms: O_5  and  C_10 
ROOT
ATOM      1  C   UNL d   1     -41.844-122.350 -54.796  0.00  0.00     0.129 A 
ATOM      2  C   UNL d   1     -41.685-122.200 -54.004  0.00  0.00     0.048 A 
ATOM      3  C   UNL d   1     -41.330-122.781 -53.545  0.00  0.00     0.106 A 
ATOM      4  C   UNL d   1     -41.648-123.081 -55.126  0.00  0.00     0.024 A 
ATOM      5  C   UNL d   1     -41.294-123.652 -54.659  0.00  0.00     0.004 A 
ATOM      6  C   UNL d   1     -41.135-123.502 -53.867  0.00  0.00     0.025 A 
ENDROOT
BRANCH   3   7
ATOM      7  O   UNL d   1     -41.169-122.629 -52.748  0.00  0.00    -0.259 OA
BRANCH   7   8
ATOM      8  C   UNL d   1     -41.503-123.086 -52.152  0.00  0.00     0.377 C 
ATOM      9  N   UNL d   1     -41.490-122.835 -51.355  0.00  0.00    -0.252 N 
ATOM     10  C   UNL d   1     -41.835-123.314 -50.761  0.00  0.00     0.085 A 
ATOM     11  C   UNL d   1     -41.137-122.112 -51.138  0.00  0.00     0.085 A 
ATOM     12  C   UNL d   1     -41.821-123.063 -49.961  0.00  0.00     0.019 A 
ATOM     13  C   UNL d   1     -41.463-122.335 -49.762  0.00  0.00     0.003 A 
ATOM     14  C   UNL d   1     -41.123-121.865 -50.349  0.00  0.00     0.019 A 
ATOM     15  O   UNL d   1     -41.862-123.817 -52.362  0.00  0.00    -0.237 OA
ENDBRANCH   7   8
ENDBRANCH   3   7
BRANCH   1  16
ATOM     16  N   UNL d   1     -42.202-121.772 -55.267  0.00  0.00    -0.114 N 
ATOM     17  O   UNL d   1     -42.998-121.576 -55.157  0.00  0.00    -0.532 OA
ATOM     18  O   UNL d   1     -41.755-121.392 -55.850  0.00  0.00    -0.532 OA
ENDBRANCH   1  16
TORSDOF 3
ENDMDL
MODEL 2
REMARK VINA RESULT:      -5.2      0.859      1.187
REMARK  3 active torsions:
REMARK  status: ('A' for Active; 'I' for Inactive)
REMARK    1  A    between atoms: C_4  and  N_1 
REMARK    2  A    between atoms: C_2  and  O_5 
REMARK       I    between atoms: N_3  and  C_2 
REMARK    3  A    between atoms: O_5  and  C_10 
ROOT
ATOM      1  C   UNL d   1     -41.704-122.533 -54.013  0.00  0.00     0.129 A 
ATOM      2  C   UNL d   1     -41.595-122.266 -53.244  0.00  0.00     0.048 A 
ATOM      3  C   UNL d   1     -41.304-122.780 -52.674  0.00  0.00     0.106 A 
ATOM      4  C   UNL d   1     -41.521-123.314 -54.210  0.00  0.00     0.024 A 
ATOM      5  C   UNL d   1     -41.231-123.817 -53.634  0.00  0.00     0.004 A 
ATOM      6  C   UNL d   1     -41.123-123.550 -52.864  0.00  0.00     0.025 A 
ENDROOT
BRANCH   3   7
ATOM      7  O   UNL d   1     -41.194-122.511 -51.899  0.00  0.00    -0.259 OA
BRANCH   7   8
ATOM      8  C   UNL d   1     -41.832-122.380 -51.400  0.00  0.00     0.377 C 
ATOM      9  N   UNL d   1     -41.814-122.622 -50.601  0.00  0.00    -0.252 N 
ATOM     10  C   UNL d   1     -42.474-122.480 -50.105  0.00  0.00     0.085 A 
ATOM     11  C   UNL d   1     -41.145-123.005 -50.283  0.00  0.00     0.085 A 
ATOM     12  C   UNL d   1     -42.455-122.723 -49.303  0.00  0.00     0.019 A 
ATOM     13  C   UNL d   1     -41.776-123.105 -49.003  0.00  0.00     0.003 A 
ATOM     14  C   UNL d   1     -41.127-123.244 -49.492  0.00  0.00     0.019 A 
ATOM     15  O   UNL d   1     -42.512-121.994 -51.712  0.00  0.00    -0.237 OA
ENDBRANCH   7   8
ENDBRANCH   3   7
BRANCH   1  16
ATOM     16  N   UNL d   1     -41.996-122.023 -54.596  0.00  0.00    -0.114 N 
ATOM     17  O   UNL d   1     -41.478-121.572 -55.055  0.00  0.00    -0.532 OA
ATOM     18  O   UNL d   1     -42.813-121.970 -54.713  0.00  0.00    -0.532 OA
ENDBRANCH   1  16
TORSDOF 3
ENDMDL
MODEL 3
REMARK VINA RESULT:      -4.4      2.198      4.883
REMARK  3 active torsions:
REMARK  status: ('A' for Active; 'I' for Inactive)
REMARK    1  A    between atoms: C_4  and  N_1 
REMARK    2  A    between atoms: C_2  and  O_5 
REMARK       I    between atoms: N_3  and  C_2 
REMARK    3  A    between atoms: O_5  and  C_10 
ROOT
ATOM      1  C   UNL d   1     -42.208-123.409 -48.519  0.00  0.00     0.129 A 
ATOM      2  C   UNL d   1     -41.710-123.363 -49.171  0.00  0.00     0.048 A 
ATOM      3  C   UNL d   1     -42.002-123.542 -49.917  0.00  0.00     0.106 A 
ATOM      4  C   UNL d   1     -42.996-123.635 -48.615  0.00  0.00     0.024 A 
ATOM      5  C   UNL d   1     -43.276-123.812 -49.364  0.00  0.00     0.004 A 
ATOM      6  C   UNL d   1     -42.778-123.765 -50.016  0.00  0.00     0.025 A 
ENDROOT
BRANCH   3   7
ATOM      7  O   UNL d   1     -41.500-123.496 -50.573  0.00  0.00    -0.259 OA
BRANCH   7   8
ATOM      8  C   UNL d   1     -41.534-122.859 -51.091  0.00  0.00     0.377 C 
ATOM      9  N   UNL d   1     -41.411-122.960 -51.911  0.00  0.00    -0.252 N 
ATOM     10  C   UNL d   1     -41.449-122.299 -52.424  0.00  0.00     0.085 A 
ATOM     11  C   UNL d   1     -41.249-123.712 -52.231  0.00  0.00     0.085 A 
ATOM     12  C   UNL d   1     -41.326-122.401 -53.247  0.00  0.00     0.019 A 
ATOM     13  C   UNL d   1     -41.164-123.163 -53.550  0.00  0.00     0.003 A 
ATOM     14  C   UNL d   1     -41.127-123.813 -53.043  0.00  0.00     0.019 A 
ATOM     15  O   UNL d   1     -41.697-122.096 -50.776  0.00  0.00    -0.237 OA
ENDBRANCH   7   8
ENDBRANCH   3   7
BRANCH   1  16
ATOM     16  N   UNL d   1     -41.925-123.230 -47.763  0.00  0.00    -0.114 N 
ATOM     17  O   UNL d   1     -42.249-122.603 -47.332  0.00  0.00    -0.532 OA
ATOM     18  O   UNL d   1     -41.313-123.685 -47.441  0.00  0.00    -0.532 OA
ENDBRANCH   1  16
TORSDOF 3
ENDMDL
