MODEL 1
REMARK VINA RESULT:      -1.6      0.000      0.000
REMARK  2 active torsions:
REMARK  status: ('A' for Active; 'I' for Inactive)
REMARK    1  A    between atoms: N_11  and  C_4 
REMARK    2  A    between atoms: C_16  and  N_12 
ROOT
ATOM      1  N   UNL d   1      32.884  20.637 -22.496  0.00  0.00    -0.195 N 
ATOM      2  C   UNL d   1      32.994  21.425 -22.345  0.00  0.00     0.168 A 
ATOM      3  C   UNL d   1      32.991  21.700 -21.596  0.00  0.00     0.073 A 
ATOM      4  C   UNL d   1      32.889  20.379 -23.252  0.00  0.00     0.153 A 
ATOM      5  N   UNL d   1      32.768  20.395 -21.149  0.00  0.00    -0.143 NA
ATOM      6  C   UNL d   1      32.878  21.183 -20.998  0.00  0.00     0.185 A 
ATOM      7  N   UNL d   1      33.107  21.935 -22.954  0.00  0.00    -0.227 NA
ATOM      8  C   UNL d   1      33.101  22.479 -21.446  0.00  0.00     0.007 A 
ATOM      9  N   UNL d   1      32.873  21.447 -20.233  0.00  0.00    -0.225 NA
ATOM     10  C   UNL d   1      33.000  20.881 -23.856  0.00  0.00     0.057 A 
ATOM     11  C   UNL d   1      33.098  22.755 -20.697  0.00  0.00     0.019 A 
ATOM     12  C   UNL d   1      33.111  21.669 -23.706  0.00  0.00     0.086 A 
ATOM     13  C   UNL d   1      32.983  22.235 -20.082  0.00  0.00     0.083 A 
ATOM     14  C   UNL d   1      33.214  22.991 -22.059  0.00  0.00     0.000 C 
ATOM     15  C   UNL d   1      33.228  22.197 -24.340  0.00  0.00     0.021 C 
ATOM     16  C   UNL d   1      32.980  22.502 -19.334  0.00  0.00     0.021 C 
ENDROOT
BRANCH   4  17
ATOM     17  N   UNL d   1      32.774  19.565 -23.398  0.00  0.00    -0.286 N 
ATOM     18  C   UNL d   1      33.241  18.982 -23.040  0.00  0.00     0.101 A 
ATOM     19  C   UNL d   1      33.099  18.184 -23.209  0.00  0.00     0.100 A 
ATOM     20  N   UNL d   1      32.493  17.963 -23.734  0.00  0.00    -0.301 N 
ATOM     21  C   UNL d   1      32.015  18.550 -24.102  0.00  0.00     0.100 A 
ATOM     22  C   UNL d   1      32.160  19.347 -23.931  0.00  0.00     0.101 A 
BRANCH  20  23
ATOM     23  C   UNL d   1      32.355  17.164 -23.900  0.00  0.00     0.064 A 
ATOM     24  C   UNL d   1      32.712  16.804 -24.553  0.00  0.00     0.016 A 
ATOM     25  C   UNL d   1      33.210  17.241 -25.046  0.00  0.00     0.002 C 
ATOM     26  C   UNL d   1      32.572  15.993 -24.723  0.00  0.00     0.001 A 
ATOM     27  C   UNL d   1      32.067  15.543 -24.226  0.00  0.00     0.000 A 
ATOM     28  C   UNL d   1      31.707  15.914 -23.563  0.00  0.00     0.002 A 
ATOM     29  C   UNL d   1      31.851  16.718 -23.404  0.00  0.00     0.018 A 
ENDBRANCH  20  23
ENDBRANCH   4  17
TORSDOF 2
ENDMDL
MODEL 2
REMARK VINA RESULT:      -0.5      1.515      5.557
REMARK  2 active torsions:
REMARK  status: ('A' for Active; 'I' for Inactive)
REMARK    1  A    between atoms: N_11  and  C_4 
REMARK    2  A    between atoms: C_16  and  N_12 
ROOT
ATOM      1  N   UNL d   1      31.507  17.446 -23.786  0.00  0.00    -0.195 N 
ATOM      2  C   UNL d   1      31.320  16.791 -24.224  0.00  0.00     0.168 A 
ATOM      3  C   UNL d   1      30.574  16.508 -24.235  0.00  0.00     0.073 A 
ATOM      4  C   UNL d   1      32.259  17.715 -23.786  0.00  0.00     0.153 A 
ATOM      5  N   UNL d   1      30.202  17.539 -23.368  0.00  0.00    -0.143 NA
ATOM      6  C   UNL d   1      30.015  16.884 -23.806  0.00  0.00     0.185 A 
ATOM      7  N   UNL d   1      31.890  16.422 -24.651  0.00  0.00    -0.227 NA
ATOM      8  C   UNL d   1      30.389  15.860 -24.668  0.00  0.00     0.007 A 
ATOM      9  N   UNL d   1      29.254  16.610 -23.807  0.00  0.00    -0.225 NA
ATOM     10  C   UNL d   1      32.825  17.352 -24.208  0.00  0.00     0.057 A 
ATOM     11  C   UNL d   1      29.642  15.577 -24.679  0.00  0.00     0.019 A 
ATOM     12  C   UNL d   1      32.638  16.697 -24.646  0.00  0.00     0.086 A 
ATOM     13  C   UNL d   1      29.067  15.954 -24.245  0.00  0.00     0.083 A 
ATOM     14  C   UNL d   1      30.962  15.490 -25.096  0.00  0.00     0.000 C 
ATOM     15  C   UNL d   1      33.232  16.315 -25.088  0.00  0.00     0.021 C 
ATOM     16  C   UNL d   1      28.322  15.678 -24.251  0.00  0.00     0.021 C 
ENDROOT
BRANCH   4  17
ATOM     17  N   UNL d   1      32.443  18.391 -23.332  0.00  0.00    -0.286 N 
ATOM     18  C   UNL d   1      33.030  18.384 -22.748  0.00  0.00     0.101 A 
ATOM     19  C   UNL d   1      33.186  19.074 -22.317  0.00  0.00     0.100 A 
ATOM     20  N   UNL d   1      32.759  19.771 -22.465  0.00  0.00    -0.301 N 
ATOM     21  C   UNL d   1      32.161  19.787 -23.056  0.00  0.00     0.100 A 
ATOM     22  C   UNL d   1      32.008  19.095 -23.486  0.00  0.00     0.101 A 
BRANCH  20  23
ATOM     23  C   UNL d   1      32.919  20.458 -22.031  0.00  0.00     0.064 A 
ATOM     24  C   UNL d   1      33.078  21.171 -22.419  0.00  0.00     0.016 A 
ATOM     25  C   UNL d   1      33.080  21.202 -23.244  0.00  0.00     0.002 C 
ATOM     26  C   UNL d   1      33.240  21.869 -21.979  0.00  0.00     0.001 A 
ATOM     27  C   UNL d   1      33.240  21.844 -21.141  0.00  0.00     0.000 A 
ATOM     28  C   UNL d   1      33.077  21.118 -20.751  0.00  0.00     0.002 A 
ATOM     29  C   UNL d   1      32.918  20.432 -21.195  0.00  0.00     0.018 A 
ENDBRANCH  20  23
ENDBRANCH   4  17
TORSDOF 2
ENDMDL
MODEL 3
REMARK VINA RESULT:      -0.4      0.983      5.230
REMARK  2 active torsions:
REMARK  status: ('A' for Active; 'I' for Inactive)
REMARK    1  A    between atoms: N_11  and  C_4 
REMARK    2  A    between atoms: C_16  and  N_12 
ROOT
ATOM      1  N   UNL d   1      33.126  19.617 -22.808  0.00  0.00    -0.195 N 
ATOM      2  C   UNL d   1      33.159  19.113 -23.441  0.00  0.00     0.168 A 
ATOM      3  C   UNL d   1      33.155  18.322 -23.333  0.00  0.00     0.073 A 
ATOM      4  C   UNL d   1      33.131  20.405 -22.934  0.00  0.00     0.153 A 
ATOM      5  N   UNL d   1      33.084  18.541 -21.954  0.00  0.00    -0.143 NA
ATOM      6  C   UNL d   1      33.117  18.037 -22.588  0.00  0.00     0.185 A 
ATOM      7  N   UNL d   1      33.197  19.411 -24.185  0.00  0.00    -0.227 NA
ATOM      8  C   UNL d   1      33.188  17.824 -23.959  0.00  0.00     0.007 A 
ATOM      9  N   UNL d   1      33.112  17.238 -22.462  0.00  0.00    -0.225 NA
ATOM     10  C   UNL d   1      33.169  20.703 -23.669  0.00  0.00     0.057 A 
ATOM     11  C   UNL d   1      33.183  17.033 -23.851  0.00  0.00     0.019 A 
ATOM     12  C   UNL d   1      33.202  20.199 -24.303  0.00  0.00     0.086 A 
ATOM     13  C   UNL d   1      33.145  16.735 -23.095  0.00  0.00     0.083 A 
ATOM     14  C   UNL d   1      33.226  18.124 -24.706  0.00  0.00     0.000 C 
ATOM     15  C   UNL d   1      33.241  20.511 -25.075  0.00  0.00     0.021 C 
ATOM     16  C   UNL d   1      33.140  15.948 -22.980  0.00  0.00     0.021 C 
ENDROOT
BRANCH   4  17
ATOM     17  N   UNL d   1      33.097  20.917 -22.276  0.00  0.00    -0.286 N 
ATOM     18  C   UNL d   1      33.239  21.731 -22.341  0.00  0.00     0.101 A 
ATOM     19  C   UNL d   1      33.196  22.209 -21.666  0.00  0.00     0.100 A 
ATOM     20  N   UNL d   1      33.012  21.880 -20.926  0.00  0.00    -0.301 N 
ATOM     21  C   UNL d   1      32.866  21.054 -20.851  0.00  0.00     0.100 A 
ATOM     22  C   UNL d   1      32.910  20.579 -21.528  0.00  0.00     0.101 A 
BRANCH  20  23
ATOM     23  C   UNL d   1      32.970  22.362 -20.254  0.00  0.00     0.064 A 
ATOM     24  C   UNL d   1      32.664  23.128 -20.307  0.00  0.00     0.016 A 
ATOM     25  C   UNL d   1      32.398  23.418 -21.032  0.00  0.00     0.002 C 
ATOM     26  C   UNL d   1      32.622  23.618 -19.624  0.00  0.00     0.001 A 
ATOM     27  C   UNL d   1      32.891  23.329 -18.885  0.00  0.00     0.000 A 
ATOM     28  C   UNL d   1      33.200  22.550 -18.836  0.00  0.00     0.002 A 
ATOM     29  C   UNL d   1      33.239  22.071 -19.517  0.00  0.00     0.018 A 
ENDBRANCH  20  23
ENDBRANCH   4  17
TORSDOF 2
ENDMDL
MODEL 4
REMARK VINA RESULT:      -0.3      0.950      1.399
REMARK  2 active torsions:
REMARK  status: ('A' for Active; 'I' for Inactive)
REMARK    1  A    between atoms: N_11  and  C_4 
REMARK    2  A    between atoms: C_16  and  N_12 
ROOT
ATOM      1  N   UNL d   1      33.199  21.392 -21.498  0.00  0.00    -0.195 N 
ATOM      2  C   UNL d   1      33.199  22.156 -21.230  0.00  0.00     0.168 A 
ATOM      3  C   UNL d   1      33.208  22.313 -20.447  0.00  0.00     0.073 A 
ATOM      4  C   UNL d   1      33.190  21.253 -22.284  0.00  0.00     0.153 A 
ATOM      5  N   UNL d   1      33.217  20.938 -20.201  0.00  0.00    -0.143 NA
ATOM      6  C   UNL d   1      33.217  21.702 -19.933  0.00  0.00     0.185 A 
ATOM      7  N   UNL d   1      33.190  22.762 -21.755  0.00  0.00    -0.227 NA
ATOM      8  C   UNL d   1      33.208  23.069 -20.182  0.00  0.00     0.007 A 
ATOM      9  N   UNL d   1      33.227  21.845 -19.137  0.00  0.00    -0.225 NA
ATOM     10  C   UNL d   1      33.181  21.850 -22.807  0.00  0.00     0.057 A 
ATOM     11  C   UNL d   1      33.218  23.226 -19.399  0.00  0.00     0.019 A 
ATOM     12  C   UNL d   1      33.181  22.615 -22.539  0.00  0.00     0.086 A 
ATOM     13  C   UNL d   1      33.227  22.609 -18.870  0.00  0.00     0.083 A 
ATOM     14  C   UNL d   1      33.199  23.677 -20.711  0.00  0.00     0.000 C 
ATOM     15  C   UNL d   1      33.172  23.242 -23.087  0.00  0.00     0.021 C 
ATOM     16  C   UNL d   1      33.236  22.759 -18.089  0.00  0.00     0.021 C 
ENDROOT
BRANCH   4  17
ATOM     17  N   UNL d   1      33.190  20.462 -22.551  0.00  0.00    -0.286 N 
ATOM     18  C   UNL d   1      33.240  19.820 -22.031  0.00  0.00     0.101 A 
ATOM     19  C   UNL d   1      33.237  19.048 -22.332  0.00  0.00     0.100 A 
ATOM     20  N   UNL d   1      33.184  18.913 -23.150  0.00  0.00    -0.301 N 
ATOM     21  C   UNL d   1      33.133  19.560 -23.686  0.00  0.00     0.100 A 
ATOM     22  C   UNL d   1      33.136  20.331 -23.381  0.00  0.00     0.101 A 
BRANCH  20  23
ATOM     23  C   UNL d   1      33.182  18.140 -23.446  0.00  0.00     0.064 A 
ATOM     24  C   UNL d   1      33.172  18.005 -24.262  0.00  0.00     0.016 A 
ATOM     25  C   UNL d   1      33.165  18.641 -24.787  0.00  0.00     0.002 C 
ATOM     26  C   UNL d   1      33.169  17.219 -24.564  0.00  0.00     0.001 A 
ATOM     27  C   UNL d   1      33.177  16.569 -24.035  0.00  0.00     0.000 A 
ATOM     28  C   UNL d   1      33.187  16.712 -23.207  0.00  0.00     0.002 A 
ATOM     29  C   UNL d   1      33.189  17.492 -22.917  0.00  0.00     0.018 A 
ENDBRANCH  20  23
ENDBRANCH   4  17
TORSDOF 2
ENDMDL
MODEL 5
REMARK VINA RESULT:       0.6      1.122      5.467
REMARK  2 active torsions:
REMARK  status: ('A' for Active; 'I' for Inactive)
REMARK    1  A    between atoms: N_11  and  C_4 
REMARK    2  A    between atoms: C_16  and  N_12 
ROOT
ATOM      1  N   UNL d   1      33.005  20.717 -22.054  0.00  0.00    -0.195 N 
ATOM      2  C   UNL d   1      33.048  20.427 -22.809  0.00  0.00     0.168 A 
ATOM      3  C   UNL d   1      33.076  19.640 -22.942  0.00  0.00     0.073 A 
ATOM      4  C   UNL d   1      32.978  21.507 -21.939  0.00  0.00     0.153 A 
ATOM      5  N   UNL d   1      33.019  19.435 -21.560  0.00  0.00    -0.143 NA
ATOM      6  C   UNL d   1      33.061  19.145 -22.316  0.00  0.00     0.185 A 
ATOM      7  N   UNL d   1      33.062  20.934 -23.430  0.00  0.00    -0.227 NA
ATOM      8  C   UNL d   1      33.118  19.354 -23.688  0.00  0.00     0.007 A 
ATOM      9  N   UNL d   1      33.089  18.345 -22.434  0.00  0.00    -0.225 NA
ATOM     10  C   UNL d   1      32.992  22.012 -22.551  0.00  0.00     0.057 A 
ATOM     11  C   UNL d   1      33.146  18.567 -23.821  0.00  0.00     0.019 A 
ATOM     12  C   UNL d   1      33.035  21.722 -23.307  0.00  0.00     0.086 A 
ATOM     13  C   UNL d   1      33.131  18.055 -23.189  0.00  0.00     0.083 A 
ATOM     14  C   UNL d   1      33.132  19.864 -24.312  0.00  0.00     0.000 C 
ATOM     15  C   UNL d   1      33.049  22.251 -23.950  0.00  0.00     0.021 C 
ATOM     16  C   UNL d   1      33.159  17.271 -23.314  0.00  0.00     0.021 C 
ENDROOT
BRANCH   4  17
ATOM     17  N   UNL d   1      32.935  21.797 -21.157  0.00  0.00    -0.286 N 
ATOM     18  C   UNL d   1      32.607  22.537 -20.979  0.00  0.00     0.101 A 
ATOM     19  C   UNL d   1      32.581  22.793 -20.191  0.00  0.00     0.100 A 
ATOM     20  N   UNL d   1      32.879  22.315 -19.581  0.00  0.00    -0.301 N 
ATOM     21  C   UNL d   1      33.213  21.562 -19.753  0.00  0.00     0.100 A 
ATOM     22  C   UNL d   1      33.238  21.309 -20.542  0.00  0.00     0.101 A 
BRANCH  20  23
ATOM     23  C   UNL d   1      32.850  22.575 -18.795  0.00  0.00     0.064 A 
ATOM     24  C   UNL d   1      32.440  23.266 -18.598  0.00  0.00     0.016 A 
ATOM     25  C   UNL d   1      32.057  23.702 -19.184  0.00  0.00     0.002 C 
ATOM     26  C   UNL d   1      32.411  23.530 -17.800  0.00  0.00     0.001 A 
ATOM     27  C   UNL d   1      32.798  23.092 -17.200  0.00  0.00     0.000 A 
ATOM     28  C   UNL d   1      33.213  22.391 -17.405  0.00  0.00     0.002 A 
ATOM     29  C   UNL d   1      33.237  22.136 -18.198  0.00  0.00     0.018 A 
ENDBRANCH  20  23
ENDBRANCH   4  17
TORSDOF 2
ENDMDL
