MODEL 1
REMARK VINA RESULT:      -7.7      0.000      0.000
REMARK  1 active torsions:
REMARK  status: ('A' for Active; 'I' for Inactive)
REMARK    1  A    between atoms: C_7  and  C_1 
ROOT
ATOM      1  C   UNL d   1     -46.745  12.938  23.052  0.00  0.00     0.122 A 
ATOM      2  C   UNL d   1     -46.596  12.237  23.484  0.00  0.00     0.285 A 
ATOM      3  C   UNL d   1     -47.520  13.117  22.843  0.00  0.00     0.012 A 
ATOM      4  N   UNL d   1     -47.210  11.731  23.698  0.00  0.00    -0.208 NA
ATOM      5  C   UNL d   1     -47.989  11.923  23.480  0.00  0.00     0.085 A 
ATOM      6  C   UNL d   1     -48.149  12.615  23.052  0.00  0.00     0.018 A 
ATOM      7  O   UNL d   1     -45.820  12.050  23.697  0.00  0.00    -0.265 OA
ATOM      8  C   UNL d   1     -48.608  11.421  23.691  0.00  0.00     0.019 A 
ATOM      9  C   UNL d   1     -48.914  12.807  22.837  0.00  0.00     0.002 A 
ATOM     10  C   UNL d   1     -49.532  12.301  23.050  0.00  0.00     0.000 A 
ATOM     11  C   UNL d   1     -49.379  11.615  23.473  0.00  0.00     0.002 A 
ENDROOT
BRANCH   1  12
ATOM     12  C   UNL d   1     -46.133  13.436  22.842  0.00  0.00     0.216 C 
ATOM     13  O   UNL d   1     -45.715  13.297  22.131  0.00  0.00    -0.644 OA
ATOM     14  O   UNL d   1     -45.926  14.070  23.324  0.00  0.00    -0.644 OA
ENDBRANCH   1  12
TORSDOF 1
ENDMDL
MODEL 2
REMARK VINA RESULT:      -7.4      1.849      2.856
REMARK  1 active torsions:
REMARK  status: ('A' for Active; 'I' for Inactive)
REMARK    1  A    between atoms: C_7  and  C_1 
ROOT
ATOM      1  C   UNL d   1     -48.796  12.177  23.132  0.00  0.00     0.122 A 
ATOM      2  C   UNL d   1     -48.190  11.691  23.443  0.00  0.00     0.285 A 
ATOM      3  C   UNL d   1     -48.607  12.939  22.888  0.00  0.00     0.012 A 
ATOM      4  N   UNL d   1     -47.415  11.965  23.506  0.00  0.00    -0.208 NA
ATOM      5  C   UNL d   1     -47.237  12.738  23.256  0.00  0.00     0.085 A 
ATOM      6  C   UNL d   1     -47.830  13.228  22.947  0.00  0.00     0.018 A 
ATOM      7  O   UNL d   1     -48.373  10.924  23.690  0.00  0.00    -0.265 OA
ATOM      8  C   UNL d   1     -46.464  13.018  23.317  0.00  0.00     0.019 A 
ATOM      9  C   UNL d   1     -47.657  13.989  22.700  0.00  0.00     0.002 A 
ATOM     10  C   UNL d   1     -46.880  14.267  22.763  0.00  0.00     0.000 A 
ATOM     11  C   UNL d   1     -46.292  13.785  23.069  0.00  0.00     0.002 A 
ENDROOT
BRANCH   1  12
ATOM     12  C   UNL d   1     -49.562  11.900  23.071  0.00  0.00     0.216 C 
ATOM     13  O   UNL d   1     -50.100  12.036  23.698  0.00  0.00    -0.644 OA
ATOM     14  O   UNL d   1     -49.807  11.491  22.401  0.00  0.00    -0.644 OA
ENDBRANCH   1  12
TORSDOF 1
ENDMDL
MODEL 3
REMARK VINA RESULT:      -7.3      1.457      2.001
REMARK  1 active torsions:
REMARK  status: ('A' for Active; 'I' for Inactive)
REMARK    1  A    between atoms: C_7  and  C_1 
ROOT
ATOM      1  C   UNL d   1     -47.047  13.573  22.877  0.00  0.00     0.122 A 
ATOM      2  C   UNL d   1     -47.575  12.929  22.959  0.00  0.00     0.285 A 
ATOM      3  C   UNL d   1     -47.354  14.321  22.728  0.00  0.00     0.012 A 
ATOM      4  N   UNL d   1     -48.389  13.036  22.894  0.00  0.00    -0.208 NA
ATOM      5  C   UNL d   1     -48.687  13.798  22.743  0.00  0.00     0.085 A 
ATOM      6  C   UNL d   1     -48.174  14.443  22.660  0.00  0.00     0.018 A 
ATOM      7  O   UNL d   1     -47.273  12.174  23.109  0.00  0.00    -0.265 OA
ATOM      8  C   UNL d   1     -49.501  13.910  22.677  0.00  0.00     0.019 A 
ATOM      9  C   UNL d   1     -48.465  15.193  22.511  0.00  0.00     0.002 A 
ATOM     10  C   UNL d   1     -49.282  15.303  22.445  0.00  0.00     0.000 A 
ATOM     11  C   UNL d   1     -49.793  14.667  22.527  0.00  0.00     0.002 A 
ENDROOT
BRANCH   1  12
ATOM     12  C   UNL d   1     -46.241  13.461  22.942  0.00  0.00     0.216 C 
ATOM     13  O   UNL d   1     -45.881  13.489  23.698  0.00  0.00    -0.644 OA
ATOM     14  O   UNL d   1     -45.781  13.322  22.274  0.00  0.00    -0.644 OA
ENDBRANCH   1  12
TORSDOF 1
ENDMDL
MODEL 4
REMARK VINA RESULT:      -7.2      2.374      3.209
REMARK  1 active torsions:
REMARK  status: ('A' for Active; 'I' for Inactive)
REMARK    1  A    between atoms: C_7  and  C_1 
ROOT
ATOM      1  C   UNL d   1     -48.918  14.707  22.921  0.00  0.00     0.122 A 
ATOM      2  C   UNL d   1     -49.165  13.919  23.060  0.00  0.00     0.285 A 
ATOM      3  C   UNL d   1     -48.117  14.856  22.809  0.00  0.00     0.012 A 
ATOM      4  N   UNL d   1     -48.621  13.301  23.086  0.00  0.00    -0.208 NA
ATOM      5  C   UNL d   1     -47.814  13.466  22.972  0.00  0.00     0.085 A 
ATOM      6  C   UNL d   1     -47.558  14.242  22.833  0.00  0.00     0.018 A 
ATOM      7  O   UNL d   1     -49.969  13.761  23.173  0.00  0.00    -0.265 OA
ATOM      8  C   UNL d   1     -47.265  12.851  22.997  0.00  0.00     0.019 A 
ATOM      9  C   UNL d   1     -46.765  14.406  22.720  0.00  0.00     0.002 A 
ATOM     10  C   UNL d   1     -46.216  13.788  22.746  0.00  0.00     0.000 A 
ATOM     11  C   UNL d   1     -46.466  13.019  22.883  0.00  0.00     0.002 A 
ENDROOT
BRANCH   1  12
ATOM     12  C   UNL d   1     -49.461  15.315  22.896  0.00  0.00     0.216 C 
ATOM     13  O   UNL d   1     -49.653  15.726  23.599  0.00  0.00    -0.644 OA
ATOM     14  O   UNL d   1     -49.821  15.527  22.186  0.00  0.00    -0.644 OA
ENDBRANCH   1  12
TORSDOF 1
ENDMDL
MODEL 5
REMARK VINA RESULT:      -7.1      1.507      2.205
REMARK  1 active torsions:
REMARK  status: ('A' for Active; 'I' for Inactive)
REMARK    1  A    between atoms: C_7  and  C_1 
ROOT
ATOM      1  C   UNL d   1     -47.959  13.964  22.858  0.00  0.00     0.122 A 
ATOM      2  C   UNL d   1     -47.130  14.073  22.884  0.00  0.00     0.285 A 
ATOM      3  C   UNL d   1     -48.268  13.227  23.051  0.00  0.00     0.012 A 
ATOM      4  N   UNL d   1     -46.626  13.457  23.098  0.00  0.00    -0.208 NA
ATOM      5  C   UNL d   1     -46.952  12.716  23.291  0.00  0.00     0.085 A 
ATOM      6  C   UNL d   1     -47.772  12.597  23.269  0.00  0.00     0.018 A 
ATOM      7  O   UNL d   1     -46.813  14.812  22.691  0.00  0.00    -0.265 OA
ATOM      8  C   UNL d   1     -46.453  12.096  23.507  0.00  0.00     0.019 A 
ATOM      9  C   UNL d   1     -48.093  11.869  23.458  0.00  0.00     0.002 A 
ATOM     10  C   UNL d   1     -47.590  11.249  23.674  0.00  0.00     0.000 A 
ATOM     11  C   UNL d   1     -46.779  11.363  23.697  0.00  0.00     0.002 A 
ENDROOT
BRANCH   1  12
ATOM     12  C   UNL d   1     -48.453  14.578  22.645  0.00  0.00     0.216 C 
ATOM     13  O   UNL d   1     -48.620  14.711  21.835  0.00  0.00    -0.644 OA
ATOM     14  O   UNL d   1     -48.788  15.065  23.218  0.00  0.00    -0.644 OA
ENDBRANCH   1  12
TORSDOF 1
ENDMDL
MODEL 6
REMARK VINA RESULT:      -6.7      2.187      3.036
REMARK  1 active torsions:
REMARK  status: ('A' for Active; 'I' for Inactive)
REMARK    1  A    between atoms: C_7  and  C_1 
ROOT
ATOM      1  C   UNL d   1     -48.858  12.274  22.931  0.00  0.00     0.122 A 
ATOM      2  C   UNL d   1     -49.668  12.473  22.999  0.00  0.00     0.285 A 
ATOM      3  C   UNL d   1     -48.310  12.878  22.822  0.00  0.00     0.012 A 
ATOM      4  N   UNL d   1     -49.919  13.257  22.958  0.00  0.00    -0.208 NA
ATOM      5  C   UNL d   1     -49.354  13.858  22.848  0.00  0.00     0.085 A 
ATOM      6  C   UNL d   1     -48.549  13.673  22.779  0.00  0.00     0.018 A 
ATOM      7  O   UNL d   1     -50.224  11.871  23.109  0.00  0.00    -0.265 OA
ATOM      8  C   UNL d   1     -49.600  14.643  22.806  0.00  0.00     0.019 A 
ATOM      9  C   UNL d   1     -47.993  14.262  22.670  0.00  0.00     0.002 A 
ATOM     10  C   UNL d   1     -48.242  15.050  22.628  0.00  0.00     0.000 A 
ATOM     11  C   UNL d   1     -49.037  15.236  22.696  0.00  0.00     0.002 A 
ENDROOT
BRANCH   1  12
ATOM     12  C   UNL d   1     -48.615  11.496  22.972  0.00  0.00     0.216 C 
ATOM     13  O   UNL d   1     -48.544  11.049  22.268  0.00  0.00    -0.644 OA
ATOM     14  O   UNL d   1     -48.440  11.149  23.698  0.00  0.00    -0.644 OA
ENDBRANCH   1  12
TORSDOF 1
ENDMDL
MODEL 7
REMARK VINA RESULT:      -6.2      8.896     10.130
REMARK  1 active torsions:
REMARK  status: ('A' for Active; 'I' for Inactive)
REMARK    1  A    between atoms: C_7  and  C_1 
ROOT
ATOM      1  C   UNL d   1     -40.351  14.690  17.436  0.00  0.00     0.122 A 
ATOM      2  C   UNL d   1     -40.417  14.056  17.979  0.00  0.00     0.285 A 
ATOM      3  C   UNL d   1     -39.712  14.703  16.920  0.00  0.00     0.012 A 
ATOM      4  N   UNL d   1     -39.855  13.454  18.000  0.00  0.00    -0.208 NA
ATOM      5  C   UNL d   1     -39.213  13.479  17.472  0.00  0.00     0.085 A 
ATOM      6  C   UNL d   1     -39.138  14.102  16.930  0.00  0.00     0.018 A 
ATOM      7  O   UNL d   1     -41.058  14.036  18.502  0.00  0.00    -0.265 OA
ATOM      8  C   UNL d   1     -38.648  12.880  17.489  0.00  0.00     0.019 A 
ATOM      9  C   UNL d   1     -38.507  14.129  16.410  0.00  0.00     0.002 A 
ATOM     10  C   UNL d   1     -37.941  13.526  16.429  0.00  0.00     0.000 A 
ATOM     11  C   UNL d   1     -38.013  12.908  16.964  0.00  0.00     0.002 A 
ENDROOT
BRANCH   1  12
ATOM     12  C   UNL d   1     -40.911  15.283  17.420  0.00  0.00     0.216 C 
ATOM     13  O   UNL d   1     -41.531  15.249  16.859  0.00  0.00    -0.644 OA
ATOM     14  O   UNL d   1     -40.869  15.913  17.948  0.00  0.00    -0.644 OA
ENDBRANCH   1  12
TORSDOF 1
ENDMDL
MODEL 8
REMARK VINA RESULT:      -6.2      2.337      3.044
REMARK  1 active torsions:
REMARK  status: ('A' for Active; 'I' for Inactive)
REMARK    1  A    between atoms: C_7  and  C_1 
ROOT
ATOM      1  C   UNL d   1     -48.762  13.410  22.121  0.00  0.00     0.122 A 
ATOM      2  C   UNL d   1     -48.192  13.912  22.473  0.00  0.00     0.285 A 
ATOM      3  C   UNL d   1     -49.557  13.613  22.179  0.00  0.00     0.012 A 
ATOM      4  N   UNL d   1     -48.417  14.597  22.872  0.00  0.00    -0.208 NA
ATOM      5  C   UNL d   1     -49.224  14.791  22.922  0.00  0.00     0.085 A 
ATOM      6  C   UNL d   1     -49.797  14.301  22.577  0.00  0.00     0.018 A 
ATOM      7  O   UNL d   1     -47.391  13.714  22.420  0.00  0.00    -0.265 OA
ATOM      8  C   UNL d   1     -49.454  15.475  23.319  0.00  0.00     0.019 A 
ATOM      9  C   UNL d   1     -50.592  14.489  22.626  0.00  0.00     0.002 A 
ATOM     10  C   UNL d   1     -50.820  15.177  23.025  0.00  0.00     0.000 A 
ATOM     11  C   UNL d   1     -50.256  15.664  23.368  0.00  0.00     0.002 A 
ENDROOT
BRANCH   1  12
ATOM     12  C   UNL d   1     -48.534  12.732  21.728  0.00  0.00     0.216 C 
ATOM     13  O   UNL d   1     -48.455  12.016  22.154  0.00  0.00    -0.644 OA
ATOM     14  O   UNL d   1     -48.381  12.748  20.919  0.00  0.00    -0.644 OA
ENDBRANCH   1  12
TORSDOF 1
ENDMDL
MODEL 9
REMARK VINA RESULT:      -6.2      8.007      8.619
REMARK  1 active torsions:
REMARK  status: ('A' for Active; 'I' for Inactive)
REMARK    1  A    between atoms: C_7  and  C_1 
ROOT
ATOM      1  C   UNL d   1     -40.621  15.011  18.084  0.00  0.00     0.122 A 
ATOM      2  C   UNL d   1     -40.588  14.201  18.294  0.00  0.00     0.285 A 
ATOM      3  C   UNL d   1     -40.657  15.573  18.683  0.00  0.00     0.012 A 
ATOM      4  N   UNL d   1     -40.591  13.965  19.084  0.00  0.00    -0.208 NA
ATOM      5  C   UNL d   1     -40.628  14.545  19.679  0.00  0.00     0.085 A 
ATOM      6  C   UNL d   1     -40.660  15.349  19.483  0.00  0.00     0.018 A 
ATOM      7  O   UNL d   1     -40.552  13.630  17.697  0.00  0.00    -0.265 OA
ATOM      8  C   UNL d   1     -40.631  14.315  20.471  0.00  0.00     0.019 A 
ATOM      9  C   UNL d   1     -40.696  15.921  20.068  0.00  0.00     0.002 A 
ATOM     10  C   UNL d   1     -40.699  15.687  20.861  0.00  0.00     0.000 A 
ATOM     11  C   UNL d   1     -40.667  14.892  21.059  0.00  0.00     0.002 A 
ENDROOT
BRANCH   1  12
ATOM     12  C   UNL d   1     -40.618  15.238  17.301  0.00  0.00     0.216 C 
ATOM     13  O   UNL d   1     -41.340  15.276  16.880  0.00  0.00    -0.644 OA
ATOM     14  O   UNL d   1     -39.912  15.430  16.923  0.00  0.00    -0.644 OA
ENDBRANCH   1  12
TORSDOF 1
ENDMDL
