MODEL 1
REMARK VINA RESULT:       1.0      0.000      0.000
REMARK  6 active torsions:
REMARK  status: ('A' for Active; 'I' for Inactive)
REMARK    1  A    between atoms: C_3  and  N_1 
REMARK       I    between atoms: C_4  and  N_1 
REMARK    2  A    between atoms: C_6  and  N_1 
REMARK    3  A    between atoms: N_2  and  C_3 
REMARK    4  A    between atoms: C_7  and  C_4 
REMARK    5  A    between atoms: O_22  and  C_15 
REMARK    6  A    between atoms: C_24  and  O_22 
ROOT
ATOM      1  N   UNL d   1     -41.685-122.699 -52.264  0.00  0.00    -0.258 N 
ATOM      2  C   UNL d   1     -42.075-123.335 -51.902  0.00  0.00     0.266 C 
ATOM      3  O   UNL d   1     -42.529-123.817 -52.299  0.00  0.00    -0.267 OA
ENDROOT
BRANCH   1   4
ATOM      4  C   UNL d   1     -41.203-122.193 -51.823  0.00  0.00     0.171 C 
BRANCH   4   5
ATOM      5  N   UNL d   1     -41.172-121.369 -51.799  0.00  0.00    -0.257 N 
ATOM      6  C   UNL d   1     -41.155-120.889 -51.131  0.00  0.00     0.266 A 
ATOM      7  O   UNL d   1     -41.167-121.155 -50.343  0.00  0.00    -0.267 OA
ATOM      8  C   UNL d   1     -41.125-120.093 -51.374  0.00  0.00     0.063 A 
ATOM      9  C   UNL d   1     -41.123-120.082 -52.200  0.00  0.00     0.024 A 
ATOM     10  C   UNL d   1     -41.152-120.863 -52.471  0.00  0.00     0.085 A 
ENDBRANCH   4   5
ENDBRANCH   1   4
BRANCH   1  11
ATOM     11  C   UNL d   1     -41.777-122.569 -53.078  0.00  0.00     0.068 A 
ATOM     12  C   UNL d   1     -42.499-122.285 -53.375  0.00  0.00     0.018 A 
ATOM     13  C   UNL d   1     -42.572-122.162 -54.181  0.00  0.00     0.002 A 
ATOM     14  C   UNL d   1     -41.954-122.313 -54.689  0.00  0.00     0.000 A 
ATOM     15  C   UNL d   1     -41.243-122.592 -54.396  0.00  0.00     0.002 A 
ATOM     16  C   UNL d   1     -42.038-122.185 -55.500  0.00  0.00     0.000 C 
ATOM     17  C   UNL d   1     -41.146-122.723 -53.594  0.00  0.00     0.018 A 
ENDBRANCH   1  11
BRANCH   2  18
ATOM     18  C   UNL d   1     -41.976-123.453 -51.094  0.00  0.00     0.057 A 
ATOM     19  C   UNL d   1     -42.624-123.387 -50.591  0.00  0.00     0.007 A 
ATOM     20  C   UNL d   1     -42.530-123.505 -49.784  0.00  0.00     0.025 A 
ATOM     21  C   UNL d   1     -41.777-123.690 -49.478  0.00  0.00     0.100 A 
ATOM     22  C   UNL d   1     -41.134-123.755 -49.981  0.00  0.00     0.025 A 
ATOM     23  C   UNL d   1     -41.221-123.638 -50.799  0.00  0.00     0.007 A 
BRANCH  21  24
ATOM     24  O   UNL d   1     -41.703-123.803 -48.676  0.00  0.00    -0.305 OA
BRANCH  24  25
ATOM     25  C   UNL d   1     -41.702-123.165 -48.150  0.00  0.00     0.123 C 
ATOM     26  C   UNL d   1     -41.228-123.186 -47.479  0.00  0.00     0.029 C 
ENDBRANCH  24  25
ENDBRANCH  21  24
ENDBRANCH   2  18
TORSDOF 6
ENDMDL
