MODEL 1
REMARK VINA RESULT:      -8.5      0.000      0.000
REMARK  3 active torsions:
REMARK  status: ('A' for Active; 'I' for Inactive)
REMARK    1  A    between atoms: C_2  and  S_1 
REMARK    2  A    between atoms: N_3  and  S_1 
REMARK    3  A    between atoms: C_4  and  N_3 
ROOT
ATOM      1  C   UNL d   1     -48.166  13.054  23.128  0.00  0.00     0.094 A 
ATOM      2  C   UNL d   1     -47.572  12.503  23.302  0.00  0.00     0.021 A 
ATOM      3  C   UNL d   1     -46.815  12.725  23.253  0.00  0.00     0.040 A 
ATOM      4  C   UNL d   1     -46.620  13.495  23.032  0.00  0.00     0.196 A 
ATOM      5  C   UNL d   1     -47.976  13.813  22.910  0.00  0.00     0.023 A 
ATOM      6  C   UNL d   1     -47.215  14.046  22.858  0.00  0.00     0.044 A 
ATOM      7  O   UNL d   1     -45.799  13.702  22.990  0.00  0.00    -0.287 OA
ATOM      8  C   UNL d   1     -47.766  11.733  23.523  0.00  0.00     0.002 A 
ATOM      9  C   UNL d   1     -46.188  12.161  23.432  0.00  0.00     0.003 A 
ATOM     10  C   UNL d   1     -46.377  11.401  23.650  0.00  0.00     0.000 A 
ATOM     11  C   UNL d   1     -47.167  11.180  23.698  0.00  0.00     0.000 A 
ENDROOT
BRANCH   1  12
ATOM     12  N   UNL d   1     -48.966  12.837  23.174  0.00  0.00    -0.158 NA
BRANCH  12  13
ATOM     13  S   UNL d   1     -49.554  13.340  22.880  0.00  0.00     0.291 S 
ATOM     14  O   UNL d   1     -49.484  12.986  22.128  0.00  0.00    -0.198 OA
ATOM     15  O   UNL d   1     -49.629  13.689  23.602  0.00  0.00    -0.198 OA
BRANCH  13  16
ATOM     16  C   UNL d   1     -50.137  13.849  22.615  0.00  0.00     0.135 A 
ATOM     17  S   UNL d   1     -50.491  13.804  21.904  0.00  0.00    -0.073 SA
ATOM     18  C   UNL d   1     -51.056  14.409  21.821  0.00  0.00     0.036 A 
ATOM     19  C   UNL d   1     -51.047  14.838  22.503  0.00  0.00     0.008 A 
ATOM     20  C   UNL d   1     -50.482  14.509  23.015  0.00  0.00     0.020 A 
ENDBRANCH  13  16
ENDBRANCH  12  13
ENDBRANCH   1  12
TORSDOF 3
ENDMDL
MODEL 2
REMARK VINA RESULT:      -8.0      1.538      4.022
REMARK  3 active torsions:
REMARK  status: ('A' for Active; 'I' for Inactive)
REMARK    1  A    between atoms: C_2  and  S_1 
REMARK    2  A    between atoms: N_3  and  S_1 
REMARK    3  A    between atoms: C_4  and  N_3 
ROOT
ATOM      1  C   UNL d   1     -48.890  14.241  22.668  0.00  0.00     0.094 A 
ATOM      2  C   UNL d   1     -49.599  14.632  22.841  0.00  0.00     0.021 A 
ATOM      3  C   UNL d   1     -50.234  14.496  22.391  0.00  0.00     0.040 A 
ATOM      4  C   UNL d   1     -50.191  13.970  21.757  0.00  0.00     0.196 A 
ATOM      5  C   UNL d   1     -48.845  13.722  22.044  0.00  0.00     0.023 A 
ATOM      6  C   UNL d   1     -49.481  13.578  21.585  0.00  0.00     0.044 A 
ATOM      7  O   UNL d   1     -50.889  13.845  21.294  0.00  0.00    -0.287 OA
ATOM      8  C   UNL d   1     -49.643  15.159  23.474  0.00  0.00     0.002 A 
ATOM      9  C   UNL d   1     -50.977  14.898  22.561  0.00  0.00     0.003 A 
ATOM     10  C   UNL d   1     -51.023  15.417  23.185  0.00  0.00     0.000 A 
ATOM     11  C   UNL d   1     -50.358  15.552  23.647  0.00  0.00     0.000 A 
ENDROOT
BRANCH   1  12
ATOM     12  N   UNL d   1     -48.213  14.372  23.130  0.00  0.00    -0.158 NA
BRANCH  12  13
ATOM     13  S   UNL d   1     -47.518  13.944  22.988  0.00  0.00     0.291 S 
ATOM     14  O   UNL d   1     -47.828  13.296  23.413  0.00  0.00    -0.198 OA
ATOM     15  O   UNL d   1     -47.211  14.565  22.576  0.00  0.00    -0.198 OA
BRANCH  13  16
ATOM     16  C   UNL d   1     -46.822  13.544  22.834  0.00  0.00     0.135 A 
ATOM     17  S   UNL d   1     -46.602  12.864  23.182  0.00  0.00    -0.073 SA
ATOM     18  C   UNL d   1     -45.864  12.614  22.893  0.00  0.00     0.036 A 
ATOM     19  C   UNL d   1     -45.624  13.159  22.350  0.00  0.00     0.008 A 
ATOM     20  C   UNL d   1     -46.205  13.750  22.294  0.00  0.00     0.020 A 
ENDBRANCH  13  16
ENDBRANCH  12  13
ENDBRANCH   1  12
TORSDOF 3
ENDMDL
MODEL 3
REMARK VINA RESULT:      -6.1      8.917     10.211
REMARK  3 active torsions:
REMARK  status: ('A' for Active; 'I' for Inactive)
REMARK    1  A    between atoms: C_2  and  S_1 
REMARK    2  A    between atoms: N_3  and  S_1 
REMARK    3  A    between atoms: C_4  and  N_3 
ROOT
ATOM      1  C   UNL d   1     -39.629  14.092  18.038  0.00  0.00     0.094 A 
ATOM      2  C   UNL d   1     -39.067  13.690  17.581  0.00  0.00     0.021 A 
ATOM      3  C   UNL d   1     -38.866  13.981  16.874  0.00  0.00     0.040 A 
ATOM      4  C   UNL d   1     -39.211  14.677  16.597  0.00  0.00     0.196 A 
ATOM      5  C   UNL d   1     -39.971  14.777  17.766  0.00  0.00     0.023 A 
ATOM      6  C   UNL d   1     -39.773  15.079  17.055  0.00  0.00     0.044 A 
ATOM      7  O   UNL d   1     -38.973  14.964  15.835  0.00  0.00    -0.287 OA
ATOM      8  C   UNL d   1     -38.722  12.994  17.857  0.00  0.00     0.002 A 
ATOM      9  C   UNL d   1     -38.282  13.572  16.389  0.00  0.00     0.003 A 
ATOM     10  C   UNL d   1     -37.940  12.886  16.660  0.00  0.00     0.000 A 
ATOM     11  C   UNL d   1     -38.156  12.591  17.396  0.00  0.00     0.000 A 
ENDROOT
BRANCH   1  12
ATOM     12  N   UNL d   1     -39.852  13.799  18.782  0.00  0.00    -0.158 NA
BRANCH  12  13
ATOM     13  S   UNL d   1     -40.197  14.301  19.344  0.00  0.00     0.291 S 
ATOM     14  O   UNL d   1     -40.956  14.106  19.057  0.00  0.00    -0.198 OA
ATOM     15  O   UNL d   1     -39.469  14.496  19.628  0.00  0.00    -0.198 OA
BRANCH  13  16
ATOM     16  C   UNL d   1     -40.511  14.803  19.908  0.00  0.00     0.135 A 
ATOM     17  S   UNL d   1     -41.021  14.584  20.478  0.00  0.00    -0.073 SA
ATOM     18  C   UNL d   1     -41.224  15.236  20.952  0.00  0.00     0.036 A 
ATOM     19  C   UNL d   1     -40.825  15.874  20.664  0.00  0.00     0.008 A 
ATOM     20  C   UNL d   1     -40.372  15.630  20.011  0.00  0.00     0.020 A 
ENDBRANCH  13  16
ENDBRANCH  12  13
ENDBRANCH   1  12
TORSDOF 3
ENDMDL
MODEL 4
REMARK VINA RESULT:      -5.9      8.896      9.529
REMARK  3 active torsions:
REMARK  status: ('A' for Active; 'I' for Inactive)
REMARK    1  A    between atoms: C_2  and  S_1 
REMARK    2  A    between atoms: N_3  and  S_1 
REMARK    3  A    between atoms: C_4  and  N_3 
ROOT
ATOM      1  C   UNL d   1     -39.992  14.592  19.930  0.00  0.00     0.094 A 
ATOM      2  C   UNL d   1     -39.581  14.407  20.624  0.00  0.00     0.021 A 
ATOM      3  C   UNL d   1     -39.704  14.842  21.273  0.00  0.00     0.040 A 
ATOM      4  C   UNL d   1     -40.237  15.471  21.258  0.00  0.00     0.196 A 
ATOM      5  C   UNL d   1     -40.518  15.212  19.913  0.00  0.00     0.023 A 
ATOM      6  C   UNL d   1     -40.649  15.655  20.562  0.00  0.00     0.044 A 
ATOM      7  O   UNL d   1     -40.347  15.917  21.970  0.00  0.00    -0.287 OA
ATOM      8  C   UNL d   1     -39.047  13.778  20.641  0.00  0.00     0.002 A 
ATOM      9  C   UNL d   1     -39.281  14.659  22.002  0.00  0.00     0.003 A 
ATOM     10  C   UNL d   1     -38.755  14.039  22.020  0.00  0.00     0.000 A 
ATOM     11  C   UNL d   1     -38.634  13.594  21.341  0.00  0.00     0.000 A 
ENDROOT
BRANCH   1  12
ATOM     12  N   UNL d   1     -39.875  14.146  19.240  0.00  0.00    -0.158 NA
BRANCH  12  13
ATOM     13  S   UNL d   1     -40.066  14.462  18.499  0.00  0.00     0.291 S 
ATOM     14  O   UNL d   1     -40.812  14.088  18.529  0.00  0.00    -0.198 OA
ATOM     15  O   UNL d   1     -39.348  14.826  18.460  0.00  0.00    -0.198 OA
BRANCH  13  16
ATOM     16  C   UNL d   1     -40.229  14.786  17.766  0.00  0.00     0.135 A 
ATOM     17  S   UNL d   1     -39.691  14.913  17.194  0.00  0.00    -0.073 SA
ATOM     18  C   UNL d   1     -40.052  15.249  16.525  0.00  0.00     0.036 A 
ATOM     19  C   UNL d   1     -40.836  15.331  16.692  0.00  0.00     0.008 A 
ATOM     20  C   UNL d   1     -40.973  15.049  17.462  0.00  0.00     0.020 A 
ENDBRANCH  13  16
ENDBRANCH  12  13
ENDBRANCH   1  12
TORSDOF 3
ENDMDL
