MODEL 1
REMARK VINA RESULT:      -5.9      0.000      0.000
REMARK  5 active torsions:
REMARK  status: ('A' for Active; 'I' for Inactive)
REMARK    1  A    between atoms: C_2  and  C_3 
REMARK    2  A    between atoms: N_4  and  C_2 
REMARK    3  A    between atoms: C_10  and  N_4 
REMARK    4  A    between atoms: O_16  and  C_11 
REMARK    5  A    between atoms: C_19  and  O_16 
ROOT
ATOM      1  C   UNL d   1     -41.471-122.715 -50.712  0.00  0.00     0.153 C 
ATOM      2  S   UNL d   1     -41.468-121.907 -50.896  0.00  0.00    -0.056 SA
ENDROOT
BRANCH   1   3
ATOM      3  C   UNL d   1     -41.826-122.969 -50.012  0.00  0.00     0.109 A 
ATOM      4  N   UNL d   1     -41.372-123.054 -49.321  0.00  0.00    -0.243 NA
ATOM      5  C   UNL d   1     -41.727-123.309 -48.621  0.00  0.00     0.081 A 
ATOM      6  C   UNL d   1     -42.535-123.479 -48.606  0.00  0.00     0.018 A 
ATOM      7  C   UNL d   1     -41.273-123.392 -47.938  0.00  0.00     0.019 A 
ATOM      8  C   UNL d   1     -42.997-123.397 -49.289  0.00  0.00     0.003 A 
ATOM      9  C   UNL d   1     -42.889-123.733 -47.907  0.00  0.00     0.002 A 
ATOM     10  C   UNL d   1     -42.642-123.141 -49.996  0.00  0.00     0.021 A 
ATOM     11  C   UNL d   1     -42.436-123.817 -47.223  0.00  0.00     0.000 A 
ATOM     12  C   UNL d   1     -41.628-123.646 -47.239  0.00  0.00     0.002 A 
ENDBRANCH   1   3
BRANCH   1  13
ATOM     13  N   UNL d   1     -41.122-123.263 -51.222  0.00  0.00    -0.233 NA
BRANCH  13  14
ATOM     14  C   UNL d   1     -41.172-123.154 -52.042  0.00  0.00     0.083 A 
ATOM     15  C   UNL d   1     -41.267-123.810 -52.535  0.00  0.00     0.021 A 
ATOM     16  C   UNL d   1     -41.316-123.695 -53.350  0.00  0.00     0.026 A 
ATOM     17  C   UNL d   1     -41.271-122.936 -53.669  0.00  0.00     0.100 A 
ATOM     18  C   UNL d   1     -41.175-122.283 -53.166  0.00  0.00     0.026 A 
ATOM     19  C   UNL d   1     -41.126-122.392 -52.352  0.00  0.00     0.021 A 
BRANCH  17  20
ATOM     20  O   UNL d   1     -41.321-122.826 -54.491  0.00  0.00    -0.305 OA
BRANCH  20  21
ATOM     21  C   UNL d   1     -41.952-122.400 -54.811  0.00  0.00     0.123 C 
ATOM     22  C   UNL d   1     -41.913-122.130 -55.587  0.00  0.00     0.029 C 
ENDBRANCH  20  21
ENDBRANCH  17  20
ENDBRANCH  13  14
ENDBRANCH   1  13
TORSDOF 5
ENDMDL
