MODEL 1
REMARK VINA RESULT:      73.4      0.000      0.000
REMARK  3 active torsions:
REMARK  status: ('A' for Active; 'I' for Inactive)
REMARK    1  A    between atoms: C_12  and  C_9 
REMARK    2  A    between atoms: O_26  and  C_19 
REMARK    3  A    between atoms: O_27  and  C_22 
ROOT
ATOM      1  C   UNL d   1     -49.724  25.673  33.594  0.00  0.00     0.156 A 
ATOM      2  C   UNL d   1     -50.361  25.151  33.582  0.00  0.00     0.091 A 
ATOM      3  N   UNL d   1     -48.956  25.388  33.650  0.00  0.00    -0.241 N 
ATOM      4  N   UNL d   1     -49.459  24.057  33.683  0.00  0.00    -0.224 N 
ATOM      5  C   UNL d   1     -48.824  24.582  33.694  0.00  0.00     0.343 A 
ATOM      6  C   UNL d   1     -50.224  24.339  33.627  0.00  0.00     0.271 A 
ATOM      7  C   UNL d   1     -51.264  26.244  33.482  0.00  0.00     0.056 A 
ATOM      8  N   UNL d   1     -49.859  26.482  33.549  0.00  0.00    -0.228 NA
ATOM      9  C   UNL d   1     -51.127  25.433  33.526  0.00  0.00     0.012 A 
ATOM     10  C   UNL d   1     -50.620  26.771  33.493  0.00  0.00     0.082 A 
ATOM     11  C   UNL d   1     -52.032  26.530  33.426  0.00  0.00     0.193 A 
ATOM     12  C   UNL d   1     -50.755  27.580  33.449  0.00  0.00    -0.003 A 
ATOM     13  C   UNL d   1     -51.522  27.871  33.393  0.00  0.00     0.042 A 
ATOM     14  O   UNL d   1     -48.053  24.294  33.750  0.00  0.00    -0.245 OA
ATOM     15  C   UNL d   1     -52.159  27.344  33.381  0.00  0.00     0.019 A 
ATOM     16  O   UNL d   1     -50.695  23.923  33.620  0.00  0.00    -0.266 OA
ATOM     17  O   UNL d   1     -52.586  26.066  33.416  0.00  0.00    -0.287 OA
ATOM     18  C   UNL d   1     -48.322  25.912  33.661  0.00  0.00     0.105 C 
ATOM     19  C   UNL d   1     -49.321  23.245  33.727  0.00  0.00     0.107 C 
ATOM     20  C   UNL d   1     -51.013  28.292  33.402  0.00  0.00     0.009 C 
ATOM     21  C   UNL d   1     -52.294  28.153  33.337  0.00  0.00     0.009 C 
ENDROOT
BRANCH   9  22
ATOM     22  C   UNL d   1     -51.800  24.877  33.514  0.00  0.00     0.003 A 
ATOM     23  C   UNL d   1     -52.702  25.182  33.659  0.00  0.00     0.026 A 
ATOM     24  C   UNL d   1     -53.341  24.585  33.637  0.00  0.00     0.116 A 
ATOM     25  C   UNL d   1     -53.148  23.762  33.490  0.00  0.00     0.116 A 
ATOM     26  C   UNL d   1     -52.323  23.517  33.363  0.00  0.00     0.026 A 
ATOM     27  C   UNL d   1     -51.692  24.103  33.384  0.00  0.00     0.002 A 
BRANCH  24  28
ATOM     28  O   UNL d   1     -54.154  24.834  33.764  0.00  0.00    -0.326 OA
ATOM     29  C   UNL d   1     -54.799  24.470  33.315  0.00  0.00     0.181 C 
ENDBRANCH  24  28
BRANCH  25  30
ATOM     30  O   UNL d   1     -53.779  23.188  33.471  0.00  0.00    -0.326 OA
ATOM     31  C   UNL d   1     -54.436  23.226  34.039  0.00  0.00     0.181 C 
ENDBRANCH  25  30
ENDBRANCH   9  22
TORSDOF 3
ENDMDL
