MODEL 1
REMARK VINA RESULT:      19.3      0.000      0.000
REMARK  4 active torsions:
REMARK  status: ('A' for Active; 'I' for Inactive)
REMARK    1  A    between atoms: N_2  and  C_1 
REMARK    2  A    between atoms: C_4  and  C_1 
REMARK    3  A    between atoms: C_8  and  N_2 
REMARK    4  A    between atoms: N_7  and  C_6 
ROOT
ATOM      1  C   UNL d   1      13.372  12.358  -4.041  0.00  0.00     0.064 A 
ATOM      2  C   UNL d   1      13.967  11.974  -2.555  0.00  0.00     0.083 A 
ATOM      3  C   UNL d   1      12.855  12.179  -3.422  0.00  0.00     0.019 A 
ATOM      4  C   UNL d   1      14.187  12.343  -3.913  0.00  0.00     0.019 A 
ATOM      5  C   UNL d   1      13.149  11.987  -2.675  0.00  0.00     0.021 A 
ATOM      6  C   UNL d   1      14.490  12.151  -3.170  0.00  0.00     0.021 A 
ENDROOT
BRANCH   2   7
ATOM      7  N   UNL d   1      14.267  11.782  -1.810  0.00  0.00    -0.233 NA
BRANCH   7   8
ATOM      8  C   UNL d   1      13.987  12.179  -1.141  0.00  0.00     0.153 C 
ATOM      9  S   UNL d   1      13.253  11.982  -0.815  0.00  0.00    -0.056 SA
BRANCH   8  10
ATOM     10  C   UNL d   1      14.447  12.780  -0.795  0.00  0.00     0.109 A 
ATOM     11  N   UNL d   1      14.077  13.385  -0.362  0.00  0.00    -0.242 NA
ATOM     12  C   UNL d   1      14.530  13.983  -0.017  0.00  0.00     0.099 A 
ATOM     13  C   UNL d   1      15.351  13.978  -0.104  0.00  0.00     0.021 A 
ATOM     14  C   UNL d   1      15.720  13.373  -0.536  0.00  0.00     0.003 A 
ATOM     15  C   UNL d   1      15.268  12.775  -0.881  0.00  0.00     0.021 A 
ENDBRANCH   8  10
ENDBRANCH   7   8
ENDBRANCH   2   7
BRANCH   1  16
ATOM     16  N   UNL d   1      13.078  12.550  -4.788  0.00  0.00    -0.301 N 
ATOM     17  C   UNL d   1      12.832  11.954  -5.303  0.00  0.00     0.100 C 
ATOM     18  C   UNL d   1      13.031  13.342  -5.018  0.00  0.00     0.100 C 
ENDBRANCH   1  16
TORSDOF 4
ENDMDL
