MODEL 1
REMARK VINA RESULT:      -7.6      0.000      0.000
REMARK  6 active torsions:
REMARK  status: ('A' for Active; 'I' for Inactive)
REMARK    1  A    between atoms: C_3  and  C_4 
REMARK    2  A    between atoms: C_9  and  O_18 
REMARK    3  A    between atoms: O_17  and  C_10 
REMARK    4  A    between atoms: C_21  and  O_17 
REMARK    5  A    between atoms: O_18  and  C_20 
REMARK    6  A    between atoms: C_20  and  C_21 
ROOT
ATOM      1  N   UNL d   1      45.835  36.069  51.222  0.00  0.00    -0.191 NA
ATOM      2  C   UNL d   1      46.543  35.887  51.560  0.00  0.00     0.101 C 
ATOM      3  C   UNL d   1      47.264  35.701  51.904  0.00  0.00     0.068 A 
ATOM      4  C   UNL d   1      48.712  35.328  52.595  0.00  0.00     0.100 A 
ATOM      5  C   UNL d   1      47.786  35.197  51.519  0.00  0.00     0.012 A 
ATOM      6  C   UNL d   1      47.464  36.022  52.638  0.00  0.00     0.012 A 
ATOM      7  C   UNL d   1      48.189  35.835  52.984  0.00  0.00     0.025 A 
ATOM      8  C   UNL d   1      48.511  35.010  51.865  0.00  0.00     0.025 A 
ENDROOT
BRANCH   4   9
ATOM      9  O   UNL d   1      49.441  35.140  52.943  0.00  0.00    -0.303 OA
BRANCH   9  10
ATOM     10  C   UNL d   1      49.935  34.585  52.585  0.00  0.00     0.149 C 
BRANCH  10  11
ATOM     11  C   UNL d   1      50.627  34.347  52.965  0.00  0.00     0.149 C 
BRANCH  11  12
ATOM     12  O   UNL d   1      51.311  34.180  52.525  0.00  0.00    -0.303 OA
BRANCH  12  13
ATOM     13  C   UNL d   1      51.992  33.855  52.903  0.00  0.00     0.100 A 
ATOM     14  C   UNL d   1      52.529  34.355  53.281  0.00  0.00     0.025 A 
ATOM     15  C   UNL d   1      53.195  34.038  53.651  0.00  0.00     0.005 A 
ATOM     16  C   UNL d   1      53.322  33.222  53.641  0.00  0.00     0.039 A 
ATOM     17  C   UNL d   1      52.787  32.731  53.265  0.00  0.00     0.005 A 
ATOM     18  C   UNL d   1      52.121  33.048  52.896  0.00  0.00     0.025 A 
BRANCH  16  19
ATOM     19  C   UNL d   1      53.991  32.904  54.012  0.00  0.00     0.196 C 
ATOM     20  O   UNL d   1      54.603  32.599  53.563  0.00  0.00    -0.287 OA
ATOM     21  C   UNL d   1      54.038  32.895  54.836  0.00  0.00     0.045 C 
ENDBRANCH  16  19
ENDBRANCH  12  13
ENDBRANCH  11  12
ENDBRANCH  10  11
ENDBRANCH   9  10
ENDBRANCH   4   9
TORSDOF 6
ENDMDL
MODEL 2
REMARK VINA RESULT:      -7.4      2.972      6.067
REMARK  6 active torsions:
REMARK  status: ('A' for Active; 'I' for Inactive)
REMARK    1  A    between atoms: C_3  and  C_4 
REMARK    2  A    between atoms: C_9  and  O_18 
REMARK    3  A    between atoms: O_17  and  C_10 
REMARK    4  A    between atoms: C_21  and  O_17 
REMARK    5  A    between atoms: O_18  and  C_20 
REMARK    6  A    between atoms: C_20  and  C_21 
ROOT
ATOM      1  N   UNL d   1      53.443  28.492  54.779  0.00  0.00    -0.191 NA
ATOM      2  C   UNL d   1      53.350  29.176  54.366  0.00  0.00     0.101 C 
ATOM      3  C   UNL d   1      53.254  29.874  53.944  0.00  0.00     0.068 A 
ATOM      4  C   UNL d   1      53.062  31.274  53.098  0.00  0.00     0.100 A 
ATOM      5  C   UNL d   1      52.716  29.909  53.325  0.00  0.00     0.012 A 
ATOM      6  C   UNL d   1      53.700  30.539  54.144  0.00  0.00     0.012 A 
ATOM      7  C   UNL d   1      53.604  31.241  53.720  0.00  0.00     0.025 A 
ATOM      8  C   UNL d   1      52.620  30.611  52.901  0.00  0.00     0.025 A 
ENDROOT
BRANCH   4   9
ATOM      9  O   UNL d   1      52.965  31.979  52.672  0.00  0.00    -0.303 OA
BRANCH   9  10
ATOM     10  C   UNL d   1      52.603  32.628  53.031  0.00  0.00     0.149 C 
BRANCH  10  11
ATOM     11  C   UNL d   1      52.172  33.161  52.572  0.00  0.00     0.149 C 
BRANCH  11  12
ATOM     12  O   UNL d   1      51.788  33.805  52.928  0.00  0.00    -0.303 OA
BRANCH  12  13
ATOM     13  C   UNL d   1      51.049  34.080  52.627  0.00  0.00     0.100 A 
ATOM     14  C   UNL d   1      50.457  34.322  53.149  0.00  0.00     0.025 A 
ATOM     15  C   UNL d   1      49.735  34.592  52.854  0.00  0.00     0.005 A 
ATOM     16  C   UNL d   1      49.608  34.619  52.039  0.00  0.00     0.039 A 
ATOM     17  C   UNL d   1      50.198  34.378  51.525  0.00  0.00     0.005 A 
ATOM     18  C   UNL d   1      50.920  34.109  51.820  0.00  0.00     0.025 A 
BRANCH  16  19
ATOM     19  C   UNL d   1      48.883  34.890  51.742  0.00  0.00     0.196 C 
ATOM     20  O   UNL d   1      48.384  35.328  52.218  0.00  0.00    -0.287 OA
ATOM     21  C   UNL d   1      48.666  34.715  50.966  0.00  0.00     0.045 C 
ENDBRANCH  16  19
ENDBRANCH  12  13
ENDBRANCH  11  12
ENDBRANCH  10  11
ENDBRANCH   9  10
ENDBRANCH   4   9
TORSDOF 6
ENDMDL
MODEL 3
REMARK VINA RESULT:      -6.9      2.338      6.067
REMARK  6 active torsions:
REMARK  status: ('A' for Active; 'I' for Inactive)
REMARK    1  A    between atoms: C_3  and  C_4 
REMARK    2  A    between atoms: C_9  and  O_18 
REMARK    3  A    between atoms: O_17  and  C_10 
REMARK    4  A    between atoms: C_21  and  O_17 
REMARK    5  A    between atoms: O_18  and  C_20 
REMARK    6  A    between atoms: C_20  and  C_21 
ROOT
ATOM      1  N   UNL d   1      54.370  32.823  54.208  0.00  0.00    -0.191 NA
ATOM      2  C   UNL d   1      53.686  33.087  53.875  0.00  0.00     0.101 C 
ATOM      3  C   UNL d   1      52.989  33.357  53.535  0.00  0.00     0.068 A 
ATOM      4  C   UNL d   1      51.591  33.899  52.854  0.00  0.00     0.100 A 
ATOM      5  C   UNL d   1      52.903  34.153  53.352  0.00  0.00     0.012 A 
ATOM      6  C   UNL d   1      52.376  32.827  53.378  0.00  0.00     0.012 A 
ATOM      7  C   UNL d   1      51.676  33.099  53.037  0.00  0.00     0.025 A 
ATOM      8  C   UNL d   1      52.202  34.425  53.011  0.00  0.00     0.025 A 
ENDROOT
BRANCH   4   9
ATOM      9  O   UNL d   1      50.887  34.172  52.511  0.00  0.00    -0.303 OA
BRANCH   9  10
ATOM     10  C   UNL d   1      50.297  34.496  52.988  0.00  0.00     0.149 C 
BRANCH  10  11
ATOM     11  C   UNL d   1      49.615  34.805  52.643  0.00  0.00     0.149 C 
BRANCH  11  12
ATOM     12  O   UNL d   1      49.225  35.449  52.991  0.00  0.00    -0.303 OA
BRANCH  12  13
ATOM     13  C   UNL d   1      48.440  35.650  52.755  0.00  0.00     0.100 A 
ATOM     14  C   UNL d   1      47.928  36.012  53.293  0.00  0.00     0.025 A 
ATOM     15  C   UNL d   1      47.161  36.208  53.062  0.00  0.00     0.005 A 
ATOM     16  C   UNL d   1      46.908  36.043  52.294  0.00  0.00     0.039 A 
ATOM     17  C   UNL d   1      47.418  35.685  51.764  0.00  0.00     0.005 A 
ATOM     18  C   UNL d   1      48.185  35.488  51.995  0.00  0.00     0.025 A 
BRANCH  16  19
ATOM     19  C   UNL d   1      46.137  36.240  52.062  0.00  0.00     0.196 C 
ATOM     20  O   UNL d   1      45.869  36.040  51.317  0.00  0.00    -0.287 OA
ATOM     21  C   UNL d   1      45.641  36.640  52.586  0.00  0.00     0.045 C 
ENDBRANCH  16  19
ENDBRANCH  12  13
ENDBRANCH  11  12
ENDBRANCH  10  11
ENDBRANCH   9  10
ENDBRANCH   4   9
TORSDOF 6
ENDMDL
MODEL 4
REMARK VINA RESULT:      -6.9      3.595      4.721
REMARK  6 active torsions:
REMARK  status: ('A' for Active; 'I' for Inactive)
REMARK    1  A    between atoms: C_3  and  C_4 
REMARK    2  A    between atoms: C_9  and  O_18 
REMARK    3  A    between atoms: O_17  and  C_10 
REMARK    4  A    between atoms: C_21  and  O_17 
REMARK    5  A    between atoms: O_18  and  C_20 
REMARK    6  A    between atoms: C_20  and  C_21 
ROOT
ATOM      1  N   UNL d   1      53.335  36.498  54.769  0.00  0.00    -0.191 NA
ATOM      2  C   UNL d   1      53.074  35.826  54.410  0.00  0.00     0.101 C 
ATOM      3  C   UNL d   1      52.808  35.141  54.044  0.00  0.00     0.068 A 
ATOM      4  C   UNL d   1      52.273  33.767  53.309  0.00  0.00     0.100 A 
ATOM      5  C   UNL d   1      52.611  35.151  53.247  0.00  0.00     0.012 A 
ATOM      6  C   UNL d   1      52.739  34.443  54.479  0.00  0.00     0.012 A 
ATOM      7  C   UNL d   1      52.471  33.755  54.111  0.00  0.00     0.025 A 
ATOM      8  C   UNL d   1      52.343  34.463  52.879  0.00  0.00     0.025 A 
ENDROOT
BRANCH   4   9
ATOM      9  O   UNL d   1      52.004  33.076  52.940  0.00  0.00    -0.303 OA
BRANCH   9  10
ATOM     10  C   UNL d   1      52.541  32.481  52.742  0.00  0.00     0.149 C 
BRANCH  10  11
ATOM     11  C   UNL d   1      52.306  31.691  52.768  0.00  0.00     0.149 C 
BRANCH  11  12
ATOM     12  O   UNL d   1      52.842  31.087  52.579  0.00  0.00    -0.303 OA
BRANCH  12  13
ATOM     13  C   UNL d   1      52.988  30.460  53.124  0.00  0.00     0.100 A 
ATOM     14  C   UNL d   1      52.400  29.901  53.274  0.00  0.00     0.025 A 
ATOM     15  C   UNL d   1      52.542  29.288  53.808  0.00  0.00     0.005 A 
ATOM     16  C   UNL d   1      53.273  29.236  54.189  0.00  0.00     0.039 A 
ATOM     17  C   UNL d   1      53.853  29.792  54.037  0.00  0.00     0.005 A 
ATOM     18  C   UNL d   1      53.710  30.405  53.504  0.00  0.00     0.025 A 
BRANCH  16  19
ATOM     19  C   UNL d   1      53.416  28.620  54.725  0.00  0.00     0.196 C 
ATOM     20  O   UNL d   1      53.659  27.889  54.453  0.00  0.00    -0.287 OA
ATOM     21  C   UNL d   1      53.312  28.747  55.533  0.00  0.00     0.045 C 
ENDBRANCH  16  19
ENDBRANCH  12  13
ENDBRANCH  11  12
ENDBRANCH  10  11
ENDBRANCH   9  10
ENDBRANCH   4   9
TORSDOF 6
ENDMDL
MODEL 5
REMARK VINA RESULT:      -6.5      1.369      1.840
REMARK  6 active torsions:
REMARK  status: ('A' for Active; 'I' for Inactive)
REMARK    1  A    between atoms: C_3  and  C_4 
REMARK    2  A    between atoms: C_9  and  O_18 
REMARK    3  A    between atoms: O_17  and  C_10 
REMARK    4  A    between atoms: C_21  and  O_17 
REMARK    5  A    between atoms: O_18  and  C_20 
REMARK    6  A    between atoms: C_20  and  C_21 
ROOT
ATOM      1  N   UNL d   1      47.138  35.938  51.405  0.00  0.00    -0.191 NA
ATOM      2  C   UNL d   1      47.787  35.627  51.767  0.00  0.00     0.101 C 
ATOM      3  C   UNL d   1      48.448  35.310  52.136  0.00  0.00     0.068 A 
ATOM      4  C   UNL d   1      49.774  34.673  52.876  0.00  0.00     0.100 A 
ATOM      5  C   UNL d   1      48.909  34.754  51.746  0.00  0.00     0.012 A 
ATOM      6  C   UNL d   1      48.647  35.551  52.900  0.00  0.00     0.012 A 
ATOM      7  C   UNL d   1      49.312  35.232  53.271  0.00  0.00     0.025 A 
ATOM      8  C   UNL d   1      49.574  34.435  52.116  0.00  0.00     0.025 A 
ENDROOT
BRANCH   4   9
ATOM      9  O   UNL d   1      50.442  34.353  53.249  0.00  0.00    -0.303 OA
BRANCH   9  10
ATOM     10  C   UNL d   1      51.060  34.051  52.794  0.00  0.00     0.149 C 
BRANCH  10  11
ATOM     11  C   UNL d   1      51.629  33.567  53.145  0.00  0.00     0.149 C 
BRANCH  11  12
ATOM     12  O   UNL d   1      52.224  33.218  52.684  0.00  0.00    -0.303 OA
BRANCH  12  13
ATOM     13  C   UNL d   1      52.570  32.485  52.918  0.00  0.00     0.100 A 
ATOM     14  C   UNL d   1      52.219  31.774  52.691  0.00  0.00     0.025 A 
ATOM     15  C   UNL d   1      52.557  31.057  52.920  0.00  0.00     0.005 A 
ATOM     16  C   UNL d   1      53.245  31.054  53.375  0.00  0.00     0.039 A 
ATOM     17  C   UNL d   1      53.591  31.761  53.598  0.00  0.00     0.005 A 
ATOM     18  C   UNL d   1      53.252  32.478  53.369  0.00  0.00     0.025 A 
BRANCH  16  19
ATOM     19  C   UNL d   1      53.585  30.334  53.606  0.00  0.00     0.196 C 
ATOM     20  O   UNL d   1      54.314  30.111  53.310  0.00  0.00    -0.287 OA
ATOM     21  C   UNL d   1      53.185  29.842  54.134  0.00  0.00     0.045 C 
ENDBRANCH  16  19
ENDBRANCH  12  13
ENDBRANCH  11  12
ENDBRANCH  10  11
ENDBRANCH   9  10
ENDBRANCH   4   9
TORSDOF 6
ENDMDL
MODEL 6
REMARK VINA RESULT:      -6.2      4.010      5.811
REMARK  6 active torsions:
REMARK  status: ('A' for Active; 'I' for Inactive)
REMARK    1  A    between atoms: C_3  and  C_4 
REMARK    2  A    between atoms: C_9  and  O_18 
REMARK    3  A    between atoms: O_17  and  C_10 
REMARK    4  A    between atoms: C_21  and  O_17 
REMARK    5  A    between atoms: O_18  and  C_20 
REMARK    6  A    between atoms: C_20  and  C_21 
ROOT
ATOM      1  N   UNL d   1      53.438  28.095  55.164  0.00  0.00    -0.191 NA
ATOM      2  C   UNL d   1      53.330  28.710  54.656  0.00  0.00     0.101 C 
ATOM      3  C   UNL d   1      53.221  29.337  54.138  0.00  0.00     0.068 A 
ATOM      4  C   UNL d   1      53.001  30.596  53.098  0.00  0.00     0.100 A 
ATOM      5  C   UNL d   1      52.540  29.378  53.680  0.00  0.00     0.012 A 
ATOM      6  C   UNL d   1      53.796  29.926  54.078  0.00  0.00     0.012 A 
ATOM      7  C   UNL d   1      53.686  30.557  53.558  0.00  0.00     0.025 A 
ATOM      8  C   UNL d   1      52.430  30.008  53.159  0.00  0.00     0.025 A 
ENDROOT
BRANCH   4   9
ATOM      9  O   UNL d   1      52.890  31.229  52.575  0.00  0.00    -0.303 OA
BRANCH   9  10
ATOM     10  C   UNL d   1      52.297  31.784  52.722  0.00  0.00     0.149 C 
BRANCH  10  11
ATOM     11  C   UNL d   1      52.458  32.588  52.638  0.00  0.00     0.149 C 
BRANCH  11  12
ATOM     12  O   UNL d   1      51.945  33.154  52.961  0.00  0.00    -0.303 OA
BRANCH  12  13
ATOM     13  C   UNL d   1      52.253  33.830  53.363  0.00  0.00     0.100 A 
ATOM     14  C   UNL d   1      52.468  33.773  54.158  0.00  0.00     0.025 A 
ATOM     15  C   UNL d   1      52.769  34.433  54.550  0.00  0.00     0.005 A 
ATOM     16  C   UNL d   1      52.855  35.148  54.146  0.00  0.00     0.039 A 
ATOM     17  C   UNL d   1      52.641  35.200  53.358  0.00  0.00     0.005 A 
ATOM     18  C   UNL d   1      52.340  34.540  52.966  0.00  0.00     0.025 A 
BRANCH  16  19
ATOM     19  C   UNL d   1      53.158  35.811  54.540  0.00  0.00     0.196 C 
ATOM     20  O   UNL d   1      52.661  36.425  54.751  0.00  0.00    -0.287 OA
ATOM     21  C   UNL d   1      53.962  35.850  54.718  0.00  0.00     0.045 C 
ENDBRANCH  16  19
ENDBRANCH  12  13
ENDBRANCH  11  12
ENDBRANCH  10  11
ENDBRANCH   9  10
ENDBRANCH   4   9
TORSDOF 6
ENDMDL
MODEL 7
REMARK VINA RESULT:      -5.2     10.961     11.394
REMARK  6 active torsions:
REMARK  status: ('A' for Active; 'I' for Inactive)
REMARK    1  A    between atoms: C_3  and  C_4 
REMARK    2  A    between atoms: C_9  and  O_18 
REMARK    3  A    between atoms: O_17  and  C_10 
REMARK    4  A    between atoms: C_21  and  O_17 
REMARK    5  A    between atoms: O_18  and  C_20 
REMARK    6  A    between atoms: C_20  and  C_21 
ROOT
ATOM      1  N   UNL d   1      44.802  30.361  58.844  0.00  0.00    -0.191 NA
ATOM      2  C   UNL d   1      44.940  29.692  58.419  0.00  0.00     0.101 C 
ATOM      3  C   UNL d   1      45.082  29.010  57.985  0.00  0.00     0.068 A 
ATOM      4  C   UNL d   1      45.366  27.641  57.114  0.00  0.00     0.100 A 
ATOM      5  C   UNL d   1      45.298  28.316  58.368  0.00  0.00     0.012 A 
ATOM      6  C   UNL d   1      45.006  29.022  57.163  0.00  0.00     0.012 A 
ATOM      7  C   UNL d   1      45.148  28.337  56.726  0.00  0.00     0.025 A 
ATOM      8  C   UNL d   1      45.440  27.631  57.932  0.00  0.00     0.025 A 
ENDROOT
BRANCH   4   9
ATOM      9  O   UNL d   1      45.508  26.952  56.676  0.00  0.00    -0.303 OA
BRANCH   9  10
ATOM     10  C   UNL d   1      44.922  26.374  56.617  0.00  0.00     0.149 C 
BRANCH  10  11
ATOM     11  C   UNL d   1      45.077  25.672  56.213  0.00  0.00     0.149 C 
BRANCH  11  12
ATOM     12  O   UNL d   1      44.454  25.178  55.977  0.00  0.00    -0.303 OA
BRANCH  12  13
ATOM     13  C   UNL d   1      44.607  24.494  55.506  0.00  0.00     0.100 A 
ATOM     14  C   UNL d   1      44.962  23.831  55.846  0.00  0.00     0.025 A 
ATOM     15  C   UNL d   1      45.111  23.163  55.386  0.00  0.00     0.005 A 
ATOM     16  C   UNL d   1      44.905  23.161  54.587  0.00  0.00     0.039 A 
ATOM     17  C   UNL d   1      44.553  23.819  54.253  0.00  0.00     0.005 A 
ATOM     18  C   UNL d   1      44.404  24.487  54.714  0.00  0.00     0.025 A 
BRANCH  16  19
ATOM     19  C   UNL d   1      45.055  22.489  54.124  0.00  0.00     0.196 C 
ATOM     20  O   UNL d   1      45.774  22.106  54.179  0.00  0.00    -0.287 OA
ATOM     21  C   UNL d   1      44.475  22.209  53.608  0.00  0.00     0.045 C 
ENDBRANCH  16  19
ENDBRANCH  12  13
ENDBRANCH  11  12
ENDBRANCH  10  11
ENDBRANCH   9  10
ENDBRANCH   4   9
TORSDOF 6
ENDMDL
