MODEL 1
REMARK VINA RESULT:       2.4      0.000      0.000
REMARK  8 active torsions:
REMARK  status: ('A' for Active; 'I' for Inactive)
REMARK    1  A    between atoms: C_8  and  C_1 
REMARK    2  A    between atoms: C_7  and  C_2 
REMARK    3  A    between atoms: C_9  and  C_3 
REMARK    4  A    between atoms: O_14  and  C_7 
REMARK    5  A    between atoms: O_15  and  C_8 
REMARK    6  A    between atoms: C_22  and  O_14 
REMARK    7  A    between atoms: C_23  and  O_15 
REMARK    8  A    between atoms: O_21  and  C_18 
ROOT
ATOM      1  C   UNL d   1      59.821  -0.756  29.548  0.00  0.00     0.081 A 
ATOM      2  C   UNL d   1      59.164  -1.988  29.280  0.00  0.00     0.081 A 
ATOM      3  C   UNL d   1      59.170  -1.252  29.641  0.00  0.00     0.013 A 
ATOM      4  C   UNL d   1      60.465  -1.000  29.094  0.00  0.00     0.086 A 
ATOM      5  C   UNL d   1      59.808  -2.233  28.826  0.00  0.00     0.086 A 
ATOM      6  N   UNL d   1      60.457  -1.740  28.733  0.00  0.00    -0.245 NA
ATOM      7  C   UNL d   1      59.802  -2.989  28.455  0.00  0.00     0.021 C 
ATOM      8  C   UNL d   1      61.130  -0.498  28.998  0.00  0.00     0.021 C 
ENDROOT
BRANCH   3   9
ATOM      9  C   UNL d   1      58.523  -1.006  30.097  0.00  0.00     0.001 A 
ATOM     10  C   UNL d   1      58.014  -0.428  29.814  0.00  0.00     0.002 A 
ATOM     11  C   UNL d   1      57.364  -0.182  30.273  0.00  0.00     0.024 A 
ATOM     12  C   UNL d   1      57.229  -0.515  31.010  0.00  0.00     0.094 A 
ATOM     13  C   UNL d   1      57.739  -1.095  31.296  0.00  0.00     0.024 A 
ATOM     14  C   UNL d   1      58.389  -1.342  30.837  0.00  0.00     0.002 A 
BRANCH  12  15
ATOM     15  O   UNL d   1      56.590  -0.276  31.467  0.00  0.00    -0.328 OA
ATOM     16  C   UNL d   1      56.225  -0.816  31.970  0.00  0.00     0.181 C 
ENDBRANCH  12  15
ENDBRANCH   3   9
BRANCH   2  17
ATOM     17  C   UNL d   1      58.495  -2.493  29.377  0.00  0.00     0.302 C 
ATOM     18  O   UNL d   1      57.777  -2.178  29.626  0.00  0.00    -0.259 OA
BRANCH  17  19
ATOM     19  O   UNL d   1      58.566  -3.306  29.221  0.00  0.00    -0.271 OA
BRANCH  19  20
ATOM     20  C   UNL d   1      57.910  -3.800  29.285  0.00  0.00     0.126 C 
ATOM     21  C   UNL d   1      57.701  -4.294  28.662  0.00  0.00     0.029 C 
ENDBRANCH  19  20
ENDBRANCH  17  19
ENDBRANCH   2  17
BRANCH   1  22
ATOM     22  C   UNL d   1      59.823  -0.002  29.920  0.00  0.00     0.302 C 
ATOM     23  O   UNL d   1      59.562   0.670  29.495  0.00  0.00    -0.259 OA
BRANCH  22  24
ATOM     24  O   UNL d   1      60.082   0.061  30.700  0.00  0.00    -0.271 OA
BRANCH  24  25
ATOM     25  C   UNL d   1      60.660   0.617  30.893  0.00  0.00     0.126 C 
ATOM     26  C   UNL d   1      60.922   0.682  31.675  0.00  0.00     0.029 C 
ENDBRANCH  24  25
ENDBRANCH  22  24
ENDBRANCH   1  22
TORSDOF 8
ENDMDL
MODEL 2
REMARK VINA RESULT:       5.2      2.549      4.404
REMARK  8 active torsions:
REMARK  status: ('A' for Active; 'I' for Inactive)
REMARK    1  A    between atoms: C_8  and  C_1 
REMARK    2  A    between atoms: C_7  and  C_2 
REMARK    3  A    between atoms: C_9  and  C_3 
REMARK    4  A    between atoms: O_14  and  C_7 
REMARK    5  A    between atoms: O_15  and  C_8 
REMARK    6  A    between atoms: C_22  and  O_14 
REMARK    7  A    between atoms: C_23  and  O_15 
REMARK    8  A    between atoms: O_21  and  C_18 
ROOT
ATOM      1  C   UNL d   1      57.662   0.199  33.735  0.00  0.00     0.081 A 
ATOM      2  C   UNL d   1      57.670   0.201  32.313  0.00  0.00     0.081 A 
ATOM      3  C   UNL d   1      57.286   0.041  33.019  0.00  0.00     0.013 A 
ATOM      4  C   UNL d   1      58.424   0.517  33.739  0.00  0.00     0.086 A 
ATOM      5  C   UNL d   1      58.432   0.518  32.317  0.00  0.00     0.086 A 
ATOM      6  N   UNL d   1      58.807   0.676  33.029  0.00  0.00    -0.245 NA
ATOM      7  C   UNL d   1      58.826   0.682  31.592  0.00  0.00     0.021 C 
ATOM      8  C   UNL d   1      58.810   0.679  34.466  0.00  0.00     0.021 C 
ENDROOT
BRANCH   3   9
ATOM      9  C   UNL d   1      56.521  -0.278  33.014  0.00  0.00     0.001 A 
ATOM     10  C   UNL d   1      55.867   0.217  32.996  0.00  0.00     0.002 A 
ATOM     11  C   UNL d   1      55.098  -0.103  32.992  0.00  0.00     0.024 A 
ATOM     12  C   UNL d   1      54.991  -0.916  33.005  0.00  0.00     0.094 A 
ATOM     13  C   UNL d   1      55.646  -1.416  33.023  0.00  0.00     0.024 A 
ATOM     14  C   UNL d   1      56.414  -1.095  33.028  0.00  0.00     0.002 A 
BRANCH  12  15
ATOM     15  O   UNL d   1      54.235  -1.239  33.000  0.00  0.00    -0.328 OA
ATOM     16  C   UNL d   1      53.869  -1.428  33.713  0.00  0.00     0.181 C 
ENDBRANCH  12  15
ENDBRANCH   3   9
BRANCH   2  17
ATOM     17  C   UNL d   1      57.281   0.037  31.582  0.00  0.00     0.302 C 
ATOM     18  O   UNL d   1      56.769   0.592  31.257  0.00  0.00    -0.259 OA
BRANCH  17  19
ATOM     19  O   UNL d   1      57.417  -0.686  31.196  0.00  0.00    -0.271 OA
BRANCH  19  20
ATOM     20  C   UNL d   1      57.585  -0.701  30.390  0.00  0.00     0.126 C 
ATOM     21  C   UNL d   1      58.090  -1.272  30.082  0.00  0.00     0.029 C 
ENDBRANCH  19  20
ENDBRANCH  17  19
ENDBRANCH   2  17
BRANCH   1  22
ATOM     22  C   UNL d   1      57.264   0.034  34.456  0.00  0.00     0.302 C 
ATOM     23  O   UNL d   1      57.218  -0.754  34.734  0.00  0.00    -0.259 OA
BRANCH  22  24
ATOM     24  O   UNL d   1      56.924   0.654  34.879  0.00  0.00    -0.271 OA
BRANCH  24  25
ATOM     25  C   UNL d   1      56.956   0.650  35.703  0.00  0.00     0.126 C 
ATOM     26  C   UNL d   1      56.254   0.679  36.141  0.00  0.00     0.029 C 
ENDBRANCH  24  25
ENDBRANCH  22  24
ENDBRANCH   1  22
TORSDOF 8
ENDMDL
