MODEL 1
REMARK VINA RESULT:      28.7      0.000      0.000
REMARK  3 active torsions:
REMARK  status: ('A' for Active; 'I' for Inactive)
REMARK    1  A    between atoms: C_8  and  C_6 
REMARK    2  A    between atoms: C_9  and  C_8 
REMARK       I    between atoms: N_10  and  C_9 
REMARK    3  A    between atoms: C_14  and  N_10 
ROOT
ATOM      1  N   UNL d   1      45.682 -18.211  44.011  0.00  0.00    -0.207 NA
ATOM      2  N   UNL d   1      46.078 -17.079  42.838  0.00  0.00    -0.240 NA
ATOM      3  C   UNL d   1      45.686 -17.398  44.015  0.00  0.00     0.297 A 
ATOM      4  C   UNL d   1      45.879 -18.737  43.407  0.00  0.00     0.086 A 
ATOM      5  C   UNL d   1      46.217 -17.761  42.405  0.00  0.00     0.083 A 
ATOM      6  C   UNL d   1      45.821 -17.018  43.616  0.00  0.00     0.144 A 
ATOM      7  C   UNL d   1      46.136 -18.554  42.634  0.00  0.00     0.035 A 
ATOM      8  O   UNL d   1      45.454 -17.048  44.721  0.00  0.00    -0.264 OA
ATOM      9  C   UNL d   1      46.307 -19.167  42.109  0.00  0.00     0.003 A 
ATOM     10  C   UNL d   1      46.472 -17.580  41.642  0.00  0.00     0.019 A 
ATOM     11  C   UNL d   1      45.797 -19.526  43.639  0.00  0.00     0.019 A 
ATOM     12  C   UNL d   1      45.970 -20.133  43.107  0.00  0.00     0.002 A 
ATOM     13  C   UNL d   1      46.646 -18.198  41.103  0.00  0.00     0.002 A 
ATOM     14  C   UNL d   1      46.224 -19.952  42.343  0.00  0.00     0.000 A 
ATOM     15  C   UNL d   1      46.564 -18.983  41.337  0.00  0.00     0.000 A 
ENDROOT
BRANCH   6  16
ATOM     16  C   UNL d   1      45.741 -16.239  43.871  0.00  0.00     0.086 C 
BRANCH  16  17
ATOM     17  C   UNL d   1      46.172 -15.981  44.534  0.00  0.00     0.281 C 
ATOM     18  N   UNL d   1      46.124 -15.191  44.774  0.00  0.00    -0.208 NA
ATOM     19  O   UNL d   1      46.647 -16.510  44.954  0.00  0.00    -0.265 OA
BRANCH  18  20
ATOM     20  C   UNL d   1      45.651 -14.658  44.358  0.00  0.00     0.085 A 
ATOM     21  C   UNL d   1      44.851 -14.586  44.542  0.00  0.00     0.019 A 
ATOM     22  C   UNL d   1      44.381 -14.053  44.125  0.00  0.00     0.002 A 
ATOM     23  C   UNL d   1      44.710 -13.594  43.525  0.00  0.00     0.000 A 
ATOM     24  C   UNL d   1      45.517 -13.669  43.342  0.00  0.00     0.002 A 
ATOM     25  C   UNL d   1      44.250 -13.071  43.115  0.00  0.00     0.000 C 
ATOM     26  C   UNL d   1      45.982 -14.202  43.761  0.00  0.00     0.019 A 
ENDBRANCH  18  20
ENDBRANCH  16  17
ENDBRANCH   6  16
TORSDOF 3
ENDMDL
