MODEL 1
REMARK VINA RESULT:      -0.2      0.000      0.000
REMARK  7 active torsions:
REMARK  status: ('A' for Active; 'I' for Inactive)
REMARK    1  A    between atoms: N_3  and  S_1 
REMARK    2  A    between atoms: C_8  and  S_1 
REMARK    3  A    between atoms: S_2  and  C_7 
REMARK    4  A    between atoms: N_9  and  S_2 
REMARK    5  A    between atoms: C_4  and  N_3 
REMARK       I    between atoms: C_5  and  N_10 
REMARK    6  A    between atoms: C_16  and  C_5 
REMARK    7  A    between atoms: N_10  and  C_24 
ROOT
ATOM      1  C   UNL d   1      58.466  -0.724  30.227  0.00  0.00     0.106 A 
ATOM      2  C   UNL d   1      57.775  -1.135  30.364  0.00  0.00     0.015 A 
ATOM      3  C   UNL d   1      58.685  -0.090  30.707  0.00  0.00     0.015 A 
ATOM      4  C   UNL d   1      57.499  -0.282  31.474  0.00  0.00     0.085 A 
ATOM      5  C   UNL d   1      58.197   0.131  31.334  0.00  0.00     0.020 A 
ATOM      6  C   UNL d   1      57.288  -0.915  30.989  0.00  0.00     0.020 A 
ENDROOT
BRANCH   4   7
ATOM      7  N   UNL d   1      57.007  -0.056  32.110  0.00  0.00    -0.208 NA
ATOM      8  C   UNL d   1      56.436  -0.576  32.399  0.00  0.00     0.279 C 
ATOM      9  O   UNL d   1      56.357  -1.323  32.053  0.00  0.00    -0.265 OA
BRANCH   8  10
ATOM     10  C   UNL d   1      55.953  -0.351  33.026  0.00  0.00     0.058 A 
ATOM     11  C   UNL d   1      55.191  -0.659  33.097  0.00  0.00     0.005 A 
ATOM     12  C   UNL d   1      54.708  -0.437  33.721  0.00  0.00     0.013 A 
ATOM     13  C   UNL d   1      54.979   0.105  34.291  0.00  0.00     0.104 A 
ATOM     14  C   UNL d   1      55.753   0.417  34.216  0.00  0.00     0.013 A 
ATOM     15  C   UNL d   1      56.235   0.195  33.595  0.00  0.00     0.005 A 
BRANCH  13  16
ATOM     16  S   UNL d   1      54.488   0.330  34.922  0.00  0.00     0.271 S 
ATOM     17  O   UNL d   1      55.033   0.016  35.462  0.00  0.00    -0.200 OA
ATOM     18  O   UNL d   1      53.946   0.643  34.377  0.00  0.00    -0.200 OA
BRANCH  16  19
ATOM     19  N   UNL d   1      54.000   0.553  35.549  0.00  0.00    -0.226 N 
ATOM     20  C   UNL d   1      53.181   0.652  35.426  0.00  0.00     0.111 C 
ATOM     21  C   UNL d   1      54.316   0.681  36.296  0.00  0.00     0.111 C 
ENDBRANCH  16  19
ENDBRANCH  13  16
ENDBRANCH   8  10
ENDBRANCH   4   7
BRANCH   1  22
ATOM     22  S   UNL d   1      58.953  -0.944  29.601  0.00  0.00     0.300 S 
ATOM     23  O   UNL d   1      59.601  -0.584  29.968  0.00  0.00    -0.198 OA
ATOM     24  O   UNL d   1      58.319  -1.306  29.222  0.00  0.00    -0.198 OA
BRANCH  22  25
ATOM     25  N   UNL d   1      59.448  -1.164  28.971  0.00  0.00     0.034 NA
BRANCH  25  26
ATOM     26  C   UNL d   1      59.845  -1.885  28.990  0.00  0.00     0.760 A 
ATOM     27  N   UNL d   1      59.462  -2.583  28.730  0.00  0.00    -0.059 NA
ATOM     28  C   UNL d   1      59.860  -3.304  28.751  0.00  0.00     0.102 A 
ATOM     29  C   UNL d   1      59.483  -3.991  28.494  0.00  0.00     0.021 C 
ATOM     30  C   UNL d   1      60.635  -3.336  29.027  0.00  0.00     0.041 A 
ATOM     31  C   UNL d   1      61.017  -2.639  29.287  0.00  0.00     0.120 A 
ATOM     32  N   UNL d   1      60.616  -1.926  29.264  0.00  0.00    -0.057 NA
ENDBRANCH  25  26
ENDBRANCH  22  25
ENDBRANCH   1  22
TORSDOF 7
ENDMDL
