MODEL 1
REMARK VINA RESULT:      -5.8      0.000      0.000
REMARK  3 active torsions:
REMARK  status: ('A' for Active; 'I' for Inactive)
REMARK    1  A    between atoms: S_7  and  C_4 
REMARK    2  A    between atoms: C_9  and  S_7 
REMARK    3  A    between atoms: C_10  and  C_9 
ROOT
ATOM      1  S   UNL d   1      57.540   0.307  31.060  0.00  0.00    -0.046 SA
ENDROOT
BRANCH   1   2
ATOM      2  C   UNL d   1      58.060   0.220  30.426  0.00  0.00     0.217 A 
ATOM      3  N   UNL d   1      58.862   0.399  30.521  0.00  0.00    -0.180 NA
ATOM      4  C   UNL d   1      59.383   0.311  29.887  0.00  0.00     0.300 A 
ATOM      5  C   UNL d   1      59.102   0.044  29.160  0.00  0.00     0.161 A 
ATOM      6  O   UNL d   1      60.184   0.490  29.982  0.00  0.00    -0.263 OA
ATOM      7  C   UNL d   1      59.622  -0.044  28.525  0.00  0.00     0.028 C 
ATOM      8  N   UNL d   1      58.300  -0.135  29.065  0.00  0.00    -0.141 NA
ATOM      9  N   UNL d   1      57.780  -0.047  29.698  0.00  0.00    -0.121 NA
ENDBRANCH   1   2
BRANCH   1  10
ATOM     10  C   UNL d   1      57.193  -0.359  31.407  0.00  0.00     0.038 C 
BRANCH  10  11
ATOM     11  C   UNL d   1      56.645  -0.270  32.017  0.00  0.00     0.007 A 
ATOM     12  C   UNL d   1      56.400   0.485  32.247  0.00  0.00     0.001 A 
ATOM     13  C   UNL d   1      55.852   0.574  32.858  0.00  0.00     0.000 A 
ATOM     14  C   UNL d   1      55.551  -0.094  33.239  0.00  0.00     0.000 A 
ATOM     15  C   UNL d   1      55.796  -0.848  33.009  0.00  0.00     0.000 A 
ATOM     16  C   UNL d   1      55.003  -0.005  33.850  0.00  0.00     0.000 C 
ATOM     17  C   UNL d   1      56.344  -0.937  32.398  0.00  0.00     0.001 A 
ENDBRANCH  10  11
ENDBRANCH   1  10
TORSDOF 3
ENDMDL
MODEL 2
REMARK VINA RESULT:      -5.7      0.697      1.181
REMARK  3 active torsions:
REMARK  status: ('A' for Active; 'I' for Inactive)
REMARK    1  A    between atoms: S_7  and  C_4 
REMARK    2  A    between atoms: C_9  and  S_7 
REMARK    3  A    between atoms: C_10  and  C_9 
ROOT
ATOM      1  S   UNL d   1      57.474   0.441  31.107  0.00  0.00    -0.046 SA
ENDROOT
BRANCH   1   2
ATOM      2  C   UNL d   1      58.062   0.365  30.533  0.00  0.00     0.217 A 
ATOM      3  N   UNL d   1      57.873   0.071  29.784  0.00  0.00    -0.180 NA
ATOM      4  C   UNL d   1      58.460  -0.005  29.210  0.00  0.00     0.300 A 
ATOM      5  C   UNL d   1      59.236   0.212  29.385  0.00  0.00     0.161 A 
ATOM      6  O   UNL d   1      58.272  -0.299  28.460  0.00  0.00    -0.263 OA
ATOM      7  C   UNL d   1      59.824   0.136  28.811  0.00  0.00     0.028 C 
ATOM      8  N   UNL d   1      59.425   0.506  30.134  0.00  0.00    -0.141 NA
ATOM      9  N   UNL d   1      58.838   0.582  30.708  0.00  0.00    -0.121 NA
ENDBRANCH   1   2
BRANCH   1  10
ATOM     10  C   UNL d   1      57.274  -0.205  31.583  0.00  0.00     0.038 C 
BRANCH  10  11
ATOM     11  C   UNL d   1      56.669  -0.137  32.140  0.00  0.00     0.007 A 
ATOM     12  C   UNL d   1      56.340  -0.814  32.480  0.00  0.00     0.001 A 
ATOM     13  C   UNL d   1      55.735  -0.746  33.037  0.00  0.00     0.000 A 
ATOM     14  C   UNL d   1      55.459   0.001  33.253  0.00  0.00     0.000 A 
ATOM     15  C   UNL d   1      55.788   0.678  32.914  0.00  0.00     0.000 A 
ATOM     16  C   UNL d   1      54.854   0.069  33.810  0.00  0.00     0.000 C 
ATOM     17  C   UNL d   1      56.393   0.610  32.357  0.00  0.00     0.001 A 
ENDBRANCH  10  11
ENDBRANCH   1  10
TORSDOF 3
ENDMDL
MODEL 3
REMARK VINA RESULT:      -4.6      1.949      4.420
REMARK  3 active torsions:
REMARK  status: ('A' for Active; 'I' for Inactive)
REMARK    1  A    between atoms: S_7  and  C_4 
REMARK    2  A    between atoms: C_9  and  S_7 
REMARK    3  A    between atoms: C_10  and  C_9 
ROOT
ATOM      1  S   UNL d   1      57.518  -0.139  31.216  0.00  0.00    -0.046 SA
ENDROOT
BRANCH   1   2
ATOM      2  C   UNL d   1      56.934  -0.144  31.799  0.00  0.00     0.217 A 
ATOM      3  N   UNL d   1      56.645  -0.863  32.088  0.00  0.00    -0.180 NA
ATOM      4  C   UNL d   1      56.061  -0.868  32.670  0.00  0.00     0.300 A 
ATOM      5  C   UNL d   1      55.767  -0.156  32.963  0.00  0.00     0.161 A 
ATOM      6  O   UNL d   1      55.771  -1.587  32.960  0.00  0.00    -0.263 OA
ATOM      7  C   UNL d   1      55.182  -0.161  33.546  0.00  0.00     0.028 C 
ATOM      8  N   UNL d   1      56.056   0.562  32.674  0.00  0.00    -0.141 NA
ATOM      9  N   UNL d   1      56.640   0.568  32.092  0.00  0.00    -0.121 NA
ENDBRANCH   1   2
BRANCH   1  10
ATOM     10  C   UNL d   1      57.685   0.558  30.803  0.00  0.00     0.038 C 
BRANCH  10  11
ATOM     11  C   UNL d   1      58.266   0.563  30.217  0.00  0.00     0.007 A 
ATOM     12  C   UNL d   1      59.059   0.677  30.420  0.00  0.00     0.001 A 
ATOM     13  C   UNL d   1      59.640   0.682  29.834  0.00  0.00     0.000 A 
ATOM     14  C   UNL d   1      59.426   0.573  29.044  0.00  0.00     0.000 A 
ATOM     15  C   UNL d   1      58.634   0.458  28.841  0.00  0.00     0.000 A 
ATOM     16  C   UNL d   1      60.007   0.578  28.458  0.00  0.00     0.000 C 
ATOM     17  C   UNL d   1      58.053   0.453  29.427  0.00  0.00     0.001 A 
ENDBRANCH  10  11
ENDBRANCH   1  10
TORSDOF 3
ENDMDL
MODEL 4
REMARK VINA RESULT:      -3.8      2.298      4.409
REMARK  3 active torsions:
REMARK  status: ('A' for Active; 'I' for Inactive)
REMARK    1  A    between atoms: S_7  and  C_4 
REMARK    2  A    between atoms: C_9  and  S_7 
REMARK    3  A    between atoms: C_10  and  C_9 
ROOT
ATOM      1  S   UNL d   1      57.051  -0.313  32.126  0.00  0.00    -0.046 SA
ENDROOT
BRANCH   1   2
ATOM      2  C   UNL d   1      56.509  -0.126  32.720  0.00  0.00     0.217 A 
ATOM      3  N   UNL d   1      56.774   0.185  33.439  0.00  0.00    -0.180 NA
ATOM      4  C   UNL d   1      56.232   0.372  34.032  0.00  0.00     0.300 A 
ATOM      5  C   UNL d   1      55.427   0.248  33.907  0.00  0.00     0.161 A 
ATOM      6  O   UNL d   1      56.496   0.682  34.752  0.00  0.00    -0.263 OA
ATOM      7  C   UNL d   1      54.884   0.435  34.500  0.00  0.00     0.028 C 
ATOM      8  N   UNL d   1      55.162  -0.062  33.187  0.00  0.00    -0.141 NA
ATOM      9  N   UNL d   1      55.703  -0.249  32.594  0.00  0.00    -0.121 NA
ENDBRANCH   1   2
BRANCH   1  10
ATOM     10  C   UNL d   1      57.009   0.067  31.393  0.00  0.00     0.038 C 
BRANCH  10  11
ATOM     11  C   UNL d   1      57.662   0.067  30.888  0.00  0.00     0.007 A 
ATOM     12  C   UNL d   1      58.212   0.682  30.923  0.00  0.00     0.001 A 
ATOM     13  C   UNL d   1      58.865   0.682  30.419  0.00  0.00     0.000 A 
ATOM     14  C   UNL d   1      58.967   0.065  29.880  0.00  0.00     0.000 A 
ATOM     15  C   UNL d   1      58.417  -0.550  29.845  0.00  0.00     0.000 A 
ATOM     16  C   UNL d   1      59.621   0.065  29.376  0.00  0.00     0.000 C 
ATOM     17  C   UNL d   1      57.764  -0.550  30.350  0.00  0.00     0.001 A 
ENDBRANCH  10  11
ENDBRANCH   1  10
TORSDOF 3
ENDMDL
MODEL 5
REMARK VINA RESULT:      -3.1      9.813     10.355
REMARK  3 active torsions:
REMARK  status: ('A' for Active; 'I' for Inactive)
REMARK    1  A    between atoms: S_7  and  C_4 
REMARK    2  A    between atoms: C_9  and  S_7 
REMARK    3  A    between atoms: C_10  and  C_9 
ROOT
ATOM      1  S   UNL d   1      59.120  -9.054  33.473  0.00  0.00    -0.046 SA
ENDROOT
BRANCH   1   2
ATOM      2  C   UNL d   1      59.535  -9.043  34.186  0.00  0.00     0.217 A 
ATOM      3  N   UNL d   1      60.035  -8.408  34.364  0.00  0.00    -0.180 NA
ATOM      4  C   UNL d   1      60.449  -8.397  35.077  0.00  0.00     0.300 A 
ATOM      5  C   UNL d   1      60.364  -9.018  35.612  0.00  0.00     0.161 A 
ATOM      6  O   UNL d   1      60.949  -7.763  35.255  0.00  0.00    -0.263 OA
ATOM      7  C   UNL d   1      60.779  -9.007  36.326  0.00  0.00     0.028 C 
ATOM      8  N   UNL d   1      59.864  -9.652  35.434  0.00  0.00    -0.141 NA
ATOM      9  N   UNL d   1      59.450  -9.664  34.722  0.00  0.00    -0.121 NA
ENDBRANCH   1   2
BRANCH   1  10
ATOM     10  C   UNL d   1      58.956  -9.775  33.102  0.00  0.00     0.038 C 
BRANCH  10  11
ATOM     11  C   UNL d   1      58.590  -9.785  32.362  0.00  0.00     0.007 A 
ATOM     12  C   UNL d   1      57.766  -9.792  32.307  0.00  0.00     0.001 A 
ATOM     13  C   UNL d   1      57.401  -9.803  31.567  0.00  0.00     0.000 A 
ATOM     14  C   UNL d   1      57.862  -9.805  30.882  0.00  0.00     0.000 A 
ATOM     15  C   UNL d   1      58.686  -9.797  30.937  0.00  0.00     0.000 A 
ATOM     16  C   UNL d   1      57.496  -9.815  30.142  0.00  0.00     0.000 C 
ATOM     17  C   UNL d   1      59.051  -9.787  31.677  0.00  0.00     0.001 A 
ENDBRANCH  10  11
ENDBRANCH   1  10
TORSDOF 3
ENDMDL
