MODEL 1
REMARK VINA RESULT:      36.6      0.000      0.000
REMARK  4 active torsions:
REMARK  status: ('A' for Active; 'I' for Inactive)
REMARK    1  A    between atoms: C_6  and  C_1 
REMARK    2  A    between atoms: C_10  and  C_2 
REMARK       I    between atoms: N_14  and  C_6 
REMARK    3  A    between atoms: C_8  and  C_15 
REMARK    4  A    between atoms: C_21  and  N_14 
ROOT
ATOM      1  C   UNL d   1      46.032 -18.219  42.389  0.00  0.00     0.283 C 
ATOM      2  N   UNL d   1      45.930 -18.059  43.190  0.00  0.00    -0.208 NA
ATOM      3  O   UNL d   1      46.030 -17.607  41.833  0.00  0.00    -0.265 OA
ENDROOT
BRANCH   2   4
ATOM      4  C   UNL d   1      45.825 -17.278  43.436  0.00  0.00     0.085 A 
ATOM      5  C   UNL d   1      46.047 -17.039  44.193  0.00  0.00     0.019 A 
ATOM      6  C   UNL d   1      45.940 -16.256  44.435  0.00  0.00     0.003 A 
ATOM      7  C   UNL d   1      45.609 -15.711  43.913  0.00  0.00     0.020 A 
ATOM      8  C   UNL d   1      45.382 -15.938  43.152  0.00  0.00     0.003 A 
ATOM      9  C   UNL d   1      45.487 -16.718  42.907  0.00  0.00     0.019 A 
BRANCH   7  10
ATOM     10  C   UNL d   1      45.500 -14.929  44.151  0.00  0.00     0.118 A 
ATOM     11  N   UNL d   1      44.777 -14.549  44.252  0.00  0.00    -0.059 NA
ATOM     12  C   UNL d   1      44.932 -13.777  44.493  0.00  0.00     0.735 A 
ATOM     13  N   UNL d   1      44.422 -13.153  44.674  0.00  0.00    -0.059 NA
ATOM     14  N   UNL d   1      45.737 -13.680  44.541  0.00  0.00    -0.136 N 
ATOM     15  C   UNL d   1      44.738 -12.429  44.903  0.00  0.00     0.119 A 
ATOM     16  C   UNL d   1      45.555 -12.327  44.952  0.00  0.00     0.041 A 
ATOM     17  C   UNL d   1      46.057 -12.948  44.773  0.00  0.00     0.100 A 
ATOM     18  C   UNL d   1      46.092 -14.392  44.330  0.00  0.00     0.118 A 
ENDBRANCH   7  10
ENDBRANCH   2   4
BRANCH   1  19
ATOM     19  C   UNL d   1      46.138 -18.996  42.132  0.00  0.00     0.102 A 
ATOM     20  C   UNL d   1      46.044 -19.673  42.586  0.00  0.00     0.116 A 
ATOM     21  N   UNL d   1      46.207 -20.328  42.101  0.00  0.00    -0.126 NA
ATOM     22  O   UNL d   1      46.400 -20.040  41.352  0.00  0.00    -0.211 OA
ATOM     23  C   UNL d   1      46.359 -19.218  41.367  0.00  0.00     0.131 A 
ATOM     24  C   UNL d   1      46.507 -18.708  40.743  0.00  0.00     0.029 C 
BRANCH  20  25
ATOM     25  C   UNL d   1      45.831 -19.708  43.369  0.00  0.00     0.031 A 
ATOM     26  C   UNL d   1      45.066 -19.908  43.577  0.00  0.00     0.059 A 
ATOM     27 CL   UNL d   1      44.509 -20.074  43.001  0.00  0.00    -0.082 Cl
ATOM     28  C   UNL d   1      44.857 -19.941  44.377  0.00  0.00     0.011 A 
ATOM     29  C   UNL d   1      45.414 -19.774  44.953  0.00  0.00     0.001 A 
ATOM     30  C   UNL d   1      46.185 -19.573  44.749  0.00  0.00     0.000 A 
ATOM     31  C   UNL d   1      46.395 -19.540  43.950  0.00  0.00     0.002 A 
ENDBRANCH  20  25
ENDBRANCH   1  19
TORSDOF 4
ENDMDL
