MODEL 1
REMARK VINA RESULT:      -3.5      0.000      0.000
REMARK  6 active torsions:
REMARK  status: ('A' for Active; 'I' for Inactive)
REMARK    1  A    between atoms: C_3  and  N_1 
REMARK       I    between atoms: C_2  and  N_5 
REMARK       I    between atoms: N_10  and  C_2 
REMARK    2  A    between atoms: N_5  and  C_8 
REMARK    3  A    between atoms: C_17  and  N_10 
REMARK    4  A    between atoms: O_18  and  C_11 
REMARK    5  A    between atoms: C_12  and  C_22 
REMARK    6  A    between atoms: C_22  and  C_17 
ROOT
ATOM      1  C   UNL d   1      32.701  18.567 -23.072  0.00  0.00     0.369 C 
ATOM      2  N   UNL d   1      32.732  17.741 -23.118  0.00  0.00    -0.191 NA
ATOM      3  O   UNL d   1      32.363  18.998 -23.693  0.00  0.00    -0.242 OA
ATOM      4  N   UNL d   1      33.000  18.949 -22.420  0.00  0.00    -0.189 NA
ENDROOT
BRANCH   2   5
ATOM      5  C   UNL d   1      32.428  17.351 -23.779  0.00  0.00     0.088 A 
ATOM      6  C   UNL d   1      31.647  17.104 -23.790  0.00  0.00     0.043 A 
ATOM      7  C   UNL d   1      31.342  16.719 -24.440  0.00  0.00     0.128 A 
ATOM      8  C   UNL d   1      31.823  16.573 -25.097  0.00  0.00     0.024 A 
ATOM      9  C   UNL d   1      32.611  16.820 -25.090  0.00  0.00     0.003 A 
ATOM     10  C   UNL d   1      32.914  17.210 -24.430  0.00  0.00     0.019 A 
BRANCH   7  11
ATOM     11  N   UNL d   1      30.553  16.470 -24.450  0.00  0.00    -0.114 N 
ATOM     12  O   UNL d   1      29.971  16.957 -24.762  0.00  0.00    -0.532 OA
ATOM     13  O   UNL d   1      30.355  15.735 -24.147  0.00  0.00    -0.532 OA
ENDBRANCH   7  11
ENDBRANCH   2   5
BRANCH   4  14
ATOM     14  C   UNL d   1      32.969  19.775 -22.375  0.00  0.00     0.104 C 
BRANCH  14  15
ATOM     15  C   UNL d   1      33.179  20.160 -21.676  0.00  0.00     0.021 C 
BRANCH  15  16
ATOM     16  C   UNL d   1      32.963  20.941 -21.558  0.00  0.00     0.002 A 
ATOM     17  C   UNL d   1      32.468  21.138 -20.934  0.00  0.00     0.002 A 
ATOM     18  C   UNL d   1      32.247  21.928 -20.812  0.00  0.00     0.024 A 
ATOM     19  C   UNL d   1      32.527  22.506 -21.319  0.00  0.00     0.094 A 
ATOM     20  C   UNL d   1      33.020  22.311 -21.941  0.00  0.00     0.024 A 
ATOM     21  C   UNL d   1      33.241  21.522 -22.063  0.00  0.00     0.002 A 
BRANCH  19  22
ATOM     22  O   UNL d   1      32.310  23.293 -21.201  0.00  0.00    -0.328 OA
ATOM     23  C   UNL d   1      31.788  23.658 -21.725  0.00  0.00     0.181 C 
ENDBRANCH  19  22
ENDBRANCH  15  16
ENDBRANCH  14  15
ENDBRANCH   4  14
TORSDOF 6
ENDMDL
MODEL 2
REMARK VINA RESULT:      -2.7      0.895      1.419
REMARK  6 active torsions:
REMARK  status: ('A' for Active; 'I' for Inactive)
REMARK    1  A    between atoms: C_3  and  N_1 
REMARK       I    between atoms: C_2  and  N_5 
REMARK       I    between atoms: N_10  and  C_2 
REMARK    2  A    between atoms: N_5  and  C_8 
REMARK    3  A    between atoms: C_17  and  N_10 
REMARK    4  A    between atoms: O_18  and  C_11 
REMARK    5  A    between atoms: C_12  and  C_22 
REMARK    6  A    between atoms: C_22  and  C_17 
ROOT
ATOM      1  C   UNL d   1      32.226  17.661 -23.343  0.00  0.00     0.369 C 
ATOM      2  N   UNL d   1      32.116  16.840 -23.357  0.00  0.00    -0.191 NA
ATOM      3  O   UNL d   1      31.776  18.141 -23.844  0.00  0.00    -0.242 OA
ATOM      4  N   UNL d   1      32.774  17.989 -22.839  0.00  0.00    -0.189 NA
ENDROOT
BRANCH   2   5
ATOM      5  C   UNL d   1      31.561  16.505 -23.867  0.00  0.00     0.088 A 
ATOM      6  C   UNL d   1      30.767  16.491 -23.662  0.00  0.00     0.043 A 
ATOM      7  C   UNL d   1      30.215  16.162 -24.162  0.00  0.00     0.128 A 
ATOM      8  C   UNL d   1      30.453  15.837 -24.885  0.00  0.00     0.024 A 
ATOM      9  C   UNL d   1      31.252  15.849 -25.095  0.00  0.00     0.003 A 
ATOM     10  C   UNL d   1      31.806  16.183 -24.585  0.00  0.00     0.019 A 
BRANCH   7  11
ATOM     11  N   UNL d   1      29.414  16.148 -23.954  0.00  0.00    -0.114 N 
ATOM     12  O   UNL d   1      29.153  15.659 -23.349  0.00  0.00    -0.532 OA
ATOM     13  O   UNL d   1      28.883  16.626 -24.355  0.00  0.00    -0.532 OA
ENDBRANCH   7  11
ENDBRANCH   2   5
BRANCH   4  14
ATOM     14  C   UNL d   1      32.883  18.809 -22.826  0.00  0.00     0.104 C 
BRANCH  14  15
ATOM     15  C   UNL d   1      33.193  19.175 -22.154  0.00  0.00     0.021 C 
BRANCH  15  16
ATOM     16  C   UNL d   1      33.167  19.990 -22.084  0.00  0.00     0.002 A 
ATOM     17  C   UNL d   1      33.241  20.460 -22.753  0.00  0.00     0.002 A 
ATOM     18  C   UNL d   1      33.215  21.286 -22.685  0.00  0.00     0.024 A 
ATOM     19  C   UNL d   1      33.115  21.626 -21.946  0.00  0.00     0.094 A 
ATOM     20  C   UNL d   1      33.041  21.158 -21.281  0.00  0.00     0.024 A 
ATOM     21  C   UNL d   1      33.067  20.333 -21.348  0.00  0.00     0.002 A 
BRANCH  19  22
ATOM     22  O   UNL d   1      33.089  22.447 -21.876  0.00  0.00    -0.328 OA
ATOM     23  C   UNL d   1      32.370  22.824 -21.730  0.00  0.00     0.181 C 
ENDBRANCH  19  22
ENDBRANCH  15  16
ENDBRANCH  14  15
ENDBRANCH   4  14
TORSDOF 6
ENDMDL
MODEL 3
REMARK VINA RESULT:      -2.2      1.226      5.722
REMARK  6 active torsions:
REMARK  status: ('A' for Active; 'I' for Inactive)
REMARK    1  A    between atoms: C_3  and  N_1 
REMARK       I    between atoms: C_2  and  N_5 
REMARK       I    between atoms: N_10  and  C_2 
REMARK    2  A    between atoms: N_5  and  C_8 
REMARK    3  A    between atoms: C_17  and  N_10 
REMARK    4  A    between atoms: O_18  and  C_11 
REMARK    5  A    between atoms: C_12  and  C_22 
REMARK    6  A    between atoms: C_22  and  C_17 
ROOT
ATOM      1  C   UNL d   1      32.878  19.919 -22.490  0.00  0.00     0.369 C 
ATOM      2  N   UNL d   1      33.208  20.383 -21.889  0.00  0.00    -0.191 NA
ATOM      3  O   UNL d   1      32.403  20.276 -23.066  0.00  0.00    -0.242 OA
ATOM      4  N   UNL d   1      33.022  19.120 -22.512  0.00  0.00    -0.189 NA
ENDROOT
BRANCH   2   5
ATOM      5  C   UNL d   1      33.064  21.195 -21.865  0.00  0.00     0.088 A 
ATOM      6  C   UNL d   1      32.745  21.538 -21.192  0.00  0.00     0.043 A 
ATOM      7  C   UNL d   1      32.600  22.339 -21.164  0.00  0.00     0.128 A 
ATOM      8  C   UNL d   1      32.774  22.815 -21.817  0.00  0.00     0.024 A 
ATOM      9  C   UNL d   1      33.095  22.474 -22.497  0.00  0.00     0.003 A 
ATOM     10  C   UNL d   1      33.240  21.662 -22.521  0.00  0.00     0.019 A 
BRANCH   7  11
ATOM     11  N   UNL d   1      32.278  22.685 -20.483  0.00  0.00    -0.114 N 
ATOM     12  O   UNL d   1      31.682  23.245 -20.548  0.00  0.00    -0.532 OA
ATOM     13  O   UNL d   1      32.558  22.464 -19.746  0.00  0.00    -0.532 OA
ENDBRANCH   7  11
ENDBRANCH   2   5
BRANCH   4  14
ATOM     14  C   UNL d   1      32.692  18.657 -23.113  0.00  0.00     0.104 C 
BRANCH  14  15
ATOM     15  C   UNL d   1      32.892  17.858 -23.179  0.00  0.00     0.021 C 
BRANCH  15  16
ATOM     16  C   UNL d   1      32.390  17.342 -23.569  0.00  0.00     0.002 A 
ATOM     17  C   UNL d   1      32.281  16.582 -23.279  0.00  0.00     0.002 A 
ATOM     18  C   UNL d   1      31.774  16.057 -23.672  0.00  0.00     0.024 A 
ATOM     19  C   UNL d   1      31.384  16.304 -24.348  0.00  0.00     0.094 A 
ATOM     20  C   UNL d   1      31.493  17.061 -24.637  0.00  0.00     0.024 A 
ATOM     21  C   UNL d   1      31.999  17.586 -24.245  0.00  0.00     0.002 A 
BRANCH  19  22
ATOM     22  O   UNL d   1      30.879  15.784 -24.741  0.00  0.00    -0.328 OA
ATOM     23  C   UNL d   1      30.135  15.618 -24.426  0.00  0.00     0.181 C 
ENDBRANCH  19  22
ENDBRANCH  15  16
ENDBRANCH  14  15
ENDBRANCH   4  14
TORSDOF 6
ENDMDL
MODEL 4
REMARK VINA RESULT:      -2.1      1.724      5.974
REMARK  6 active torsions:
REMARK  status: ('A' for Active; 'I' for Inactive)
REMARK    1  A    between atoms: C_3  and  N_1 
REMARK       I    between atoms: C_2  and  N_5 
REMARK       I    between atoms: N_10  and  C_2 
REMARK    2  A    between atoms: N_5  and  C_8 
REMARK    3  A    between atoms: C_17  and  N_10 
REMARK    4  A    between atoms: O_18  and  C_11 
REMARK    5  A    between atoms: C_12  and  C_22 
REMARK    6  A    between atoms: C_22  and  C_17 
ROOT
ATOM      1  C   UNL d   1      32.640  20.609 -21.780  0.00  0.00     0.369 C 
ATOM      2  N   UNL d   1      32.223  20.955 -21.153  0.00  0.00    -0.191 NA
ATOM      3  O   UNL d   1      33.217  21.049 -22.178  0.00  0.00    -0.242 OA
ATOM      4  N   UNL d   1      32.481  19.843 -22.000  0.00  0.00    -0.189 NA
ENDROOT
BRANCH   2   5
ATOM      5  C   UNL d   1      32.382  21.733 -20.929  0.00  0.00     0.088 A 
ATOM      6  C   UNL d   1      32.561  21.909 -20.149  0.00  0.00     0.043 A 
ATOM      7  C   UNL d   1      32.719  22.675 -19.921  0.00  0.00     0.128 A 
ATOM      8  C   UNL d   1      32.701  23.284 -20.481  0.00  0.00     0.024 A 
ATOM      9  C   UNL d   1      32.521  23.112 -21.268  0.00  0.00     0.003 A 
ATOM     10  C   UNL d   1      32.362  22.334 -21.493  0.00  0.00     0.019 A 
BRANCH   7  11
ATOM     11  N   UNL d   1      32.899  22.852 -19.133  0.00  0.00    -0.114 N 
ATOM     12  O   UNL d   1      32.736  23.596 -18.830  0.00  0.00    -0.532 OA
ATOM     13  O   UNL d   1      33.241  22.279 -18.657  0.00  0.00    -0.532 OA
ENDBRANCH   7  11
ENDBRANCH   2   5
BRANCH   4  14
ATOM     14  C   UNL d   1      32.898  19.498 -22.626  0.00  0.00     0.104 C 
BRANCH  14  15
ATOM     15  C   UNL d   1      33.121  18.704 -22.588  0.00  0.00     0.021 C 
BRANCH  15  16
ATOM     16  C   UNL d   1      32.944  18.200 -23.208  0.00  0.00     0.002 A 
ATOM     17  C   UNL d   1      32.469  17.543 -23.077  0.00  0.00     0.002 A 
ATOM     18  C   UNL d   1      32.288  17.030 -23.703  0.00  0.00     0.024 A 
ATOM     19  C   UNL d   1      32.588  17.186 -24.449  0.00  0.00     0.094 A 
ATOM     20  C   UNL d   1      33.060  17.839 -24.580  0.00  0.00     0.024 A 
ATOM     21  C   UNL d   1      33.241  18.352 -23.955  0.00  0.00     0.002 A 
BRANCH  19  22
ATOM     22  O   UNL d   1      32.409  16.678 -25.074  0.00  0.00    -0.328 OA
ATOM     23  C   UNL d   1      32.063  15.945 -24.921  0.00  0.00     0.181 C 
ENDBRANCH  19  22
ENDBRANCH  15  16
ENDBRANCH  14  15
ENDBRANCH   4  14
TORSDOF 6
ENDMDL
MODEL 5
REMARK VINA RESULT:      -0.9      1.700      2.392
REMARK  6 active torsions:
REMARK  status: ('A' for Active; 'I' for Inactive)
REMARK    1  A    between atoms: C_3  and  N_1 
REMARK       I    between atoms: C_2  and  N_5 
REMARK       I    between atoms: N_10  and  C_2 
REMARK    2  A    between atoms: N_5  and  C_8 
REMARK    3  A    between atoms: C_17  and  N_10 
REMARK    4  A    between atoms: O_18  and  C_11 
REMARK    5  A    between atoms: C_12  and  C_22 
REMARK    6  A    between atoms: C_22  and  C_17 
ROOT
ATOM      1  C   UNL d   1      33.005  20.260 -22.118  0.00  0.00     0.369 C 
ATOM      2  N   UNL d   1      32.963  19.437 -22.196  0.00  0.00    -0.191 NA
ATOM      3  O   UNL d   1      33.031  20.734 -22.796  0.00  0.00    -0.242 OA
ATOM      4  N   UNL d   1      33.021  20.597 -21.378  0.00  0.00    -0.189 NA
ENDROOT
BRANCH   2   5
ATOM      5  C   UNL d   1      32.947  19.093 -22.946  0.00  0.00     0.088 A 
ATOM      6  C   UNL d   1      32.643  18.338 -23.047  0.00  0.00     0.043 A 
ATOM      7  C   UNL d   1      32.625  17.994 -23.786  0.00  0.00     0.128 A 
ATOM      8  C   UNL d   1      32.915  18.406 -24.442  0.00  0.00     0.024 A 
ATOM      9  C   UNL d   1      33.222  19.166 -24.344  0.00  0.00     0.003 A 
ATOM     10  C   UNL d   1      33.238  19.510 -23.595  0.00  0.00     0.019 A 
BRANCH   7  11
ATOM     11  N   UNL d   1      32.318  17.232 -23.887  0.00  0.00    -0.114 N 
ATOM     12  O   UNL d   1      32.823  16.587 -23.940  0.00  0.00    -0.532 OA
ATOM     13  O   UNL d   1      31.507  17.124 -23.934  0.00  0.00    -0.532 OA
ENDBRANCH   7  11
ENDBRANCH   2   5
BRANCH   4  14
ATOM     14  C   UNL d   1      33.064  21.420 -21.300  0.00  0.00     0.104 C 
BRANCH  14  15
ATOM     15  C   UNL d   1      32.471  21.829 -20.896  0.00  0.00     0.021 C 
BRANCH  15  16
ATOM     16  C   UNL d   1      32.663  22.295 -20.251  0.00  0.00     0.002 A 
ATOM     17  C   UNL d   1      32.688  23.112 -20.330  0.00  0.00     0.002 A 
ATOM     18  C   UNL d   1      32.882  23.586 -19.678  0.00  0.00     0.024 A 
ATOM     19  C   UNL d   1      33.047  23.232 -18.958  0.00  0.00     0.094 A 
ATOM     20  C   UNL d   1      33.022  22.420 -18.880  0.00  0.00     0.024 A 
ATOM     21  C   UNL d   1      32.829  21.945 -19.530  0.00  0.00     0.002 A 
BRANCH  19  22
ATOM     22  O   UNL d   1      33.240  23.701 -18.308  0.00  0.00    -0.328 OA
ATOM     23  C   UNL d   1      33.100  23.424 -17.545  0.00  0.00     0.181 C 
ENDBRANCH  19  22
ENDBRANCH  15  16
ENDBRANCH  14  15
ENDBRANCH   4  14
TORSDOF 6
ENDMDL
