MODEL 1
REMARK VINA RESULT:       3.0      0.000      0.000
REMARK  3 active torsions:
REMARK  status: ('A' for Active; 'I' for Inactive)
REMARK    1  A    between atoms: S_6  and  C_1 
REMARK    2  A    between atoms: C_9  and  S_6 
REMARK    3  A    between atoms: C_7  and  C_9 
ROOT
ATOM      1  C   UNL d   1     -54.714-102.446 -37.966  0.00  0.00     0.191 A 
ATOM      2  N   UNL d   1     -54.714-102.878 -37.276  0.00  0.00    -0.220 NA
ATOM      3  N   UNL d   1     -54.713-101.655 -37.789  0.00  0.00    -0.220 NA
ATOM      4  C   UNL d   1     -54.714-102.339 -36.667  0.00  0.00     0.101 A 
ATOM      5  C   UNL d   1     -54.713-101.578 -36.986  0.00  0.00     0.101 A 
ATOM      6  C   UNL d   1     -54.714-102.449 -35.848  0.00  0.00     0.021 A 
ATOM      7  C   UNL d   1     -54.713-100.937 -36.482  0.00  0.00     0.021 A 
ATOM      8  C   UNL d   1     -54.713-101.026 -35.668  0.00  0.00     0.002 A 
ATOM      9  C   UNL d   1     -54.714-101.786 -35.349  0.00  0.00     0.002 A 
ENDROOT
BRANCH   1  10
ATOM     10  S   UNL d   1     -54.714-102.764 -38.723  0.00  0.00    -0.064 SA
BRANCH  10  11
ATOM     11  C   UNL d   1     -55.425-102.878 -39.125  0.00  0.00     0.162 C 
BRANCH  11  12
ATOM     12  C   UNL d   1     -55.459-102.785 -39.958  0.00  0.00     0.197 C 
ATOM     13  O   UNL d   1     -54.772-102.632 -40.376  0.00  0.00    -0.647 OA
ATOM     14  O   UNL d   1     -56.187-102.848 -40.342  0.00  0.00    -0.647 OA
ENDBRANCH  11  12
ENDBRANCH  10  11
ENDBRANCH   1  10
TORSDOF 3
ENDMDL
