MODEL 1
REMARK VINA RESULT:      47.7      0.000      0.000
REMARK  3 active torsions:
REMARK  status: ('A' for Active; 'I' for Inactive)
REMARK    1  A    between atoms: C_8  and  C_6 
REMARK    2  A    between atoms: C_9  and  C_8 
REMARK       I    between atoms: N_10  and  C_9 
REMARK    3  A    between atoms: C_14  and  N_10 
ROOT
ATOM      1  C   UNL d   1      45.158 -13.861  44.290  0.00  0.00     0.085 A 
ATOM      2  C   UNL d   1      43.979 -13.130  43.403  0.00  0.00     0.094 A 
ATOM      3  C   UNL d   1      45.308 -13.635  43.513  0.00  0.00     0.021 A 
ATOM      4  C   UNL d   1      44.421 -13.723  44.627  0.00  0.00     0.021 A 
ATOM      5  C   UNL d   1      43.829 -13.358  44.188  0.00  0.00     0.026 A 
ATOM      6  C   UNL d   1      44.719 -13.270  43.070  0.00  0.00     0.026 A 
ATOM      7  O   UNL d   1      43.399 -12.772  42.968  0.00  0.00    -0.328 OA
ATOM      8  C   UNL d   1      42.810 -12.408  42.528  0.00  0.00     0.181 C 
ENDROOT
BRANCH   1   9
ATOM      9  N   UNL d   1      45.748 -14.227  44.737  0.00  0.00    -0.208 NA
ATOM     10  C   UNL d   1      46.055 -14.958  44.500  0.00  0.00     0.281 C 
ATOM     11  O   UNL d   1      46.645 -15.320  44.951  0.00  0.00    -0.265 OA
BRANCH  10  12
ATOM     12  C   UNL d   1      45.769 -15.324  43.810  0.00  0.00     0.086 C 
BRANCH  12  13
ATOM     13  C   UNL d   1      45.892 -16.131  43.701  0.00  0.00     0.144 A 
ATOM     14  N   UNL d   1      45.725 -16.384  42.937  0.00  0.00    -0.240 NA
ATOM     15  C   UNL d   1      45.785 -17.143  42.633  0.00  0.00     0.083 A 
ATOM     16  C   UNL d   1      46.023 -17.841  43.009  0.00  0.00     0.035 A 
ATOM     17  C   UNL d   1      45.564 -17.160  41.838  0.00  0.00     0.019 A 
ATOM     18  C   UNL d   1      46.246 -17.823  43.812  0.00  0.00     0.086 A 
ATOM     19  C   UNL d   1      46.045 -18.558  42.599  0.00  0.00     0.003 A 
ATOM     20  N   UNL d   1      46.263 -17.171  44.316  0.00  0.00    -0.207 NA
ATOM     21  C   UNL d   1      46.485 -18.517  44.190  0.00  0.00     0.019 A 
ATOM     22  C   UNL d   1      46.074 -16.395  44.169  0.00  0.00     0.297 A 
ATOM     23  O   UNL d   1      46.156 -15.884  44.809  0.00  0.00    -0.264 OA
ATOM     24  C   UNL d   1      46.504 -19.231  43.774  0.00  0.00     0.002 A 
ATOM     25  C   UNL d   1      46.284 -19.249  42.979  0.00  0.00     0.000 A 
ATOM     26  C   UNL d   1      45.822 -18.575  41.795  0.00  0.00     0.000 A 
ATOM     27  C   UNL d   1      45.583 -17.884  41.415  0.00  0.00     0.002 A 
ENDBRANCH  12  13
ENDBRANCH  10  12
ENDBRANCH   1   9
TORSDOF 3
ENDMDL
