MODEL 1
REMARK VINA RESULT:      53.3      0.000      0.000
REMARK  3 active torsions:
REMARK  status: ('A' for Active; 'I' for Inactive)
REMARK    1  A    between atoms: C_11  and  N_2 
REMARK    2  A    between atoms: C_16  and  C_6 
REMARK    3  A    between atoms: C_12  and  C_11 
ROOT
ATOM      1  C   UNL d   1      13.893  13.057  -2.645  0.00  0.00     0.137 A 
ATOM      2  N   UNL d   1      13.398  13.472  -3.919  0.00  0.00    -0.256 N 
ATOM      3  C   UNL d   1      14.304  13.772  -2.567  0.00  0.00     0.192 A 
ATOM      4  C   UNL d   1      13.439  12.907  -3.321  0.00  0.00     0.272 A 
ATOM      5  N   UNL d   1      14.264  14.336  -3.163  0.00  0.00    -0.204 NA
ATOM      6  C   UNL d   1      13.809  14.190  -3.846  0.00  0.00     0.152 A 
ATOM      7  C   UNL d   1      13.936  12.490  -2.042  0.00  0.00     0.205 A 
ATOM      8  O   UNL d   1      14.754  13.915  -1.893  0.00  0.00    -0.289 OA
ATOM      9  C   UNL d   1      14.382  12.635  -1.375  0.00  0.00     0.062 A 
ATOM     10  C   UNL d   1      14.793  13.345  -1.294  0.00  0.00     0.105 A 
ATOM     11  O   UNL d   1      13.031  12.194  -3.393  0.00  0.00    -0.266 OA
ATOM     12  O   UNL d   1      13.525  11.779  -2.122  0.00  0.00    -0.286 OA
ATOM     13  C   UNL d   1      14.423  12.064  -0.772  0.00  0.00     0.005 A 
ATOM     14  C   UNL d   1      15.249  13.493  -0.611  0.00  0.00     0.025 A 
ATOM     15  C   UNL d   1      14.876  12.214  -0.097  0.00  0.00     0.000 A 
ATOM     16  C   UNL d   1      15.287  12.925  -0.016  0.00  0.00     0.002 A 
ENDROOT
BRANCH   2  17
ATOM     17  C   UNL d   1      12.949  13.319  -4.584  0.00  0.00     0.109 C 
BRANCH  17  18
ATOM     18  C   UNL d   1      13.184  12.734  -5.116  0.00  0.00     0.118 A 
ATOM     19  O   UNL d   1      13.878  12.296  -5.070  0.00  0.00    -0.304 OA
ATOM     20  C   UNL d   1      13.890  11.781  -5.706  0.00  0.00     0.123 A 
ATOM     21  C   UNL d   1      13.202  11.900  -6.146  0.00  0.00     0.029 A 
ATOM     22  C   UNL d   1      12.770  12.488  -5.779  0.00  0.00     0.028 A 
ENDBRANCH  17  18
ENDBRANCH   2  17
BRANCH   6  23
ATOM     23  C   UNL d   1      13.769  14.759  -4.444  0.00  0.00     0.035 A 
ATOM     24  C   UNL d   1      14.444  14.966  -4.871  0.00  0.00     0.003 A 
ATOM     25  C   UNL d   1      14.404  15.531  -5.465  0.00  0.00     0.000 A 
ATOM     26  C   UNL d   1      13.680  15.894  -5.636  0.00  0.00     0.000 A 
ATOM     27  C   UNL d   1      13.005  15.687  -5.210  0.00  0.00     0.000 A 
ATOM     28  C   UNL d   1      13.041  15.121  -4.613  0.00  0.00     0.003 A 
ENDBRANCH   6  23
TORSDOF 3
ENDMDL
