MODEL 1
REMARK VINA RESULT:      30.0      0.000      0.000
REMARK  3 active torsions:
REMARK  status: ('A' for Active; 'I' for Inactive)
REMARK       I    between atoms: C_3  and  N_1 
REMARK    1  A    between atoms: C_6  and  C_3 
REMARK    2  A    between atoms: O_9  and  C_6 
REMARK    3  A    between atoms: C_10  and  O_9 
ROOT
ATOM      1  N   UNL d   1     -50.910  24.446  33.306  0.00  0.00    -0.272 N 
ATOM      2  C   UNL d   1     -51.738  24.452  33.306  0.00  0.00     0.067 A 
ATOM      3  C   UNL d   1     -50.410  25.111  33.306  0.00  0.00     0.290 C 
ATOM      4  C   UNL d   1     -50.663  23.684  33.306  0.00  0.00     0.083 A 
ATOM      5  C   UNL d   1     -51.997  23.680  33.306  0.00  0.00     0.018 A 
ATOM      6  O   UNL d   1     -49.596  25.003  33.306  0.00  0.00    -0.264 OA
ATOM      7  C   UNL d   1     -51.336  23.189  33.306  0.00  0.00     0.021 A 
ATOM      8  C   UNL d   1     -52.288  25.059  33.306  0.00  0.00     0.018 A 
ATOM      9  C   UNL d   1     -52.806  23.507  33.306  0.00  0.00     0.002 A 
ATOM     10  C   UNL d   1     -53.086  24.901  33.306  0.00  0.00     0.002 A 
ATOM     11  C   UNL d   1     -53.347  24.108  33.306  0.00  0.00     0.000 A 
ENDROOT
BRANCH   3  12
ATOM     12  C   UNL d   1     -50.743  25.866  33.306  0.00  0.00     0.184 C 
BRANCH  12  13
ATOM     13  O   UNL d   1     -50.458  26.433  33.843  0.00  0.00    -0.300 OA
BRANCH  13  14
ATOM     14  C   UNL d   1     -50.592  27.230  33.705  0.00  0.00     0.100 A 
ATOM     15  C   UNL d   1     -49.975  27.778  33.809  0.00  0.00     0.025 A 
ATOM     16  C   UNL d   1     -50.105  28.577  33.672  0.00  0.00     0.002 A 
ATOM     17  C   UNL d   1     -50.851  28.836  33.431  0.00  0.00     0.000 A 
ATOM     18  C   UNL d   1     -51.476  28.302  33.323  0.00  0.00     0.002 A 
ATOM     19  C   UNL d   1     -51.335  27.490  33.465  0.00  0.00     0.025 A 
ENDBRANCH  13  14
ENDBRANCH  12  13
ENDBRANCH   3  12
TORSDOF 3
ENDMDL
