MODEL 1
REMARK VINA RESULT:      -2.5      0.000      0.000
REMARK  0 active torsions:
REMARK  status: ('A' for Active; 'I' for Inactive)
ROOT
ATOM      1  N   UNL d   1      46.645 -18.996  43.340  0.00  0.00    -0.219 NA
ATOM      2  C   UNL d   1      46.624 -19.246  42.549  0.00  0.00     0.215 A 
ATOM      3  S   UNL d   1      46.575 -20.075  42.545  0.00  0.00    -0.045 SA
ATOM      4  C   UNL d   1      46.609 -19.666  43.823  0.00  0.00     0.090 A 
ATOM      5  C   UNL d   1      46.567 -20.330  43.334  0.00  0.00     0.058 A 
ATOM      6  N   UNL d   1      46.647 -18.765  41.879  0.00  0.00    -0.120 N 
ATOM      7  C   UNL d   1      46.616 -19.663  44.643  0.00  0.00     0.021 C 
ENDROOT
TORSDOF 0
ENDMDL
MODEL 2
REMARK VINA RESULT:      -1.8      6.218      6.352
REMARK  0 active torsions:
REMARK  status: ('A' for Active; 'I' for Inactive)
ROOT
ATOM      1  N   UNL d   1      44.976 -13.725  43.963  0.00  0.00    -0.219 NA
ATOM      2  C   UNL d   1      45.325 -12.983  43.831  0.00  0.00     0.215 A 
ATOM      3  S   UNL d   1      45.893 -12.859  44.424  0.00  0.00    -0.045 SA
ATOM      4  C   UNL d   1      45.327 -14.058  44.634  0.00  0.00     0.090 A 
ATOM      5  C   UNL d   1      45.891 -13.526  44.918  0.00  0.00     0.058 A 
ATOM      6  N   UNL d   1      45.147 -12.457  43.223  0.00  0.00    -0.120 N 
ATOM      7  C   UNL d   1      45.141 -14.790  44.955  0.00  0.00     0.021 C 
ENDROOT
TORSDOF 0
ENDMDL
MODEL 3
REMARK VINA RESULT:      -1.4      7.941      8.009
REMARK  0 active torsions:
REMARK  status: ('A' for Active; 'I' for Inactive)
ROOT
ATOM      1  N   UNL d   1      44.549 -14.910  37.079  0.00  0.00    -0.219 NA
ATOM      2  C   UNL d   1      43.992 -15.456  36.796  0.00  0.00     0.215 A 
ATOM      3  S   UNL d   1      44.395 -16.013  36.330  0.00  0.00    -0.045 SA
ATOM      4  C   UNL d   1      45.293 -15.128  36.791  0.00  0.00     0.090 A 
ATOM      5  C   UNL d   1      45.198 -15.807  36.330  0.00  0.00     0.058 A 
ATOM      6  N   UNL d   1      43.181 -15.455  36.944  0.00  0.00    -0.120 N 
ATOM      7  C   UNL d   1      45.996 -14.734  36.941  0.00  0.00     0.021 C 
ENDROOT
TORSDOF 0
ENDMDL
MODEL 4
REMARK VINA RESULT:      -1.2      7.823      7.954
REMARK  0 active torsions:
REMARK  status: ('A' for Active; 'I' for Inactive)
ROOT
ATOM      1  N   UNL d   1      45.091 -15.755  36.330  0.00  0.00    -0.219 NA
ATOM      2  C   UNL d   1      45.530 -15.200  36.764  0.00  0.00     0.215 A 
ATOM      3  S   UNL d   1      45.019 -14.844  37.314  0.00  0.00    -0.045 SA
ATOM      4  C   UNL d   1      44.313 -15.743  36.610  0.00  0.00     0.090 A 
ATOM      5  C   UNL d   1      44.268 -15.183  37.215  0.00  0.00     0.058 A 
ATOM      6  N   UNL d   1      46.330 -15.025  36.673  0.00  0.00    -0.120 N 
ATOM      7  C   UNL d   1      43.699 -16.209  36.330  0.00  0.00     0.021 C 
ENDROOT
TORSDOF 0
ENDMDL
MODEL 5
REMARK VINA RESULT:      -0.0      6.228      6.549
REMARK  0 active torsions:
REMARK  status: ('A' for Active; 'I' for Inactive)
ROOT
ATOM      1  N   UNL d   1      44.979 -13.716  43.955  0.00  0.00    -0.219 NA
ATOM      2  C   UNL d   1      45.325 -14.058  44.627  0.00  0.00     0.215 A 
ATOM      3  S   UNL d   1      45.894 -13.528  44.919  0.00  0.00    -0.045 SA
ATOM      4  C   UNL d   1      45.332 -12.978  43.832  0.00  0.00     0.090 A 
ATOM      5  C   UNL d   1      45.894 -12.862  44.424  0.00  0.00     0.058 A 
ATOM      6  N   UNL d   1      45.144 -14.792  44.955  0.00  0.00    -0.120 N 
ATOM      7  C   UNL d   1      45.148 -12.458  43.224  0.00  0.00     0.021 C 
ENDROOT
TORSDOF 0
ENDMDL
