MODEL 1
REMARK VINA RESULT:      -7.3      0.000      0.000
REMARK  4 active torsions:
REMARK  status: ('A' for Active; 'I' for Inactive)
REMARK       I    between atoms: C_4  and  N_10 
REMARK    1  A    between atoms: C_7  and  C_4 
REMARK    2  A    between atoms: C_11  and  C_5 
REMARK    3  A    between atoms: N_10  and  C_13 
REMARK    4  A    between atoms: C_13  and  C_11 
ROOT
ATOM      1  C   UNL d   1      52.772  34.114  53.406  0.00  0.00     0.279 C 
ATOM      2  O   UNL d   1      52.908  34.884  53.144  0.00  0.00    -0.265 OA
ATOM      3  N   UNL d   1      52.010  33.790  53.371  0.00  0.00    -0.206 NA
ENDROOT
BRANCH   1   4
ATOM      4  C   UNL d   1      53.408  33.654  53.710  0.00  0.00     0.058 A 
ATOM      5  C   UNL d   1      53.762  33.860  54.425  0.00  0.00     0.005 A 
ATOM      6  C   UNL d   1      54.377  33.419  54.724  0.00  0.00     0.000 A 
ATOM      7  C   UNL d   1      54.723  33.636  55.441  0.00  0.00     0.000 C 
ATOM      8  C   UNL d   1      54.647  32.763  54.309  0.00  0.00     0.000 A 
ATOM      9  C   UNL d   1      54.302  32.547  53.595  0.00  0.00     0.000 A 
ATOM     10  C   UNL d   1      53.682  32.987  53.288  0.00  0.00     0.005 A 
ENDBRANCH   1   4
BRANCH   3  11
ATOM     11  C   UNL d   1      51.397  34.231  53.079  0.00  0.00     0.104 C 
BRANCH  11  12
ATOM     12  C   UNL d   1      50.668  33.870  52.919  0.00  0.00     0.040 C 
BRANCH  12  13
ATOM     13  C   UNL d   1      50.039  34.316  52.666  0.00  0.00     0.090 A 
ATOM     14  N   UNL d   1      49.721  34.205  51.909  0.00  0.00    -0.238 NA
ATOM     15  C   UNL d   1      49.098  34.727  51.811  0.00  0.00     0.111 A 
ATOM     16  S   UNL d   1      49.020  35.167  52.498  0.00  0.00    -0.066 SA
ATOM     17  C   UNL d   1      48.615  34.810  51.131  0.00  0.00     0.028 C 
ATOM     18  C   UNL d   1      49.600  34.916  53.031  0.00  0.00     0.056 A 
ENDBRANCH  12  13
ENDBRANCH  11  12
ENDBRANCH   3  11
TORSDOF 4
ENDMDL
MODEL 2
REMARK VINA RESULT:      -7.0      2.691      3.847
REMARK  4 active torsions:
REMARK  status: ('A' for Active; 'I' for Inactive)
REMARK       I    between atoms: C_4  and  N_10 
REMARK    1  A    between atoms: C_7  and  C_4 
REMARK    2  A    between atoms: C_11  and  C_5 
REMARK    3  A    between atoms: N_10  and  C_13 
REMARK    4  A    between atoms: C_13  and  C_11 
ROOT
ATOM      1  C   UNL d   1      53.723  31.462  53.622  0.00  0.00     0.279 C 
ATOM      2  O   UNL d   1      54.446  31.626  53.259  0.00  0.00    -0.265 OA
ATOM      3  N   UNL d   1      53.311  32.061  54.020  0.00  0.00    -0.206 NA
ENDROOT
BRANCH   1   4
ATOM      4  C   UNL d   1      53.402  30.685  53.589  0.00  0.00     0.058 A 
ATOM      5  C   UNL d   1      53.567  30.145  54.190  0.00  0.00     0.005 A 
ATOM      6  C   UNL d   1      53.259  29.392  54.164  0.00  0.00     0.000 A 
ATOM      7  C   UNL d   1      53.431  28.860  54.771  0.00  0.00     0.000 C 
ATOM      8  C   UNL d   1      52.780  29.169  53.534  0.00  0.00     0.000 A 
ATOM      9  C   UNL d   1      52.608  29.699  52.930  0.00  0.00     0.000 A 
ATOM     10  C   UNL d   1      52.915  30.459  52.950  0.00  0.00     0.005 A 
ENDBRANCH   1   4
BRANCH   3  11
ATOM     11  C   UNL d   1      53.619  32.810  54.052  0.00  0.00     0.104 C 
BRANCH  11  12
ATOM     12  C   UNL d   1      53.336  33.349  54.615  0.00  0.00     0.040 C 
BRANCH  12  13
ATOM     13  C   UNL d   1      53.144  34.105  54.395  0.00  0.00     0.090 A 
ATOM     14  N   UNL d   1      53.372  34.751  54.862  0.00  0.00    -0.238 NA
ATOM     15  C   UNL d   1      53.104  35.436  54.504  0.00  0.00     0.111 A 
ATOM     16  S   UNL d   1      52.710  35.231  53.816  0.00  0.00    -0.066 SA
ATOM     17  C   UNL d   1      53.208  36.221  54.782  0.00  0.00     0.028 C 
ATOM     18  C   UNL d   1      52.731  34.408  53.743  0.00  0.00     0.056 A 
ENDBRANCH  12  13
ENDBRANCH  11  12
ENDBRANCH   3  11
TORSDOF 4
ENDMDL
MODEL 3
REMARK VINA RESULT:      -7.0      2.835      4.347
REMARK  4 active torsions:
REMARK  status: ('A' for Active; 'I' for Inactive)
REMARK       I    between atoms: C_4  and  N_10 
REMARK    1  A    between atoms: C_7  and  C_4 
REMARK    2  A    between atoms: C_11  and  C_5 
REMARK    3  A    between atoms: N_10  and  C_13 
REMARK    4  A    between atoms: C_13  and  C_11 
ROOT
ATOM      1  C   UNL d   1      52.407  33.044  53.356  0.00  0.00     0.279 C 
ATOM      2  O   UNL d   1      51.625  32.862  53.167  0.00  0.00    -0.265 OA
ATOM      3  N   UNL d   1      52.989  32.454  53.338  0.00  0.00    -0.206 NA
ENDROOT
BRANCH   1   4
ATOM      4  C   UNL d   1      52.617  33.831  53.567  0.00  0.00     0.058 A 
ATOM      5  C   UNL d   1      52.922  33.990  54.317  0.00  0.00     0.005 A 
ATOM      6  C   UNL d   1      53.127  34.749  54.527  0.00  0.00     0.000 A 
ATOM      7  C   UNL d   1      53.431  34.894  55.281  0.00  0.00     0.000 C 
ATOM      8  C   UNL d   1      53.030  35.362  53.988  0.00  0.00     0.000 A 
ATOM      9  C   UNL d   1      52.728  35.216  53.238  0.00  0.00     0.000 A 
ATOM     10  C   UNL d   1      52.519  34.453  53.019  0.00  0.00     0.005 A 
ENDBRANCH   1   4
BRANCH   3  11
ATOM     11  C   UNL d   1      52.788  31.696  53.134  0.00  0.00     0.104 C 
BRANCH  11  12
ATOM     12  C   UNL d   1      53.367  31.102  53.132  0.00  0.00     0.040 C 
BRANCH  12  13
ATOM     13  C   UNL d   1      53.185  30.355  53.390  0.00  0.00     0.090 A 
ATOM     14  N   UNL d   1      53.545  30.044  54.068  0.00  0.00    -0.238 NA
ATOM     15  C   UNL d   1      53.255  29.288  54.191  0.00  0.00     0.111 A 
ATOM     16  S   UNL d   1      52.717  29.119  53.597  0.00  0.00    -0.066 SA
ATOM     17  C   UNL d   1      53.465  28.765  54.812  0.00  0.00     0.028 C 
ATOM     18  C   UNL d   1      52.669  29.776  53.098  0.00  0.00     0.056 A 
ENDBRANCH  12  13
ENDBRANCH  11  12
ENDBRANCH   3  11
TORSDOF 4
ENDMDL
MODEL 4
REMARK VINA RESULT:      -6.7      1.718      4.940
REMARK  4 active torsions:
REMARK  status: ('A' for Active; 'I' for Inactive)
REMARK       I    between atoms: C_4  and  N_10 
REMARK    1  A    between atoms: C_7  and  C_4 
REMARK    2  A    between atoms: C_11  and  C_5 
REMARK    3  A    between atoms: N_10  and  C_13 
REMARK    4  A    between atoms: C_13  and  C_11 
ROOT
ATOM      1  C   UNL d   1      50.647  33.842  52.923  0.00  0.00     0.279 C 
ATOM      2  O   UNL d   1      50.498  33.121  53.296  0.00  0.00    -0.265 OA
ATOM      3  N   UNL d   1      51.420  34.138  52.882  0.00  0.00    -0.206 NA
ENDROOT
BRANCH   1   4
ATOM      4  C   UNL d   1      50.014  34.279  52.584  0.00  0.00     0.058 A 
ATOM      5  C   UNL d   1      49.804  34.159  51.795  0.00  0.00     0.005 A 
ATOM      6  C   UNL d   1      49.193  34.580  51.462  0.00  0.00     0.000 A 
ATOM      7  C   UNL d   1      48.993  34.451  50.672  0.00  0.00     0.000 C 
ATOM      8  C   UNL d   1      48.780  35.128  51.915  0.00  0.00     0.000 A 
ATOM      9  C   UNL d   1      48.979  35.256  52.702  0.00  0.00     0.000 A 
ATOM     10  C   UNL d   1      49.594  34.836  53.044  0.00  0.00     0.005 A 
ENDBRANCH   1   4
BRANCH   3  11
ATOM     11  C   UNL d   1      52.031  33.718  53.208  0.00  0.00     0.104 C 
BRANCH  11  12
ATOM     12  C   UNL d   1      52.772  34.076  53.306  0.00  0.00     0.040 C 
BRANCH  12  13
ATOM     13  C   UNL d   1      53.388  33.658  53.627  0.00  0.00     0.090 A 
ATOM     14  N   UNL d   1      53.720  33.885  54.352  0.00  0.00    -0.238 NA
ATOM     15  C   UNL d   1      54.325  33.365  54.534  0.00  0.00     0.111 A 
ATOM     16  S   UNL d   1      54.379  32.812  53.932  0.00  0.00    -0.066 SA
ATOM     17  C   UNL d   1      54.813  33.382  55.215  0.00  0.00     0.028 C 
ATOM     18  C   UNL d   1      53.801  32.988  53.368  0.00  0.00     0.056 A 
ENDBRANCH  12  13
ENDBRANCH  11  12
ENDBRANCH   3  11
TORSDOF 4
ENDMDL
MODEL 5
REMARK VINA RESULT:      -6.6      1.420      2.064
REMARK  4 active torsions:
REMARK  status: ('A' for Active; 'I' for Inactive)
REMARK       I    between atoms: C_4  and  N_10 
REMARK    1  A    between atoms: C_7  and  C_4 
REMARK    2  A    between atoms: C_11  and  C_5 
REMARK    3  A    between atoms: N_10  and  C_13 
REMARK    4  A    between atoms: C_13  and  C_11 
ROOT
ATOM      1  C   UNL d   1      51.342  34.164  52.489  0.00  0.00     0.279 C 
ATOM      2  O   UNL d   1      51.360  34.334  51.682  0.00  0.00    -0.265 OA
ATOM      3  N   UNL d   1      50.664  34.332  52.936  0.00  0.00    -0.206 NA
ENDROOT
BRANCH   1   4
ATOM      4  C   UNL d   1      52.013  33.821  52.863  0.00  0.00     0.058 A 
ATOM      5  C   UNL d   1      52.153  33.010  52.796  0.00  0.00     0.005 A 
ATOM      6  C   UNL d   1      52.800  32.673  53.155  0.00  0.00     0.000 A 
ATOM      7  C   UNL d   1      52.929  31.861  53.081  0.00  0.00     0.000 C 
ATOM      8  C   UNL d   1      53.318  33.143  53.587  0.00  0.00     0.000 A 
ATOM      9  C   UNL d   1      53.189  33.951  53.661  0.00  0.00     0.000 A 
ATOM     10  C   UNL d   1      52.539  34.298  53.301  0.00  0.00     0.005 A 
ENDBRANCH   1   4
BRANCH   3  11
ATOM     11  C   UNL d   1      50.016  34.663  52.578  0.00  0.00     0.104 C 
BRANCH  11  12
ATOM     12  C   UNL d   1      49.380  34.927  53.039  0.00  0.00     0.040 C 
BRANCH  12  13
ATOM     13  C   UNL d   1      48.742  35.282  52.687  0.00  0.00     0.090 A 
ATOM     14  N   UNL d   1      48.312  35.869  53.085  0.00  0.00    -0.238 NA
ATOM     15  C   UNL d   1      47.706  36.122  52.597  0.00  0.00     0.111 A 
ATOM     16  S   UNL d   1      47.748  35.702  51.895  0.00  0.00    -0.066 SA
ATOM     17  C   UNL d   1      47.133  36.709  52.772  0.00  0.00     0.028 C 
ATOM     18  C   UNL d   1      48.387  35.180  51.945  0.00  0.00     0.056 A 
ENDBRANCH  12  13
ENDBRANCH  11  12
ENDBRANCH   3  11
TORSDOF 4
ENDMDL
MODEL 6
REMARK VINA RESULT:      -4.9     10.354     11.081
REMARK  4 active torsions:
REMARK  status: ('A' for Active; 'I' for Inactive)
REMARK       I    between atoms: C_4  and  N_10 
REMARK    1  A    between atoms: C_7  and  C_4 
REMARK    2  A    between atoms: C_11  and  C_5 
REMARK    3  A    between atoms: N_10  and  C_13 
REMARK    4  A    between atoms: C_13  and  C_11 
ROOT
ATOM      1  C   UNL d   1      44.713  30.704  61.193  0.00  0.00     0.279 C 
ATOM      2  O   UNL d   1      44.728  31.529  61.200  0.00  0.00    -0.265 OA
ATOM      3  N   UNL d   1      44.779  30.291  60.477  0.00  0.00    -0.206 NA
ENDROOT
BRANCH   1   4
ATOM      4  C   UNL d   1      44.631  30.278  61.914  0.00  0.00     0.058 A 
ATOM      5  C   UNL d   1      44.789  29.468  61.936  0.00  0.00     0.005 A 
ATOM      6  C   UNL d   1      44.711  29.051  62.630  0.00  0.00     0.000 A 
ATOM      7  C   UNL d   1      44.871  28.242  62.639  0.00  0.00     0.000 C 
ATOM      8  C   UNL d   1      44.474  29.440  63.315  0.00  0.00     0.000 A 
ATOM      9  C   UNL d   1      44.314  30.246  63.305  0.00  0.00     0.000 A 
ATOM     10  C   UNL d   1      44.391  30.673  62.609  0.00  0.00     0.005 A 
ENDBRANCH   1   4
BRANCH   3  11
ATOM     11  C   UNL d   1      44.858  30.700  59.781  0.00  0.00     0.104 C 
BRANCH  11  12
ATOM     12  C   UNL d   1      45.143  30.313  59.106  0.00  0.00     0.040 C 
BRANCH  12  13
ATOM     13  C   UNL d   1      44.956  30.592  58.368  0.00  0.00     0.090 A 
ATOM     14  N   UNL d   1      44.834  30.068  57.737  0.00  0.00    -0.238 NA
ATOM     15  C   UNL d   1      44.656  30.505  57.069  0.00  0.00     0.111 A 
ATOM     16  S   UNL d   1      44.664  31.299  57.270  0.00  0.00    -0.066 SA
ATOM     17  C   UNL d   1      44.491  30.205  56.303  0.00  0.00     0.028 C 
ATOM     18  C   UNL d   1      44.850  31.359  58.073  0.00  0.00     0.056 A 
ENDBRANCH  12  13
ENDBRANCH  11  12
ENDBRANCH   3  11
TORSDOF 4
ENDMDL
MODEL 7
REMARK VINA RESULT:      -4.8     10.236     11.078
REMARK  4 active torsions:
REMARK  status: ('A' for Active; 'I' for Inactive)
REMARK       I    between atoms: C_4  and  N_10 
REMARK    1  A    between atoms: C_7  and  C_4 
REMARK    2  A    between atoms: C_11  and  C_5 
REMARK    3  A    between atoms: N_10  and  C_13 
REMARK    4  A    between atoms: C_13  and  C_11 
ROOT
ATOM      1  C   UNL d   1      44.562  30.628  60.379  0.00  0.00     0.279 C 
ATOM      2  O   UNL d   1      44.400  31.297  59.923  0.00  0.00    -0.265 OA
ATOM      3  N   UNL d   1      44.777  29.916  60.013  0.00  0.00    -0.206 NA
ENDROOT
BRANCH   1   4
ATOM      4  C   UNL d   1      44.511  30.668  61.218  0.00  0.00     0.058 A 
ATOM      5  C   UNL d   1      44.438  31.398  61.593  0.00  0.00     0.005 A 
ATOM      6  C   UNL d   1      44.388  31.442  62.405  0.00  0.00     0.000 A 
ATOM      7  C   UNL d   1      44.314  32.179  62.768  0.00  0.00     0.000 C 
ATOM      8  C   UNL d   1      44.411  30.753  62.853  0.00  0.00     0.000 A 
ATOM      9  C   UNL d   1      44.484  30.020  62.489  0.00  0.00     0.000 A 
ATOM     10  C   UNL d   1      44.535  29.968  61.673  0.00  0.00     0.005 A 
ENDBRANCH   1   4
BRANCH   3  11
ATOM     11  C   UNL d   1      44.827  29.876  59.205  0.00  0.00     0.104 C 
BRANCH  11  12
ATOM     12  C   UNL d   1      45.340  29.331  58.850  0.00  0.00     0.040 C 
BRANCH  12  13
ATOM     13  C   UNL d   1      45.171  29.030  58.117  0.00  0.00     0.090 A 
ATOM     14  N   UNL d   1      45.282  28.225  57.955  0.00  0.00    -0.238 NA
ATOM     15  C   UNL d   1      45.067  28.085  57.178  0.00  0.00     0.111 A 
ATOM     16  S   UNL d   1      44.821  28.792  56.847  0.00  0.00    -0.066 SA
ATOM     17  C   UNL d   1      45.088  27.349  56.777  0.00  0.00     0.028 C 
ATOM     18  C   UNL d   1      44.884  29.381  57.423  0.00  0.00     0.056 A 
ENDBRANCH  12  13
ENDBRANCH  11  12
ENDBRANCH   3  11
TORSDOF 4
ENDMDL
