MODEL 1
REMARK VINA RESULT:      -4.5      0.000      0.000
REMARK  7 active torsions:
REMARK  status: ('A' for Active; 'I' for Inactive)
REMARK    1  A    between atoms: C_17  and  N_1 
REMARK       I    between atoms: C_4  and  N_7 
REMARK    2  A    between atoms: C_8  and  C_4 
REMARK    3  A    between atoms: N_7  and  C_26 
REMARK    4  A    between atoms: C_9  and  N_7 
REMARK    5  A    between atoms: C_27  and  C_17 
REMARK    6  A    between atoms: C_26  and  C_28 
REMARK    7  A    between atoms: C_28  and  C_27 
ROOT
ATOM      1  C   UNL d   1     -49.049  12.642  21.940  0.00  0.00     0.287 C 
ATOM      2  N   UNL d   1     -48.716  13.026  22.593  0.00  0.00    -0.272 N 
ATOM      3  O   UNL d   1     -48.745  11.936  21.687  0.00  0.00    -0.264 OA
ENDROOT
BRANCH   2   4
ATOM      4  C   UNL d   1     -48.086  12.692  22.975  0.00  0.00     0.083 C 
BRANCH   4   5
ATOM      5  C   UNL d   1     -47.314  12.933  22.790  0.00  0.00     0.021 C 
BRANCH   5   6
ATOM      6  C   UNL d   1     -46.677  12.538  23.108  0.00  0.00     0.021 C 
BRANCH   6   7
ATOM      7  C   UNL d   1     -46.005  12.416  22.645  0.00  0.00     0.086 C 
BRANCH   7   8
ATOM      8  N   UNL d   1     -45.459  11.817  22.863  0.00  0.00    -0.240 N 
ATOM      9  C   UNL d   1     -45.646  11.126  23.197  0.00  0.00     0.267 A 
ATOM     10  C   UNL d   1     -44.955  10.702  23.320  0.00  0.00     0.061 A 
ATOM     11  O   UNL d   1     -46.435  10.851  23.404  0.00  0.00    -0.267 OA
ATOM     12  C   UNL d   1     -44.813   9.968  23.640  0.00  0.00     0.005 A 
ATOM     13  C   UNL d   1     -44.323  11.175  23.039  0.00  0.00     0.061 A 
ATOM     14  C   UNL d   1     -44.032   9.689  23.687  0.00  0.00     0.000 A 
ATOM     15  C   UNL d   1     -43.401  10.163  23.406  0.00  0.00     0.000 A 
ATOM     16  C   UNL d   1     -43.563  10.905  23.084  0.00  0.00     0.005 A 
ATOM     17  C   UNL d   1     -44.653  11.871  22.755  0.00  0.00     0.267 A 
ATOM     18  O   UNL d   1     -44.211  12.519  22.414  0.00  0.00    -0.267 OA
ENDBRANCH   7   8
ENDBRANCH   6   7
ENDBRANCH   5   6
ENDBRANCH   4   5
ENDBRANCH   2   4
BRANCH   2  19
ATOM     19  C   UNL d   1     -49.020  13.748  22.859  0.00  0.00     0.067 A 
ATOM     20  C   UNL d   1     -49.624  13.770  23.424  0.00  0.00     0.018 A 
ATOM     21  C   UNL d   1     -49.929  14.492  23.690  0.00  0.00     0.013 A 
ATOM     22  C   UNL d   1     -49.628  15.192  23.391  0.00  0.00     0.058 A 
ATOM     23  C   UNL d   1     -49.026  15.167  22.827  0.00  0.00     0.013 A 
ATOM     24 CL   UNL d   1     -49.934  15.911  23.658  0.00  0.00    -0.082 Cl
ATOM     25  C   UNL d   1     -48.720  14.449  22.560  0.00  0.00     0.018 A 
ENDBRANCH   2  19
BRANCH   1  26
ATOM     26  C   UNL d   1     -49.687  12.980  21.553  0.00  0.00     0.156 A 
ATOM     27  O   UNL d   1     -49.765  13.618  21.035  0.00  0.00    -0.300 OA
ATOM     28  C   UNL d   1     -50.555  13.699  20.822  0.00  0.00     0.123 A 
ATOM     29  C   UNL d   1     -50.956  13.130  21.196  0.00  0.00     0.029 A 
ATOM     30  C   UNL d   1     -50.441  12.663  21.662  0.00  0.00     0.032 A 
ENDBRANCH   1  26
TORSDOF 7
ENDMDL
MODEL 2
REMARK VINA RESULT:      -4.4      1.386      1.989
REMARK  7 active torsions:
REMARK  status: ('A' for Active; 'I' for Inactive)
REMARK    1  A    between atoms: C_17  and  N_1 
REMARK       I    between atoms: C_4  and  N_7 
REMARK    2  A    between atoms: C_8  and  C_4 
REMARK    3  A    between atoms: N_7  and  C_26 
REMARK    4  A    between atoms: C_9  and  N_7 
REMARK    5  A    between atoms: C_27  and  C_17 
REMARK    6  A    between atoms: C_26  and  C_28 
REMARK    7  A    between atoms: C_28  and  C_27 
ROOT
ATOM      1  C   UNL d   1     -48.722  12.103  23.345  0.00  0.00     0.287 C 
ATOM      2  N   UNL d   1     -48.288  12.807  23.322  0.00  0.00    -0.272 N 
ATOM      3  O   UNL d   1     -48.364  11.414  23.576  0.00  0.00    -0.264 OA
ENDROOT
BRANCH   2   4
ATOM      4  C   UNL d   1     -47.507  12.803  23.532  0.00  0.00     0.083 C 
BRANCH   4   5
ATOM      5  C   UNL d   1     -46.980  12.281  23.160  0.00  0.00     0.021 C 
BRANCH   5   6
ATOM      6  C   UNL d   1     -46.208  12.505  23.033  0.00  0.00     0.021 C 
BRANCH   6   7
ATOM      7  C   UNL d   1     -45.653  11.935  22.812  0.00  0.00     0.086 C 
BRANCH   7   8
ATOM      8  N   UNL d   1     -44.942  12.177  22.438  0.00  0.00    -0.240 N 
ATOM      9  C   UNL d   1     -44.885  12.728  21.874  0.00  0.00     0.267 A 
ATOM     10  C   UNL d   1     -44.097  12.798  21.658  0.00  0.00     0.061 A 
ATOM     11  O   UNL d   1     -45.531  13.184  21.534  0.00  0.00    -0.267 OA
ATOM     12  C   UNL d   1     -43.718  13.269  21.115  0.00  0.00     0.005 A 
ATOM     13  C   UNL d   1     -43.665  12.253  22.127  0.00  0.00     0.061 A 
ATOM     14  C   UNL d   1     -42.895  13.207  21.026  0.00  0.00     0.000 A 
ATOM     15  C   UNL d   1     -42.464  12.662  21.495  0.00  0.00     0.000 A 
ATOM     16  C   UNL d   1     -42.864  12.192  22.041  0.00  0.00     0.005 A 
ATOM     17  C   UNL d   1     -44.206  11.871  22.610  0.00  0.00     0.267 A 
ATOM     18  O   UNL d   1     -44.011  11.266  23.183  0.00  0.00    -0.267 OA
ENDBRANCH   7   8
ENDBRANCH   6   7
ENDBRANCH   5   6
ENDBRANCH   4   5
ENDBRANCH   2   4
BRANCH   2  19
ATOM     19  C   UNL d   1     -48.645  13.516  23.088  0.00  0.00     0.067 A 
ATOM     20  C   UNL d   1     -48.986  14.022  23.645  0.00  0.00     0.018 A 
ATOM     21  C   UNL d   1     -49.343  14.731  23.410  0.00  0.00     0.013 A 
ATOM     22  C   UNL d   1     -49.358  14.933  22.617  0.00  0.00     0.058 A 
ATOM     23  C   UNL d   1     -49.017  14.425  22.063  0.00  0.00     0.013 A 
ATOM     24 CL   UNL d   1     -49.714  15.640  22.386  0.00  0.00    -0.082 Cl
ATOM     25  C   UNL d   1     -48.660  13.718  22.294  0.00  0.00     0.018 A 
ENDBRANCH   2  19
BRANCH   1  26
ATOM     26  C   UNL d   1     -49.513  12.107  23.132  0.00  0.00     0.156 A 
ATOM     27  O   UNL d   1     -49.911  12.265  22.426  0.00  0.00    -0.300 OA
ATOM     28  C   UNL d   1     -50.720  12.182  22.547  0.00  0.00     0.123 A 
ATOM     29  C   UNL d   1     -50.822  11.978  23.304  0.00  0.00     0.029 A 
ATOM     30  C   UNL d   1     -50.085  11.923  23.697  0.00  0.00     0.032 A 
ENDBRANCH   1  26
TORSDOF 7
ENDMDL
MODEL 3
REMARK VINA RESULT:      -3.8      4.726      7.452
REMARK  7 active torsions:
REMARK  status: ('A' for Active; 'I' for Inactive)
REMARK    1  A    between atoms: C_17  and  N_1 
REMARK       I    between atoms: C_4  and  N_7 
REMARK    2  A    between atoms: C_8  and  C_4 
REMARK    3  A    between atoms: N_7  and  C_26 
REMARK    4  A    between atoms: C_9  and  N_7 
REMARK    5  A    between atoms: C_27  and  C_17 
REMARK    6  A    between atoms: C_26  and  C_28 
REMARK    7  A    between atoms: C_28  and  C_27 
ROOT
ATOM      1  C   UNL d   1     -40.979  14.189  19.859  0.00  0.00     0.287 C 
ATOM      2  N   UNL d   1     -41.090  14.374  20.657  0.00  0.00    -0.272 N 
ATOM      3  O   UNL d   1     -41.598  13.911  19.417  0.00  0.00    -0.264 OA
ENDROOT
BRANCH   2   4
ATOM      4  C   UNL d   1     -41.820  14.276  20.993  0.00  0.00     0.083 C 
BRANCH   4   5
ATOM      5  C   UNL d   1     -42.149  13.516  21.054  0.00  0.00     0.021 C 
BRANCH   5   6
ATOM      6  C   UNL d   1     -42.827  13.401  21.490  0.00  0.00     0.021 C 
BRANCH   6   7
ATOM      7  C   UNL d   1     -43.278  12.723  21.363  0.00  0.00     0.086 C 
BRANCH   7   8
ATOM      8  N   UNL d   1     -43.968  12.595  21.824  0.00  0.00    -0.240 N 
ATOM      9  C   UNL d   1     -44.607  13.060  21.832  0.00  0.00     0.267 A 
ATOM     10  C   UNL d   1     -45.153  12.742  22.354  0.00  0.00     0.061 A 
ATOM     11  O   UNL d   1     -44.725  13.780  21.375  0.00  0.00    -0.267 OA
ATOM     12  C   UNL d   1     -45.897  12.980  22.581  0.00  0.00     0.005 A 
ATOM     13  C   UNL d   1     -44.811  12.046  22.673  0.00  0.00     0.061 A 
ATOM     14  C   UNL d   1     -46.318  12.527  23.134  0.00  0.00     0.000 A 
ATOM     15  C   UNL d   1     -45.976  11.831  23.453  0.00  0.00     0.000 A 
ATOM     16  C   UNL d   1     -45.220  11.604  23.212  0.00  0.00     0.005 A 
ATOM     17  C   UNL d   1     -44.069  11.966  22.333  0.00  0.00     0.267 A 
ATOM     18  O   UNL d   1     -43.520  11.331  22.498  0.00  0.00    -0.267 OA
ENDBRANCH   7   8
ENDBRANCH   6   7
ENDBRANCH   5   6
ENDBRANCH   4   5
ENDBRANCH   2   4
BRANCH   2  19
ATOM     19  C   UNL d   1     -40.464  14.659  21.117  0.00  0.00     0.067 A 
ATOM     20  C   UNL d   1     -39.942  14.137  21.490  0.00  0.00     0.018 A 
ATOM     21  C   UNL d   1     -39.316  14.421  21.950  0.00  0.00     0.013 A 
ATOM     22  C   UNL d   1     -39.211  15.229  22.035  0.00  0.00     0.058 A 
ATOM     23  C   UNL d   1     -39.733  15.747  21.661  0.00  0.00     0.013 A 
ATOM     24 CL   UNL d   1     -38.585  15.509  22.494  0.00  0.00    -0.082 Cl
ATOM     25  C   UNL d   1     -40.359  15.466  21.202  0.00  0.00     0.018 A 
ENDBRANCH   2  19
BRANCH   1  26
ATOM     26  C   UNL d   1     -40.240  14.289  19.519  0.00  0.00     0.156 A 
ATOM     27  O   UNL d   1     -39.504  13.935  19.645  0.00  0.00    -0.300 OA
ATOM     28  C   UNL d   1     -38.955  14.265  19.130  0.00  0.00     0.123 A 
ATOM     29  C   UNL d   1     -39.336  14.806  18.697  0.00  0.00     0.029 A 
ATOM     30  C   UNL d   1     -40.143  14.845  18.917  0.00  0.00     0.032 A 
ENDBRANCH   1  26
TORSDOF 7
ENDMDL
MODEL 4
REMARK VINA RESULT:      -2.9      2.246      3.187
REMARK  7 active torsions:
REMARK  status: ('A' for Active; 'I' for Inactive)
REMARK    1  A    between atoms: C_17  and  N_1 
REMARK       I    between atoms: C_4  and  N_7 
REMARK    2  A    between atoms: C_8  and  C_4 
REMARK    3  A    between atoms: N_7  and  C_26 
REMARK    4  A    between atoms: C_9  and  N_7 
REMARK    5  A    between atoms: C_27  and  C_17 
REMARK    6  A    between atoms: C_26  and  C_28 
REMARK    7  A    between atoms: C_28  and  C_27 
ROOT
ATOM      1  C   UNL d   1     -47.292  14.351  22.896  0.00  0.00     0.287 C 
ATOM      2  N   UNL d   1     -47.128  13.541  22.930  0.00  0.00    -0.272 N 
ATOM      3  O   UNL d   1     -46.685  14.887  22.899  0.00  0.00    -0.264 OA
ENDROOT
BRANCH   2   4
ATOM      4  C   UNL d   1     -46.360  13.289  22.967  0.00  0.00     0.083 C 
BRANCH   4   5
ATOM      5  C   UNL d   1     -45.918  13.202  22.270  0.00  0.00     0.021 C 
BRANCH   5   6
ATOM      6  C   UNL d   1     -45.105  13.183  22.303  0.00  0.00     0.021 C 
BRANCH   6   7
ATOM      7  C   UNL d   1     -44.683  12.844  21.681  0.00  0.00     0.086 C 
BRANCH   7   8
ATOM      8  N   UNL d   1     -43.876  13.048  21.572  0.00  0.00    -0.240 N 
ATOM      9  C   UNL d   1     -43.609  13.758  21.346  0.00  0.00     0.267 A 
ATOM     10  C   UNL d   1     -42.791  13.726  21.306  0.00  0.00     0.061 A 
ATOM     11  O   UNL d   1     -44.084  14.453  21.169  0.00  0.00    -0.267 OA
ATOM     12  C   UNL d   1     -42.231  14.281  21.108  0.00  0.00     0.005 A 
ATOM     13  C   UNL d   1     -42.564  12.948  21.522  0.00  0.00     0.061 A 
ATOM     14  C   UNL d   1     -41.428  14.071  21.122  0.00  0.00     0.000 A 
ATOM     15  C   UNL d   1     -41.202  13.293  21.338  0.00  0.00     0.000 A 
ATOM     16  C   UNL d   1     -41.783  12.743  21.536  0.00  0.00     0.005 A 
ATOM     17  C   UNL d   1     -43.253  12.535  21.686  0.00  0.00     0.267 A 
ATOM     18  O   UNL d   1     -43.287  11.715  21.930  0.00  0.00    -0.267 OA
ENDBRANCH   7   8
ENDBRANCH   6   7
ENDBRANCH   5   6
ENDBRANCH   4   5
ENDBRANCH   2   4
BRANCH   2  19
ATOM     19  C   UNL d   1     -47.741  12.985  22.928  0.00  0.00     0.067 A 
ATOM     20  C   UNL d   1     -48.025  12.666  23.636  0.00  0.00     0.018 A 
ATOM     21  C   UNL d   1     -48.638  12.110  23.634  0.00  0.00     0.013 A 
ATOM     22  C   UNL d   1     -48.967  11.873  22.922  0.00  0.00     0.058 A 
ATOM     23  C   UNL d   1     -48.680  12.193  22.217  0.00  0.00     0.013 A 
ATOM     24 CL   UNL d   1     -49.578  11.319  22.923  0.00  0.00    -0.082 Cl
ATOM     25  C   UNL d   1     -48.069  12.748  22.216  0.00  0.00     0.018 A 
ENDBRANCH   2  19
BRANCH   1  26
ATOM     26  C   UNL d   1     -48.069  14.605  22.859  0.00  0.00     0.156 A 
ATOM     27  O   UNL d   1     -48.720  14.522  23.361  0.00  0.00    -0.300 OA
ATOM     28  C   UNL d   1     -49.368  14.902  23.029  0.00  0.00     0.123 A 
ATOM     29  C   UNL d   1     -49.130  15.212  22.342  0.00  0.00     0.029 A 
ATOM     30  C   UNL d   1     -48.321  15.044  22.207  0.00  0.00     0.032 A 
ENDBRANCH   1  26
TORSDOF 7
ENDMDL
MODEL 5
REMARK VINA RESULT:      -2.7      1.913      5.743
REMARK  7 active torsions:
REMARK  status: ('A' for Active; 'I' for Inactive)
REMARK    1  A    between atoms: C_17  and  N_1 
REMARK       I    between atoms: C_4  and  N_7 
REMARK    2  A    between atoms: C_8  and  C_4 
REMARK    3  A    between atoms: N_7  and  C_26 
REMARK    4  A    between atoms: C_9  and  N_7 
REMARK    5  A    between atoms: C_27  and  C_17 
REMARK    6  A    between atoms: C_26  and  C_28 
REMARK    7  A    between atoms: C_28  and  C_27 
ROOT
ATOM      1  C   UNL d   1     -45.628  12.029  23.225  0.00  0.00     0.287 C 
ATOM      2  N   UNL d   1     -45.510  12.677  22.724  0.00  0.00    -0.272 N 
ATOM      3  O   UNL d   1     -46.286  11.996  23.696  0.00  0.00    -0.264 OA
ENDROOT
BRANCH   2   4
ATOM      4  C   UNL d   1     -46.054  13.275  22.709  0.00  0.00     0.083 C 
BRANCH   4   5
ATOM      5  C   UNL d   1     -46.851  13.107  22.547  0.00  0.00     0.021 C 
BRANCH   5   6
ATOM      6  C   UNL d   1     -47.425  13.660  22.712  0.00  0.00     0.021 C 
BRANCH   6   7
ATOM      7  C   UNL d   1     -48.139  13.636  22.299  0.00  0.00     0.086 C 
BRANCH   7   8
ATOM      8  N   UNL d   1     -48.803  14.050  22.603  0.00  0.00    -0.240 N 
ATOM      9  C   UNL d   1     -49.415  13.721  22.980  0.00  0.00     0.267 A 
ATOM     10  C   UNL d   1     -49.943  14.315  23.185  0.00  0.00     0.061 A 
ATOM     11  O   UNL d   1     -49.523  12.886  23.154  0.00  0.00    -0.267 OA
ATOM     12  C   UNL d   1     -50.656  14.302  23.574  0.00  0.00     0.005 A 
ATOM     13  C   UNL d   1     -49.618  15.037  22.909  0.00  0.00     0.061 A 
ATOM     14  C   UNL d   1     -51.064  15.015  23.697  0.00  0.00     0.000 A 
ATOM     15  C   UNL d   1     -50.740  15.737  23.422  0.00  0.00     0.000 A 
ATOM     16  C   UNL d   1     -50.015  15.731  23.028  0.00  0.00     0.005 A 
ATOM     17  C   UNL d   1     -48.905  14.857  22.547  0.00  0.00     0.267 A 
ATOM     18  O   UNL d   1     -48.381  15.428  22.184  0.00  0.00    -0.267 OA
ENDBRANCH   7   8
ENDBRANCH   6   7
ENDBRANCH   5   6
ENDBRANCH   4   5
ENDBRANCH   2   4
BRANCH   2  19
ATOM     19  C   UNL d   1     -44.841  12.720  22.240  0.00  0.00     0.067 A 
ATOM     20  C   UNL d   1     -44.886  12.522  21.438  0.00  0.00     0.018 A 
ATOM     21  C   UNL d   1     -44.218  12.565  20.953  0.00  0.00     0.013 A 
ATOM     22  C   UNL d   1     -43.502  12.807  21.270  0.00  0.00     0.058 A 
ATOM     23  C   UNL d   1     -43.460  13.004  22.070  0.00  0.00     0.013 A 
ATOM     24 CL   UNL d   1     -42.837  12.848  20.784  0.00  0.00    -0.082 Cl
ATOM     25  C   UNL d   1     -44.125  12.962  22.557  0.00  0.00     0.018 A 
ENDBRANCH   2  19
BRANCH   1  26
ATOM     26  C   UNL d   1     -45.076  11.424  23.241  0.00  0.00     0.156 A 
ATOM     27  O   UNL d   1     -44.253  11.402  23.171  0.00  0.00    -0.300 OA
ATOM     28  C   UNL d   1     -43.998  10.623  23.232  0.00  0.00     0.123 A 
ATOM     29  C   UNL d   1     -44.640  10.174  23.336  0.00  0.00     0.029 A 
ATOM     30  C   UNL d   1     -45.332  10.646  23.346  0.00  0.00     0.032 A 
ENDBRANCH   1  26
TORSDOF 7
ENDMDL
MODEL 6
REMARK VINA RESULT:      -1.8      3.736      5.528
REMARK  7 active torsions:
REMARK  status: ('A' for Active; 'I' for Inactive)
REMARK    1  A    between atoms: C_17  and  N_1 
REMARK       I    between atoms: C_4  and  N_7 
REMARK    2  A    between atoms: C_8  and  C_4 
REMARK    3  A    between atoms: N_7  and  C_26 
REMARK    4  A    between atoms: C_9  and  N_7 
REMARK    5  A    between atoms: C_27  and  C_17 
REMARK    6  A    between atoms: C_26  and  C_28 
REMARK    7  A    between atoms: C_28  and  C_27 
ROOT
ATOM      1  C   UNL d   1     -44.139  12.033  22.290  0.00  0.00     0.287 C 
ATOM      2  N   UNL d   1     -44.407  12.711  21.900  0.00  0.00    -0.272 N 
ATOM      3  O   UNL d   1     -43.390  11.756  22.154  0.00  0.00    -0.264 OA
ENDROOT
BRANCH   2   4
ATOM      4  C   UNL d   1     -43.917  13.096  21.384  0.00  0.00     0.083 C 
BRANCH   4   5
ATOM      5  C   UNL d   1     -43.095  13.077  21.500  0.00  0.00     0.021 C 
BRANCH   5   6
ATOM      6  C   UNL d   1     -42.604  13.485  20.995  0.00  0.00     0.021 C 
BRANCH   6   7
ATOM      7  C   UNL d   1     -41.787  13.388  21.061  0.00  0.00     0.086 C 
BRANCH   7   8
ATOM      8  N   UNL d   1     -41.277  13.950  20.703  0.00  0.00    -0.240 N 
ATOM      9  C   UNL d   1     -40.795  14.444  21.090  0.00  0.00     0.267 A 
ATOM     10  C   UNL d   1     -40.394  14.900  20.539  0.00  0.00     0.061 A 
ATOM     11  O   UNL d   1     -40.699  14.505  21.943  0.00  0.00    -0.267 OA
ATOM     12  C   UNL d   1     -39.838  15.488  20.616  0.00  0.00     0.005 A 
ATOM     13  C   UNL d   1     -40.657  14.657  19.781  0.00  0.00     0.061 A 
ATOM     14  C   UNL d   1     -39.531  15.849  19.935  0.00  0.00     0.000 A 
ATOM     15  C   UNL d   1     -39.795  15.606  19.177  0.00  0.00     0.000 A 
ATOM     16  C   UNL d   1     -40.359  15.007  19.117  0.00  0.00     0.005 A 
ATOM     17  C   UNL d   1     -41.209  14.062  19.898  0.00  0.00     0.267 A 
ATOM     18  O   UNL d   1     -41.625  13.649  19.275  0.00  0.00    -0.267 OA
ENDBRANCH   7   8
ENDBRANCH   6   7
ENDBRANCH   5   6
ENDBRANCH   4   5
ENDBRANCH   2   4
BRANCH   2  19
ATOM     19  C   UNL d   1     -45.171  13.001  22.032  0.00  0.00     0.067 A 
ATOM     20  C   UNL d   1     -45.809  12.732  21.579  0.00  0.00     0.018 A 
ATOM     21  C   UNL d   1     -46.572  13.022  21.711  0.00  0.00     0.013 A 
ATOM     22  C   UNL d   1     -46.698  13.580  22.296  0.00  0.00     0.058 A 
ATOM     23  C   UNL d   1     -46.059  13.846  22.746  0.00  0.00     0.013 A 
ATOM     24 CL   UNL d   1     -47.461  13.867  22.425  0.00  0.00    -0.082 Cl
ATOM     25  C   UNL d   1     -45.296  13.559  22.617  0.00  0.00     0.018 A 
ENDBRANCH   2  19
BRANCH   1  26
ATOM     26  C   UNL d   1     -44.635  11.643  22.812  0.00  0.00     0.156 A 
ATOM     27  O   UNL d   1     -45.317  11.866  23.223  0.00  0.00    -0.300 OA
ATOM     28  C   UNL d   1     -45.580  11.230  23.674  0.00  0.00     0.123 A 
ATOM     29  C   UNL d   1     -45.079  10.632  23.548  0.00  0.00     0.029 A 
ATOM     30  C   UNL d   1     -44.476  10.859  23.014  0.00  0.00     0.032 A 
ENDBRANCH   1  26
TORSDOF 7
ENDMDL
