MODEL 1
REMARK VINA RESULT:      -6.1      0.000      0.000
REMARK  0 active torsions:
REMARK  status: ('A' for Active; 'I' for Inactive)
ROOT
ATOM      1  C   UNL d   1      55.900  -1.022  32.905  0.00  0.00     0.282 A 
ATOM      2  N   UNL d   1      55.394  -0.640  33.435  0.00  0.00    -0.189 NA
ATOM      3  N   UNL d   1      55.787   0.624  32.893  0.00  0.00    -0.227 NA
ATOM      4  C   UNL d   1      56.347  -0.582  32.372  0.00  0.00     0.076 A 
ATOM      5  C   UNL d   1      55.337   0.183  33.429  0.00  0.00     0.166 A 
ATOM      6  C   UNL d   1      56.291   0.241  32.367  0.00  0.00     0.088 A 
ATOM      7  O   UNL d   1      55.957  -1.845  32.911  0.00  0.00    -0.265 OA
ATOM      8  C   UNL d   1      56.851  -0.964  31.845  0.00  0.00     0.006 A 
ATOM      9  C   UNL d   1      54.828   0.566  33.963  0.00  0.00     0.042 C 
ATOM     10  C   UNL d   1      56.738   0.682  31.833  0.00  0.00     0.019 A 
ATOM     11  C   UNL d   1      57.303  -0.524  31.306  0.00  0.00     0.000 A 
ATOM     12  C   UNL d   1      57.247   0.299  31.301  0.00  0.00     0.002 A 
ENDROOT
TORSDOF 0
ENDMDL
MODEL 2
REMARK VINA RESULT:      -5.7      0.914      2.226
REMARK  0 active torsions:
REMARK  status: ('A' for Active; 'I' for Inactive)
ROOT
ATOM      1  C   UNL d   1      56.627  -0.968  32.002  0.00  0.00     0.282 A 
ATOM      2  N   UNL d   1      57.069  -0.556  31.438  0.00  0.00    -0.189 NA
ATOM      3  N   UNL d   1      56.625   0.682  32.001  0.00  0.00    -0.227 NA
ATOM      4  C   UNL d   1      56.187  -0.556  32.562  0.00  0.00     0.076 A 
ATOM      5  C   UNL d   1      57.068   0.269  31.437  0.00  0.00     0.166 A 
ATOM      6  C   UNL d   1      56.186   0.269  32.561  0.00  0.00     0.088 A 
ATOM      7  O   UNL d   1      56.629  -1.793  32.003  0.00  0.00    -0.265 OA
ATOM      8  C   UNL d   1      55.748  -0.968  33.124  0.00  0.00     0.006 A 
ATOM      9  C   UNL d   1      57.513   0.682  30.869  0.00  0.00     0.042 C 
ATOM     10  C   UNL d   1      55.746   0.682  33.122  0.00  0.00     0.019 A 
ATOM     11  C   UNL d   1      55.303  -0.556  33.690  0.00  0.00     0.000 A 
ATOM     12  C   UNL d   1      55.302   0.269  33.689  0.00  0.00     0.002 A 
ENDROOT
TORSDOF 0
ENDMDL
MODEL 3
REMARK VINA RESULT:      -4.4      1.304      2.683
REMARK  0 active torsions:
REMARK  status: ('A' for Active; 'I' for Inactive)
ROOT
ATOM      1  C   UNL d   1      57.089   0.384  33.502  0.00  0.00     0.282 A 
ATOM      2  N   UNL d   1      57.335   0.086  32.771  0.00  0.00    -0.189 NA
ATOM      3  N   UNL d   1      55.976  -0.212  32.440  0.00  0.00    -0.227 NA
ATOM      4  C   UNL d   1      56.290   0.383  33.699  0.00  0.00     0.076 A 
ATOM      5  C   UNL d   1      56.779  -0.212  32.240  0.00  0.00     0.166 A 
ATOM      6  C   UNL d   1      55.734   0.085  33.168  0.00  0.00     0.088 A 
ATOM      7  O   UNL d   1      57.646   0.682  34.033  0.00  0.00    -0.265 OA
ATOM      8  C   UNL d   1      56.047   0.680  34.428  0.00  0.00     0.006 A 
ATOM      9  C   UNL d   1      57.027  -0.511  31.505  0.00  0.00     0.042 C 
ATOM     10  C   UNL d   1      54.934   0.085  33.366  0.00  0.00     0.019 A 
ATOM     11  C   UNL d   1      55.243   0.681  34.630  0.00  0.00     0.000 A 
ATOM     12  C   UNL d   1      54.686   0.383  34.099  0.00  0.00     0.002 A 
ENDROOT
TORSDOF 0
ENDMDL
MODEL 4
REMARK VINA RESULT:      -4.2      8.313      9.029
REMARK  0 active torsions:
REMARK  status: ('A' for Active; 'I' for Inactive)
ROOT
ATOM      1  C   UNL d   1      59.440  -6.771  35.798  0.00  0.00     0.282 A 
ATOM      2  N   UNL d   1      59.894  -6.093  35.931  0.00  0.00    -0.189 NA
ATOM      3  N   UNL d   1      61.003  -6.915  36.307  0.00  0.00    -0.227 NA
ATOM      4  C   UNL d   1      59.767  -7.516  35.919  0.00  0.00     0.076 A 
ATOM      5  C   UNL d   1      60.676  -6.165  36.185  0.00  0.00     0.166 A 
ATOM      6  C   UNL d   1      60.548  -7.588  36.174  0.00  0.00     0.088 A 
ATOM      7  O   UNL d   1      58.658  -6.699  35.544  0.00  0.00    -0.265 OA
ATOM      8  C   UNL d   1      59.313  -8.190  35.786  0.00  0.00     0.006 A 
ATOM      9  C   UNL d   1      61.131  -5.483  36.319  0.00  0.00     0.042 C 
ATOM     10  C   UNL d   1      60.876  -8.334  36.295  0.00  0.00     0.019 A 
ATOM     11  C   UNL d   1      59.639  -8.943  35.907  0.00  0.00     0.000 A 
ATOM     12  C   UNL d   1      60.421  -9.015  36.162  0.00  0.00     0.002 A 
ENDROOT
TORSDOF 0
ENDMDL
MODEL 5
REMARK VINA RESULT:      -3.5      1.166      1.671
REMARK  0 active torsions:
REMARK  status: ('A' for Active; 'I' for Inactive)
ROOT
ATOM      1  C   UNL d   1      56.917  -0.964  31.625  0.00  0.00     0.282 A 
ATOM      2  N   UNL d   1      56.495  -0.553  32.206  0.00  0.00    -0.189 NA
ATOM      3  N   UNL d   1      57.006   0.682  31.696  0.00  0.00    -0.227 NA
ATOM      4  C   UNL d   1      57.380  -0.553  31.084  0.00  0.00     0.076 A 
ATOM      5  C   UNL d   1      56.540   0.270  32.241  0.00  0.00     0.166 A 
ATOM      6  C   UNL d   1      57.425   0.270  31.119  0.00  0.00     0.088 A 
ATOM      7  O   UNL d   1      56.872  -1.787  31.590  0.00  0.00    -0.265 OA
ATOM      8  C   UNL d   1      57.799  -0.964  30.506  0.00  0.00     0.006 A 
ATOM      9  C   UNL d   1      56.116   0.682  32.825  0.00  0.00     0.042 C 
ATOM     10  C   UNL d   1      57.888   0.682  30.577  0.00  0.00     0.019 A 
ATOM     11  C   UNL d   1      58.267  -0.553  29.959  0.00  0.00     0.000 A 
ATOM     12  C   UNL d   1      58.312   0.270  29.994  0.00  0.00     0.002 A 
ENDROOT
TORSDOF 0
ENDMDL
MODEL 6
REMARK VINA RESULT:      -3.4      9.406      9.912
REMARK  0 active torsions:
REMARK  status: ('A' for Active; 'I' for Inactive)
ROOT
ATOM      1  C   UNL d   1      59.577  -9.397  34.719  0.00  0.00     0.282 A 
ATOM      2  N   UNL d   1      59.990  -9.616  34.036  0.00  0.00    -0.189 NA
ATOM      3  N   UNL d   1      60.933  -8.567  34.276  0.00  0.00    -0.227 NA
ATOM      4  C   UNL d   1      59.842  -8.766  35.176  0.00  0.00     0.076 A 
ATOM      5  C   UNL d   1      60.668  -9.201  33.815  0.00  0.00     0.166 A 
ATOM      6  C   UNL d   1      60.520  -8.352  34.954  0.00  0.00     0.088 A 
ATOM      7  O   UNL d   1      58.899  -9.811  34.940  0.00  0.00    -0.265 OA
ATOM      8  C   UNL d   1      59.430  -8.549  35.855  0.00  0.00     0.006 A 
ATOM      9  C   UNL d   1      61.082  -9.423  33.129  0.00  0.00     0.042 C 
ATOM     10  C   UNL d   1      60.786  -7.720  35.412  0.00  0.00     0.019 A 
ATOM     11  C   UNL d   1      59.694  -7.914  36.318  0.00  0.00     0.000 A 
ATOM     12  C   UNL d   1      60.372  -7.499  36.097  0.00  0.00     0.002 A 
ENDROOT
TORSDOF 0
ENDMDL
