MODEL 1
REMARK VINA RESULT:      11.0      0.000      0.000
REMARK  1 active torsions:
REMARK  status: ('A' for Active; 'I' for Inactive)
REMARK    1  A    between atoms: C_4  and  C_2 
ROOT
ATOM      1  C   UNL d   1     -51.730  24.092  33.358  0.00  0.00     0.141 C 
ATOM      2  C   UNL d   1     -51.000  23.719  33.339  0.00  0.00     0.112 C 
ATOM      3  C   UNL d   1     -52.432  23.644  33.387  0.00  0.00     0.112 C 
ATOM      4  N   UNL d   1     -53.155  23.192  33.417  0.00  0.00    -0.191 NA
ATOM      5  N   UNL d   1     -50.259  23.327  33.319  0.00  0.00    -0.191 NA
ENDROOT
BRANCH   1   6
ATOM      6  C   UNL d   1     -51.756  24.924  33.349  0.00  0.00     0.079 A 
ATOM      7  C   UNL d   1     -52.433  25.357  33.337  0.00  0.00     0.281 A 
ATOM      8  N   UNL d   1     -52.233  26.148  33.330  0.00  0.00    -0.208 NA
ATOM      9  O   UNL d   1     -53.199  25.024  33.333  0.00  0.00    -0.265 OA
ATOM     10  C   UNL d   1     -51.426  26.201  33.338  0.00  0.00     0.085 A 
ATOM     11  C   UNL d   1     -50.915  26.856  33.336  0.00  0.00     0.019 A 
ATOM     12  C   UNL d   1     -51.113  25.436  33.350  0.00  0.00     0.024 A 
ATOM     13  C   UNL d   1     -50.120  26.743  33.346  0.00  0.00     0.002 A 
ATOM     14  C   UNL d   1     -49.814  25.964  33.358  0.00  0.00     0.000 A 
ATOM     15  C   UNL d   1     -50.328  25.319  33.359  0.00  0.00     0.002 A 
ENDBRANCH   1   6
TORSDOF 1
ENDMDL
