MODEL 1
REMARK VINA RESULT:      22.8      0.000      0.000
REMARK  5 active torsions:
REMARK  status: ('A' for Active; 'I' for Inactive)
REMARK    1  A    between atoms: C_2  and  C_1 
REMARK       I    between atoms: N_3  and  C_2 
REMARK    2  A    between atoms: C_6  and  N_3 
REMARK    3  A    between atoms: O_15  and  C_5 
REMARK    4  A    between atoms: O_17  and  C_11 
REMARK    5  A    between atoms: O_18  and  C_14 
ROOT
ATOM      1  C   UNL d   1      45.775 -16.560  44.281  0.00  0.00     0.281 C 
ATOM      2  N   UNL d   1      46.180 -16.892  43.624  0.00  0.00    -0.206 NA
ATOM      3  O   UNL d   1      45.523 -17.036  44.883  0.00  0.00    -0.265 OA
ENDROOT
BRANCH   1   4
ATOM      4  C   UNL d   1      45.635 -15.739  44.308  0.00  0.00     0.080 A 
ATOM      5  C   UNL d   1      46.182 -15.212  44.009  0.00  0.00     0.007 A 
ATOM      6  C   UNL d   1      46.066 -14.393  44.024  0.00  0.00     0.000 A 
ATOM      7  C   UNL d   1      46.607 -13.884  43.729  0.00  0.00     0.000 A 
ATOM      8  C   UNL d   1      45.352 -14.093  44.363  0.00  0.00     0.002 A 
ATOM      9  C   UNL d   1      46.488 -13.071  43.746  0.00  0.00     0.000 A 
ATOM     10  C   UNL d   1      45.775 -12.772  44.085  0.00  0.00     0.000 A 
ATOM     11  C   UNL d   1      45.210 -13.297  44.393  0.00  0.00     0.000 A 
ATOM     12  C   UNL d   1      44.785 -14.625  44.673  0.00  0.00     0.024 A 
ATOM     13  C   UNL d   1      44.922 -15.439  44.647  0.00  0.00     0.099 A 
BRANCH  13  14
ATOM     14  O   UNL d   1      44.357 -15.965  44.955  0.00  0.00    -0.328 OA
ATOM     15  C   UNL d   1      43.536 -15.770  44.917  0.00  0.00     0.181 C 
ENDBRANCH  13  14
ENDBRANCH   1   4
BRANCH   2  16
ATOM     16  C   UNL d   1      46.319 -17.713  43.597  0.00  0.00     0.109 A 
ATOM     17  C   UNL d   1      46.292 -18.132  44.288  0.00  0.00     0.045 A 
ATOM     18  C   UNL d   1      46.431 -18.934  44.243  0.00  0.00     0.096 A 
ATOM     19  C   UNL d   1      46.593 -19.313  43.533  0.00  0.00     0.026 A 
ATOM     20  C   UNL d   1      46.615 -18.874  42.855  0.00  0.00     0.028 A 
ATOM     21  C   UNL d   1      46.483 -18.083  42.862  0.00  0.00     0.112 A 
BRANCH  18  22
ATOM     22  O   UNL d   1      46.408 -19.391  44.947  0.00  0.00    -0.328 OA
ATOM     23  C   UNL d   1      46.294 -20.180  44.902  0.00  0.00     0.181 C 
ENDBRANCH  18  22
BRANCH  21  24
ATOM     24  O   UNL d   1      46.512 -17.645  42.140  0.00  0.00    -0.327 OA
ATOM     25  C   UNL d   1      46.574 -18.042  41.421  0.00  0.00     0.181 C 
ENDBRANCH  21  24
ENDBRANCH   2  16
TORSDOF 5
ENDMDL
