MODEL 1
REMARK VINA RESULT:      -7.4      0.000      0.000
REMARK  5 active torsions:
REMARK  status: ('A' for Active; 'I' for Inactive)
REMARK    1  A    between atoms: S_10  and  C_1 
REMARK    2  A    between atoms: C_2  and  C_3 
REMARK    3  A    between atoms: C_13  and  C_6 
REMARK       I    between atoms: N_8  and  C_9 
REMARK    4  A    between atoms: C_9  and  C_11 
REMARK    5  A    between atoms: C_11  and  S_10 
ROOT
ATOM      1  C   UNL d   1     -48.474  12.843  23.048  0.00  0.00     0.194 A 
ATOM      2  C   UNL d   1     -49.472  12.704  22.025  0.00  0.00     0.156 A 
ATOM      3  N   UNL d   1     -48.795  12.425  22.404  0.00  0.00    -0.217 NA
ATOM      4  N   UNL d   1     -48.827  13.521  23.300  0.00  0.00    -0.221 NA
ATOM      5  C   UNL d   1     -49.510  13.800  22.916  0.00  0.00     0.085 A 
ATOM      6  C   UNL d   1     -49.826  13.383  22.278  0.00  0.00     0.042 A 
ENDROOT
BRANCH   1   7
ATOM      7  S   UNL d   1     -47.787  12.553  23.426  0.00  0.00    -0.043 SA
BRANCH   7   8
ATOM      8  C   UNL d   1     -47.037  12.803  23.186  0.00  0.00     0.099 C 
BRANCH   8   9
ATOM      9  C   UNL d   1     -46.395  12.287  23.232  0.00  0.00     0.272 C 
ATOM     10  N   UNL d   1     -45.695  12.452  22.813  0.00  0.00    -0.267 N 
ATOM     11  C   UNL d   1     -45.644  13.136  22.351  0.00  0.00     0.110 A 
ATOM     12  C   UNL d   1     -45.066  11.938  22.862  0.00  0.00     0.110 A 
ATOM     13  C   UNL d   1     -44.964  13.306  21.938  0.00  0.00     0.142 A 
ATOM     14  O   UNL d   1     -44.318  12.788  21.982  0.00  0.00    -0.300 OA
ATOM     15  C   UNL d   1     -44.369  12.104  22.444  0.00  0.00     0.142 A 
ATOM     16  O   UNL d   1     -46.447  11.596  23.698  0.00  0.00    -0.266 OA
ENDBRANCH   8   9
ENDBRANCH   7   8
ENDBRANCH   1   7
BRANCH   2  17
ATOM     17  C   UNL d   1     -49.773  12.278  21.392  0.00  0.00     0.435 C 
ATOM     18  F   UNL d   1     -50.084  11.839  20.753  0.00  0.00    -0.165 F 
ATOM     19  F   UNL d   1     -50.274  11.873  21.929  0.00  0.00    -0.165 F 
ATOM     20  F   UNL d   1     -49.272  12.683  20.861  0.00  0.00    -0.165 F 
ENDBRANCH   2  17
BRANCH   5  21
ATOM     21  C   UNL d   1     -49.876  14.503  23.178  0.00  0.00     0.018 A 
ATOM     22  C   UNL d   1     -50.674  14.493  23.422  0.00  0.00     0.002 A 
ATOM     23  C   UNL d   1     -51.034  15.186  23.680  0.00  0.00     0.000 A 
ATOM     24  C   UNL d   1     -50.603  15.900  23.698  0.00  0.00     0.000 A 
ATOM     25  C   UNL d   1     -49.818  15.916  23.459  0.00  0.00     0.000 A 
ATOM     26  C   UNL d   1     -49.446  15.202  23.193  0.00  0.00     0.002 A 
ENDBRANCH   5  21
TORSDOF 5
ENDMDL
MODEL 2
REMARK VINA RESULT:      -7.2      1.578      2.256
REMARK  5 active torsions:
REMARK  status: ('A' for Active; 'I' for Inactive)
REMARK    1  A    between atoms: S_10  and  C_1 
REMARK    2  A    between atoms: C_2  and  C_3 
REMARK    3  A    between atoms: C_13  and  C_6 
REMARK       I    between atoms: N_8  and  C_9 
REMARK    4  A    between atoms: C_9  and  C_11 
REMARK    5  A    between atoms: C_11  and  S_10 
ROOT
ATOM      1  C   UNL d   1     -47.541  13.270  23.179  0.00  0.00     0.194 A 
ATOM      2  C   UNL d   1     -48.358  14.299  22.600  0.00  0.00     0.156 A 
ATOM      3  N   UNL d   1     -47.613  14.005  22.798  0.00  0.00    -0.217 NA
ATOM      4  N   UNL d   1     -48.202  12.844  23.355  0.00  0.00    -0.221 NA
ATOM      5  C   UNL d   1     -48.952  13.143  23.154  0.00  0.00     0.085 A 
ATOM      6  C   UNL d   1     -49.019  13.873  22.775  0.00  0.00     0.042 A 
ENDROOT
BRANCH   1   7
ATOM      7  S   UNL d   1     -46.782  12.980  23.377  0.00  0.00    -0.043 SA
BRANCH   7   8
ATOM      8  C   UNL d   1     -46.223  12.825  22.787  0.00  0.00     0.099 C 
BRANCH   8   9
ATOM      9  C   UNL d   1     -45.589  12.322  22.941  0.00  0.00     0.272 C 
ATOM     10  N   UNL d   1     -44.890  12.381  22.494  0.00  0.00    -0.267 N 
ATOM     11  C   UNL d   1     -44.833  12.947  21.894  0.00  0.00     0.110 A 
ATOM     12  C   UNL d   1     -44.267  11.881  22.651  0.00  0.00     0.110 A 
ATOM     13  C   UNL d   1     -44.153  13.013  21.451  0.00  0.00     0.142 A 
ATOM     14  O   UNL d   1     -43.514  12.507  21.604  0.00  0.00    -0.300 OA
ATOM     15  C   UNL d   1     -43.571  11.941  22.204  0.00  0.00     0.142 A 
ATOM     16  O   UNL d   1     -45.646  11.750  23.547  0.00  0.00    -0.266 OA
ENDBRANCH   8   9
ENDBRANCH   7   8
ENDBRANCH   1   7
BRANCH   2  17
ATOM     17  C   UNL d   1     -48.407  15.026  22.224  0.00  0.00     0.435 C 
ATOM     18  F   UNL d   1     -48.456  15.770  21.849  0.00  0.00    -0.165 F 
ATOM     19  F   UNL d   1     -48.339  15.395  22.973  0.00  0.00    -0.165 F 
ATOM     20  F   UNL d   1     -48.474  14.654  21.478  0.00  0.00    -0.165 F 
ENDBRANCH   2  17
BRANCH   5  21
ATOM     21  C   UNL d   1     -49.637  12.702  23.336  0.00  0.00     0.018 A 
ATOM     22  C   UNL d   1     -49.601  11.869  23.370  0.00  0.00     0.002 A 
ATOM     23  C   UNL d   1     -50.275  11.435  23.549  0.00  0.00     0.000 A 
ATOM     24  C   UNL d   1     -50.997  11.826  23.698  0.00  0.00     0.000 A 
ATOM     25  C   UNL d   1     -51.039  12.645  23.666  0.00  0.00     0.000 A 
ATOM     26  C   UNL d   1     -50.344  13.093  23.481  0.00  0.00     0.002 A 
ENDBRANCH   5  21
TORSDOF 5
ENDMDL
MODEL 3
REMARK VINA RESULT:      -7.1      2.186      2.754
REMARK  5 active torsions:
REMARK  status: ('A' for Active; 'I' for Inactive)
REMARK    1  A    between atoms: S_10  and  C_1 
REMARK    2  A    between atoms: C_2  and  C_3 
REMARK    3  A    between atoms: C_13  and  C_6 
REMARK       I    between atoms: N_8  and  C_9 
REMARK    4  A    between atoms: C_9  and  C_11 
REMARK    5  A    between atoms: C_11  and  S_10 
ROOT
ATOM      1  C   UNL d   1     -47.168  12.424  23.278  0.00  0.00     0.194 A 
ATOM      2  C   UNL d   1     -47.247  13.781  22.815  0.00  0.00     0.156 A 
ATOM      3  N   UNL d   1     -46.815  13.167  23.155  0.00  0.00    -0.217 NA
ATOM      4  N   UNL d   1     -47.936  12.306  23.063  0.00  0.00    -0.221 NA
ATOM      5  C   UNL d   1     -48.369  12.928  22.721  0.00  0.00     0.085 A 
ATOM      6  C   UNL d   1     -48.015  13.663  22.600  0.00  0.00     0.042 A 
ENDROOT
BRANCH   1   7
ATOM      7  S   UNL d   1     -46.723  11.807  23.623  0.00  0.00    -0.043 SA
BRANCH   7   8
ATOM      8  C   UNL d   1     -45.993  11.584  23.304  0.00  0.00     0.099 C 
BRANCH   8   9
ATOM      9  C   UNL d   1     -45.680  10.839  23.469  0.00  0.00     0.272 C 
ATOM     10  N   UNL d   1     -44.861  10.707  23.410  0.00  0.00    -0.267 N 
ATOM     11  C   UNL d   1     -44.361  11.326  23.184  0.00  0.00     0.110 A 
ATOM     12  C   UNL d   1     -44.559   9.970  23.574  0.00  0.00     0.110 A 
ATOM     13  C   UNL d   1     -43.558  11.206  23.124  0.00  0.00     0.142 A 
ATOM     14  O   UNL d   1     -43.241  10.458  23.289  0.00  0.00    -0.300 OA
ATOM     15  C   UNL d   1     -43.742   9.840  23.515  0.00  0.00     0.142 A 
ATOM     16  O   UNL d   1     -46.186  10.215  23.697  0.00  0.00    -0.266 OA
ENDBRANCH   8   9
ENDBRANCH   7   8
ENDBRANCH   1   7
BRANCH   2  17
ATOM     17  C   UNL d   1     -46.880  14.506  22.702  0.00  0.00     0.435 C 
ATOM     18  F   UNL d   1     -46.502  15.240  22.581  0.00  0.00    -0.165 F 
ATOM     19  F   UNL d   1     -46.437  14.161  22.080  0.00  0.00    -0.165 F 
ATOM     20  F   UNL d   1     -47.325  14.845  23.324  0.00  0.00    -0.165 F 
ENDBRANCH   2  17
BRANCH   5  21
ATOM     21  C   UNL d   1     -49.165  12.806  22.498  0.00  0.00     0.018 A 
ATOM     22  C   UNL d   1     -49.747  12.675  23.082  0.00  0.00     0.002 A 
ATOM     23  C   UNL d   1     -50.530  12.554  22.863  0.00  0.00     0.000 A 
ATOM     24  C   UNL d   1     -50.745  12.563  22.057  0.00  0.00     0.000 A 
ATOM     25  C   UNL d   1     -50.177  12.691  21.478  0.00  0.00     0.000 A 
ATOM     26  C   UNL d   1     -49.370  12.815  21.704  0.00  0.00     0.002 A 
ENDBRANCH   5  21
TORSDOF 5
ENDMDL
MODEL 4
REMARK VINA RESULT:      -6.3      9.452     10.356
REMARK  5 active torsions:
REMARK  status: ('A' for Active; 'I' for Inactive)
REMARK    1  A    between atoms: S_10  and  C_1 
REMARK    2  A    between atoms: C_2  and  C_3 
REMARK    3  A    between atoms: C_13  and  C_6 
REMARK       I    between atoms: N_8  and  C_9 
REMARK    4  A    between atoms: C_9  and  C_11 
REMARK    5  A    between atoms: C_11  and  S_10 
ROOT
ATOM      1  C   UNL d   1     -38.547  14.296  18.958  0.00  0.00     0.194 A 
ATOM      2  C   UNL d   1     -38.600  13.306  17.920  0.00  0.00     0.156 A 
ATOM      3  N   UNL d   1     -38.290  13.574  18.635  0.00  0.00    -0.217 NA
ATOM      4  N   UNL d   1     -39.100  14.735  18.568  0.00  0.00    -0.221 NA
ATOM      5  C   UNL d   1     -39.410  14.461  17.847  0.00  0.00     0.085 A 
ATOM      6  C   UNL d   1     -39.153  13.744  17.530  0.00  0.00     0.042 A 
ENDROOT
BRANCH   1   7
ATOM      7  S   UNL d   1     -38.228  14.561  19.684  0.00  0.00    -0.043 SA
BRANCH   7   8
ATOM      8  C   UNL d   1     -38.553  14.313  20.402  0.00  0.00     0.099 C 
BRANCH   8   9
ATOM      9  C   UNL d   1     -38.354  14.701  21.102  0.00  0.00     0.272 C 
ATOM     10  N   UNL d   1     -38.564  14.374  21.837  0.00  0.00    -0.267 N 
ATOM     11  C   UNL d   1     -38.975  13.656  21.864  0.00  0.00     0.110 A 
ATOM     12  C   UNL d   1     -38.365  14.762  22.524  0.00  0.00     0.110 A 
ATOM     13  C   UNL d   1     -39.185  13.328  22.578  0.00  0.00     0.142 A 
ATOM     14  O   UNL d   1     -38.986  13.717  23.283  0.00  0.00    -0.300 OA
ATOM     15  C   UNL d   1     -38.575  14.434  23.256  0.00  0.00     0.142 A 
ATOM     16  O   UNL d   1     -37.940  15.426  21.074  0.00  0.00    -0.266 OA
ENDBRANCH   8   9
ENDBRANCH   7   8
ENDBRANCH   1   7
BRANCH   2  17
ATOM     17  C   UNL d   1     -38.334  12.591  17.619  0.00  0.00     0.435 C 
ATOM     18  F   UNL d   1     -38.059  11.867  17.306  0.00  0.00    -0.165 F 
ATOM     19  F   UNL d   1     -37.961  13.014  16.998  0.00  0.00    -0.165 F 
ATOM     20  F   UNL d   1     -38.708  12.173  18.239  0.00  0.00    -0.165 F 
ENDBRANCH   2  17
BRANCH   5  21
ATOM     21  C   UNL d   1     -39.983  14.915  17.443  0.00  0.00     0.018 A 
ATOM     22  C   UNL d   1     -40.794  14.812  17.613  0.00  0.00     0.002 A 
ATOM     23  C   UNL d   1     -41.358  15.259  17.216  0.00  0.00     0.000 A 
ATOM     24  C   UNL d   1     -41.121  15.816  16.641  0.00  0.00     0.000 A 
ATOM     25  C   UNL d   1     -40.326  15.922  16.469  0.00  0.00     0.000 A 
ATOM     26  C   UNL d   1     -39.744  15.461  16.879  0.00  0.00     0.002 A 
ENDBRANCH   5  21
TORSDOF 5
ENDMDL
MODEL 5
REMARK VINA RESULT:      -5.1      2.077      5.016
REMARK  5 active torsions:
REMARK  status: ('A' for Active; 'I' for Inactive)
REMARK    1  A    between atoms: S_10  and  C_1 
REMARK    2  A    between atoms: C_2  and  C_3 
REMARK    3  A    between atoms: C_13  and  C_6 
REMARK       I    between atoms: N_8  and  C_9 
REMARK    4  A    between atoms: C_9  and  C_11 
REMARK    5  A    between atoms: C_11  and  S_10 
ROOT
ATOM      1  C   UNL d   1     -46.615  13.371  22.863  0.00  0.00     0.194 A 
ATOM      2  C   UNL d   1     -46.572  11.956  23.103  0.00  0.00     0.156 A 
ATOM      3  N   UNL d   1     -46.975  12.675  23.142  0.00  0.00    -0.217 NA
ATOM      4  N   UNL d   1     -45.872  13.341  22.552  0.00  0.00    -0.221 NA
ATOM      5  C   UNL d   1     -45.470  12.614  22.514  0.00  0.00     0.085 A 
ATOM      6  C   UNL d   1     -45.829  11.926  22.793  0.00  0.00     0.042 A 
ENDROOT
BRANCH   1   7
ATOM      7  S   UNL d   1     -47.030  14.096  22.906  0.00  0.00    -0.043 SA
BRANCH   7   8
ATOM      8  C   UNL d   1     -47.857  14.110  22.896  0.00  0.00     0.099 C 
BRANCH   8   9
ATOM      9  C   UNL d   1     -48.256  14.824  22.797  0.00  0.00     0.272 C 
ATOM     10  N   UNL d   1     -49.073  14.871  22.950  0.00  0.00    -0.267 N 
ATOM     11  C   UNL d   1     -49.483  14.199  23.201  0.00  0.00     0.110 A 
ATOM     12  C   UNL d   1     -49.462  15.579  22.851  0.00  0.00     0.110 A 
ATOM     13  C   UNL d   1     -50.281  14.235  23.353  0.00  0.00     0.142 A 
ATOM     14  O   UNL d   1     -50.685  14.952  23.255  0.00  0.00    -0.300 OA
ATOM     15  C   UNL d   1     -50.275  15.625  23.003  0.00  0.00     0.142 A 
ATOM     16  O   UNL d   1     -47.842  15.503  22.543  0.00  0.00    -0.266 OA
ENDBRANCH   8   9
ENDBRANCH   7   8
ENDBRANCH   1   7
BRANCH   2  17
ATOM     17  C   UNL d   1     -46.944  11.281  23.384  0.00  0.00     0.435 C 
ATOM     18  F   UNL d   1     -47.330  10.597  23.667  0.00  0.00    -0.165 F 
ATOM     19  F   UNL d   1     -47.665  11.571  23.068  0.00  0.00    -0.165 F 
ATOM     20  F   UNL d   1     -46.224  10.996  23.698  0.00  0.00    -0.165 F 
ENDBRANCH   2  17
BRANCH   5  21
ATOM     21  C   UNL d   1     -44.699  12.583  22.193  0.00  0.00     0.018 A 
ATOM     22  C   UNL d   1     -44.104  12.142  22.576  0.00  0.00     0.002 A 
ATOM     23  C   UNL d   1     -43.346  12.111  22.260  0.00  0.00     0.000 A 
ATOM     24  C   UNL d   1     -43.170  12.522  21.555  0.00  0.00     0.000 A 
ATOM     25  C   UNL d   1     -43.752  12.958  21.173  0.00  0.00     0.000 A 
ATOM     26  C   UNL d   1     -44.534  12.989  21.499  0.00  0.00     0.002 A 
ENDBRANCH   5  21
TORSDOF 5
ENDMDL
MODEL 6
REMARK VINA RESULT:      -5.1      2.615      5.521
REMARK  5 active torsions:
REMARK  status: ('A' for Active; 'I' for Inactive)
REMARK    1  A    between atoms: S_10  and  C_1 
REMARK    2  A    between atoms: C_2  and  C_3 
REMARK    3  A    between atoms: C_13  and  C_6 
REMARK       I    between atoms: N_8  and  C_9 
REMARK    4  A    between atoms: C_9  and  C_11 
REMARK    5  A    between atoms: C_11  and  S_10 
ROOT
ATOM      1  C   UNL d   1     -45.459  13.002  22.550  0.00  0.00     0.194 A 
ATOM      2  C   UNL d   1     -44.198  12.919  21.867  0.00  0.00     0.156 A 
ATOM      3  N   UNL d   1     -44.890  13.333  22.041  0.00  0.00    -0.217 NA
ATOM      4  N   UNL d   1     -45.332  12.275  22.873  0.00  0.00    -0.221 NA
ATOM      5  C   UNL d   1     -44.633  11.860  22.696  0.00  0.00     0.085 A 
ATOM      6  C   UNL d   1     -44.071  12.191  22.191  0.00  0.00     0.042 A 
ENDROOT
BRANCH   1   7
ATOM      7  S   UNL d   1     -46.157  13.428  22.720  0.00  0.00    -0.043 SA
BRANCH   7   8
ATOM      8  C   UNL d   1     -46.858  13.271  22.311  0.00  0.00     0.099 C 
BRANCH   8   9
ATOM      9  C   UNL d   1     -47.539  13.706  22.475  0.00  0.00     0.272 C 
ATOM     10  N   UNL d   1     -48.260  13.508  22.110  0.00  0.00    -0.267 N 
ATOM     11  C   UNL d   1     -48.292  12.873  21.581  0.00  0.00     0.110 A 
ATOM     12  C   UNL d   1     -48.928  13.941  22.277  0.00  0.00     0.110 A 
ATOM     13  C   UNL d   1     -48.992  12.672  21.219  0.00  0.00     0.142 A 
ATOM     14  O   UNL d   1     -49.678  13.107  21.383  0.00  0.00    -0.300 OA
ATOM     15  C   UNL d   1     -49.646  13.742  21.912  0.00  0.00     0.142 A 
ATOM     16  O   UNL d   1     -47.507  14.347  23.010  0.00  0.00    -0.266 OA
ENDBRANCH   8   9
ENDBRANCH   7   8
ENDBRANCH   1   7
BRANCH   2  17
ATOM     17  C   UNL d   1     -43.649  13.262  21.363  0.00  0.00     0.435 C 
ATOM     18  F   UNL d   1     -43.095  13.607  20.844  0.00  0.00    -0.165 F 
ATOM     19  F   UNL d   1     -43.975  12.812  20.735  0.00  0.00    -0.165 F 
ATOM     20  F   UNL d   1     -43.329  13.709  21.993  0.00  0.00    -0.165 F 
ENDBRANCH   2  17
BRANCH   5  21
ATOM     21  C   UNL d   1     -44.502  11.107  23.031  0.00  0.00     0.018 A 
ATOM     22  C   UNL d   1     -43.735  10.778  23.033  0.00  0.00     0.002 A 
ATOM     23  C   UNL d   1     -43.605  10.037  23.363  0.00  0.00     0.000 A 
ATOM     24  C   UNL d   1     -44.241   9.611  23.696  0.00  0.00     0.000 A 
ATOM     25  C   UNL d   1     -44.998   9.928  23.697  0.00  0.00     0.000 A 
ATOM     26  C   UNL d   1     -45.131  10.693  23.357  0.00  0.00     0.002 A 
ENDBRANCH   5  21
TORSDOF 5
ENDMDL
MODEL 7
REMARK VINA RESULT:      -4.5      8.290     10.038
REMARK  5 active torsions:
REMARK  status: ('A' for Active; 'I' for Inactive)
REMARK    1  A    between atoms: S_10  and  C_1 
REMARK    2  A    between atoms: C_2  and  C_3 
REMARK    3  A    between atoms: C_13  and  C_6 
REMARK       I    between atoms: N_8  and  C_9 
REMARK    4  A    between atoms: C_9  and  C_11 
REMARK    5  A    between atoms: C_11  and  S_10 
ROOT
ATOM      1  C   UNL d   1     -38.642  14.342  20.111  0.00  0.00     0.194 A 
ATOM      2  C   UNL d   1     -38.705  13.863  21.463  0.00  0.00     0.156 A 
ATOM      3  N   UNL d   1     -38.288  13.958  20.758  0.00  0.00    -0.217 NA
ATOM      4  N   UNL d   1     -39.395  14.623  20.175  0.00  0.00    -0.221 NA
ATOM      5  C   UNL d   1     -39.812  14.526  20.888  0.00  0.00     0.085 A 
ATOM      6  C   UNL d   1     -39.458  14.144  21.528  0.00  0.00     0.042 A 
ENDROOT
BRANCH   1   7
ATOM      7  S   UNL d   1     -38.212  14.434  19.400  0.00  0.00    -0.043 SA
BRANCH   7   8
ATOM      8  C   UNL d   1     -38.231  13.846  18.818  0.00  0.00     0.099 C 
BRANCH   8   9
ATOM      9  C   UNL d   1     -38.146  14.049  18.023  0.00  0.00     0.272 C 
ATOM     10  N   UNL d   1     -38.084  13.456  17.444  0.00  0.00    -0.267 N 
ATOM     11  C   UNL d   1     -38.108  12.660  17.667  0.00  0.00     0.110 A 
ATOM     12  C   UNL d   1     -38.001  13.662  16.661  0.00  0.00     0.110 A 
ATOM     13  C   UNL d   1     -38.049  12.072  17.108  0.00  0.00     0.142 A 
ATOM     14  O   UNL d   1     -37.964  12.274  16.309  0.00  0.00    -0.300 OA
ATOM     15  C   UNL d   1     -37.940  13.069  16.085  0.00  0.00     0.142 A 
ATOM     16  O   UNL d   1     -38.121  14.853  17.797  0.00  0.00    -0.266 OA
ENDBRANCH   8   9
ENDBRANCH   7   8
ENDBRANCH   1   7
BRANCH   2  17
ATOM     17  C   UNL d   1     -38.338  13.481  22.089  0.00  0.00     0.435 C 
ATOM     18  F   UNL d   1     -37.963  13.100  22.731  0.00  0.00    -0.165 F 
ATOM     19  F   UNL d   1     -38.247  14.226  22.464  0.00  0.00    -0.165 F 
ATOM     20  F   UNL d   1     -38.430  12.741  21.712  0.00  0.00    -0.165 F 
ENDBRANCH   2  17
BRANCH   5  21
ATOM     21  C   UNL d   1     -40.592  14.817  20.955  0.00  0.00     0.018 A 
ATOM     22  C   UNL d   1     -41.235  14.286  20.981  0.00  0.00     0.002 A 
ATOM     23  C   UNL d   1     -42.003  14.572  21.047  0.00  0.00     0.000 A 
ATOM     24  C   UNL d   1     -42.140  15.394  21.087  0.00  0.00     0.000 A 
ATOM     25  C   UNL d   1     -41.512  15.922  21.062  0.00  0.00     0.000 A 
ATOM     26  C   UNL d   1     -40.720  15.627  20.994  0.00  0.00     0.002 A 
ENDBRANCH   5  21
TORSDOF 5
ENDMDL
