MODEL 1
REMARK VINA RESULT:      11.7      0.000      0.000
REMARK  5 active torsions:
REMARK  status: ('A' for Active; 'I' for Inactive)
REMARK    1  A    between atoms: O_4  and  C_1 
REMARK    2  A    between atoms: C_11  and  C_2 
REMARK    3  A    between atoms: C_5  and  O_4 
REMARK    4  A    between atoms: C_7  and  C_5 
REMARK    5  A    between atoms: N_10  and  C_11 
ROOT
ATOM      1  C   UNL d   1     -41.591-121.796 -51.714  0.00  0.00     0.122 A 
ATOM      2  C   UNL d   1     -41.618-122.051 -52.506  0.00  0.00     0.043 A 
ATOM      3  C   UNL d   1     -41.433-120.999 -51.540  0.00  0.00     0.105 A 
ATOM      4  C   UNL d   1     -41.304-120.459 -52.167  0.00  0.00     0.030 A 
ATOM      5  C   UNL d   1     -41.334-120.727 -52.956  0.00  0.00     0.059 A 
ATOM      6  C   UNL d   1     -41.495-121.537 -53.103  0.00  0.00     0.015 A 
ATOM      7  N   UNL d   1     -41.406-120.749 -50.775  0.00  0.00    -0.242 NA
ATOM      8 CL   UNL d   1     -41.208-120.204 -53.563  0.00  0.00    -0.082 Cl
ATOM      9  C   UNL d   1     -41.149-119.680 -52.016  0.00  0.00     0.004 A 
ATOM     10  C   UNL d   1     -41.247-119.948 -50.618  0.00  0.00     0.099 A 
ATOM     11  C   UNL d   1     -41.124-119.434 -51.214  0.00  0.00     0.021 A 
ENDROOT
BRANCH   1  12
ATOM     12  O   UNL d   1     -41.717-122.323 -51.103  0.00  0.00    -0.271 OA
BRANCH  12  13
ATOM     13  C   UNL d   1     -42.423-122.340 -50.696  0.00  0.00     0.306 C 
ATOM     14  O   UNL d   1     -43.010-121.791 -50.912  0.00  0.00    -0.258 OA
BRANCH  13  15
ATOM     15  C   UNL d   1     -42.543-122.879 -50.101  0.00  0.00     0.093 A 
ATOM     16  S   UNL d   1     -43.222-123.276 -49.969  0.00  0.00    -0.081 SA
ATOM     17  C   UNL d   1     -43.108-123.769 -49.307  0.00  0.00     0.036 A 
ATOM     18  C   UNL d   1     -42.351-123.662 -49.046  0.00  0.00     0.008 A 
ATOM     19  C   UNL d   1     -41.990-123.084 -49.564  0.00  0.00     0.012 A 
ENDBRANCH  13  15
ENDBRANCH  12  13
ENDBRANCH   1  12
BRANCH   2  20
ATOM     20  C   UNL d   1     -41.777-122.858 -52.694  0.00  0.00     0.082 C 
BRANCH  20  21
ATOM     21  N   UNL d   1     -41.781-123.100 -53.503  0.00  0.00    -0.300 N 
ATOM     22  C   UNL d   1     -41.144-123.556 -53.777  0.00  0.00     0.100 A 
ATOM     23  C   UNL d   1     -41.141-123.796 -54.562  0.00  0.00     0.100 A 
ATOM     24  N   UNL d   1     -41.767-123.581 -55.067  0.00  0.00    -0.299 N 
ATOM     25  C   UNL d   1     -42.371-123.136 -54.765  0.00  0.00     0.100 A 
ATOM     26  C   UNL d   1     -41.779-123.815 -55.865  0.00  0.00     0.100 C 
ATOM     27  C   UNL d   1     -42.392-122.890 -53.995  0.00  0.00     0.100 A 
ENDBRANCH  20  21
ENDBRANCH   2  20
TORSDOF 5
ENDMDL
MODEL 2
REMARK VINA RESULT:      13.3      1.634      2.680
REMARK  5 active torsions:
REMARK  status: ('A' for Active; 'I' for Inactive)
REMARK    1  A    between atoms: O_4  and  C_1 
REMARK    2  A    between atoms: C_11  and  C_2 
REMARK    3  A    between atoms: C_5  and  O_4 
REMARK    4  A    between atoms: C_7  and  C_5 
REMARK    5  A    between atoms: N_10  and  C_11 
ROOT
ATOM      1  C   UNL d   1     -42.460-122.715 -50.464  0.00  0.00     0.122 A 
ATOM      2  C   UNL d   1     -42.324-122.341 -51.195  0.00  0.00     0.043 A 
ATOM      3  C   UNL d   1     -43.230-122.750 -50.153  0.00  0.00     0.105 A 
ATOM      4  C   UNL d   1     -43.862-122.406 -50.581  0.00  0.00     0.030 A 
ATOM      5  C   UNL d   1     -43.712-122.034 -51.311  0.00  0.00     0.059 A 
ATOM      6  C   UNL d   1     -42.926-122.013 -51.602  0.00  0.00     0.015 A 
ATOM      7  N   UNL d   1     -43.365-123.112 -49.446  0.00  0.00    -0.242 NA
ATOM      8 CL   UNL d   1     -44.326-121.701 -51.726  0.00  0.00    -0.082 Cl
ATOM      9  C   UNL d   1     -44.617-122.431 -50.293  0.00  0.00     0.004 A 
ATOM     10  C   UNL d   1     -44.142-123.138 -49.148  0.00  0.00     0.099 A 
ATOM     11  C   UNL d   1     -44.744-122.811 -49.556  0.00  0.00     0.021 A 
ENDROOT
BRANCH   1  12
ATOM     12  O   UNL d   1     -41.843-123.050 -50.047  0.00  0.00    -0.271 OA
BRANCH  12  13
ATOM     13  C   UNL d   1     -41.439-122.632 -49.476  0.00  0.00     0.306 C 
ATOM     14  O   UNL d   1     -41.149-121.879 -49.679  0.00  0.00    -0.258 OA
BRANCH  13  15
ATOM     15  C   UNL d   1     -41.326-122.946 -48.736  0.00  0.00     0.093 A 
ATOM     16  S   UNL d   1     -41.218-123.718 -48.575  0.00  0.00    -0.081 SA
ATOM     17  C   UNL d   1     -41.125-123.800 -47.751  0.00  0.00     0.036 A 
ATOM     18  C   UNL d   1     -41.179-123.063 -47.422  0.00  0.00     0.008 A 
ATOM     19  C   UNL d   1     -41.309-122.514 -48.066  0.00  0.00     0.012 A 
ENDBRANCH  13  15
ENDBRANCH  12  13
ENDBRANCH   1  12
BRANCH   2  20
ATOM     20  C   UNL d   1     -41.547-122.299 -51.519  0.00  0.00     0.082 C 
BRANCH  20  21
ATOM     21  N   UNL d   1     -41.439-122.425 -52.347  0.00  0.00    -0.300 N 
ATOM     22  C   UNL d   1     -41.388-121.758 -52.840  0.00  0.00     0.100 A 
ATOM     23  C   UNL d   1     -41.283-121.872 -53.646  0.00  0.00     0.100 A 
ATOM     24  N   UNL d   1     -41.229-122.643 -53.956  0.00  0.00    -0.299 N 
ATOM     25  C   UNL d   1     -41.283-123.268 -53.446  0.00  0.00     0.100 A 
ATOM     26  C   UNL d   1     -41.123-122.775 -54.770  0.00  0.00     0.100 C 
ATOM     27  C   UNL d   1     -41.386-123.177 -52.650  0.00  0.00     0.100 A 
ENDBRANCH  20  21
ENDBRANCH   2  20
TORSDOF 5
ENDMDL
