MODEL 1
REMARK VINA RESULT:     149.7      0.000      0.000
REMARK  3 active torsions:
REMARK  status: ('A' for Active; 'I' for Inactive)
REMARK       I    between atoms: C_6  and  N_1 
REMARK    1  A    between atoms: C_11  and  C_5 
REMARK    2  A    between atoms: C_12  and  C_6 
REMARK    3  A    between atoms: C_14  and  C_15 
ROOT
ATOM      1  N   UNL d   1     -55.785-101.793 -43.567  0.00  0.00    -0.264 N 
ATOM      2  C   UNL d   1     -55.883-101.737 -44.388  0.00  0.00     0.198 A 
ATOM      3  C   UNL d   1     -56.327-101.299 -43.213  0.00  0.00     0.138 A 
ATOM      4  N   UNL d   1     -56.485-101.208 -44.538  0.00  0.00    -0.243 NA
ATOM      5  C   UNL d   1     -56.763-100.934 -43.810  0.00  0.00     0.105 A 
ATOM      6  C   UNL d   1     -55.235-102.266 -43.153  0.00  0.00     0.263 C 
ATOM      7  C   UNL d   1     -56.103-101.570 -45.162  0.00  0.00     0.041 A 
ATOM      8  C   UNL d   1     -55.275-102.271 -44.241  0.00  0.00     0.041 A 
ATOM      9  S   UNL d   1     -56.421-101.184 -42.396  0.00  0.00    -0.058 SA
ATOM     10  N   UNL d   1     -55.104-102.476 -45.650  0.00  0.00    -0.302 N 
ATOM     11  O   UNL d   1     -54.712-102.747 -43.566  0.00  0.00    -0.267 OA
ATOM     12  C   UNL d   1     -54.884-102.643 -44.875  0.00  0.00     0.080 A 
ATOM     13  C   UNL d   1     -55.712-101.941 -45.797  0.00  0.00     0.080 A 
ATOM     14  C   UNL d   1     -54.716-102.843 -46.278  0.00  0.00     0.100 C 
ENDROOT
BRANCH   6  15
ATOM     15  C   UNL d   1     -55.222-102.248 -42.335  0.00  0.00     0.056 A 
ATOM     16  C   UNL d   1     -55.636-102.808 -41.901  0.00  0.00     0.004 A 
ATOM     17  C   UNL d   1     -55.621-102.786 -41.080  0.00  0.00    -0.004 A 
ATOM     18  C   UNL d   1     -55.188-102.201 -40.691  0.00  0.00    -0.023 A 
ATOM     19  C   UNL d   1     -54.774-101.640 -41.125  0.00  0.00    -0.004 A 
ATOM     20  C   UNL d   1     -54.791-101.664 -41.949  0.00  0.00     0.004 A 
BRANCH  18  21
ATOM     21  C   UNL d   1     -55.173-102.178 -39.864  0.00  0.00     0.019 C 
ATOM     22  C   UNL d   1     -54.717-101.485 -39.894  0.00  0.00     0.004 C 
ATOM     23  C   UNL d   1     -55.622-102.862 -39.833  0.00  0.00     0.004 C 
ATOM     24  C   UNL d   1     -55.155-102.154 -39.034  0.00  0.00     0.004 C 
ENDBRANCH  18  21
ENDBRANCH   6  15
BRANCH   5  25
ATOM     25  C   UNL d   1     -57.363-100.395 -43.659  0.00  0.00     0.020 A 
ATOM     26  C   UNL d   1     -57.184 -99.598 -43.520  0.00  0.00     0.004 A 
ATOM     27  C   UNL d   1     -57.792 -99.061 -43.369  0.00  0.00     0.030 A 
ATOM     28  C   UNL d   1     -58.578 -99.316 -43.357  0.00  0.00     0.140 A 
ATOM     29  C   UNL d   1     -58.752-100.110 -43.496  0.00  0.00     0.030 A 
ATOM     30  F   UNL d   1     -59.188 -98.769 -43.204  0.00  0.00    -0.204 F 
ATOM     31  C   UNL d   1     -58.153-100.649 -43.646  0.00  0.00     0.004 A 
ENDBRANCH   5  25
TORSDOF 3
ENDMDL
