MODEL 1
REMARK VINA RESULT:      49.0      0.000      0.000
REMARK  5 active torsions:
REMARK  status: ('A' for Active; 'I' for Inactive)
REMARK    1  A    between atoms: C_2  and  N_1 
REMARK       I    between atoms: C_3  and  N_1 
REMARK    2  A    between atoms: N_7  and  C_2 
REMARK    3  A    between atoms: C_4  and  C_3 
REMARK    4  A    between atoms: N_5  and  C_9 
REMARK    5  A    between atoms: C_17  and  N_7 
ROOT
ATOM      1  C   UNL d   1     -51.355  25.335  33.378  0.00  0.00     0.064 A 
ATOM      2  C   UNL d   1     -51.639  26.103  33.457  0.00  0.00     0.019 A 
ATOM      3  C   UNL d   1     -50.531  25.209  33.306  0.00  0.00     0.019 A 
ATOM      4  C   UNL d   1     -50.304  26.615  33.391  0.00  0.00     0.084 A 
ATOM      5  C   UNL d   1     -50.004  25.849  33.312  0.00  0.00     0.021 A 
ATOM      6  C   UNL d   1     -51.127  26.738  33.464  0.00  0.00     0.021 A 
ENDROOT
BRANCH   4   7
ATOM      7  N   UNL d   1     -49.801  27.246  33.398  0.00  0.00    -0.217 NA
BRANCH   7   8
ATOM      8  C   UNL d   1     -49.277  27.349  34.028  0.00  0.00     0.224 C 
ATOM      9  S   UNL d   1     -48.934  26.700  34.383  0.00  0.00    -0.037 SA
BRANCH   8  10
ATOM     10  N   UNL d   1     -49.104  28.127  34.294  0.00  0.00    -0.178 NA
ATOM     11  C   UNL d   1     -48.385  28.279  34.626  0.00  0.00     0.287 C 
ATOM     12  O   UNL d   1     -47.830  27.676  34.700  0.00  0.00    -0.265 OA
BRANCH  11  13
ATOM     13  C   UNL d   1     -48.206  29.025  34.887  0.00  0.00     0.087 A 
ATOM     14  S   UNL d   1     -47.756  29.207  35.550  0.00  0.00    -0.082 SA
ATOM     15  C   UNL d   1     -47.711  30.047  35.614  0.00  0.00     0.036 A 
ATOM     16  C   UNL d   1     -48.135  30.350  34.988  0.00  0.00     0.008 A 
ATOM     17  C   UNL d   1     -48.445  29.742  34.533  0.00  0.00     0.012 A 
ENDBRANCH  11  13
ENDBRANCH   8  10
ENDBRANCH   7   8
ENDBRANCH   4   7
BRANCH   1  18
ATOM     18  N   UNL d   1     -51.870  24.706  33.372  0.00  0.00    -0.300 N 
ATOM     19  C   UNL d   1     -52.676  24.834  33.314  0.00  0.00     0.107 A 
ATOM     20  C   UNL d   1     -53.208  24.202  33.307  0.00  0.00     0.142 A 
ATOM     21  O   UNL d   1     -52.928  23.434  33.358  0.00  0.00    -0.300 OA
ATOM     22  C   UNL d   1     -52.116  23.293  33.418  0.00  0.00     0.142 A 
ATOM     23  C   UNL d   1     -51.582  23.926  33.425  0.00  0.00     0.107 A 
ENDBRANCH   1  18
TORSDOF 5
ENDMDL
