MODEL 1
REMARK VINA RESULT:      49.6      0.000      0.000
REMARK  5 active torsions:
REMARK  status: ('A' for Active; 'I' for Inactive)
REMARK    1  A    between atoms: C_6  and  C_3 
REMARK    2  A    between atoms: C_7  and  C_6 
REMARK    3  A    between atoms: C_8  and  C_7 
REMARK    4  A    between atoms: O_16  and  C_10 
REMARK    5  A    between atoms: O_17  and  C_12 
ROOT
ATOM      1  C   UNL d   1     -55.798 -99.209 -45.274  0.00  0.00     0.198 C 
ATOM      2  O   UNL d   1     -55.797 -99.025 -46.081  0.00  0.00    -0.286 OA
ENDROOT
BRANCH   1   3
ATOM      3  C   UNL d   1     -55.110 -99.511 -44.920  0.00  0.00     0.067 C 
BRANCH   3   4
ATOM      4  C   UNL d   1     -55.026-100.323 -44.817  0.00  0.00     0.107 A 
ATOM      5  O   UNL d   1     -55.027-100.903 -45.417  0.00  0.00    -0.273 OA
ATOM      6  C   UNL d   1     -54.927-101.636 -45.065  0.00  0.00     0.300 A 
ATOM      7  C   UNL d   1     -54.863-101.521 -44.246  0.00  0.00     0.065 A 
ATOM      8  O   UNL d   1     -54.896-102.366 -45.454  0.00  0.00    -0.259 OA
ATOM      9  C   UNL d   1     -54.924-100.711 -44.097  0.00  0.00     0.028 A 
ATOM     10  C   UNL d   1     -54.758-102.051 -43.623  0.00  0.00     0.005 A 
ATOM     11  C   UNL d   1     -54.879-100.425 -43.317  0.00  0.00     0.002 A 
ATOM     12  C   UNL d   1     -54.774-100.956 -42.695  0.00  0.00     0.000 A 
ATOM     13  C   UNL d   1     -54.713-101.771 -42.850  0.00  0.00     0.000 A 
ENDBRANCH   3   4
ENDBRANCH   1   3
BRANCH   1  14
ATOM     14  C   UNL d   1     -56.474 -99.095 -44.820  0.00  0.00     0.041 A 
ATOM     15  C   UNL d   1     -57.214 -99.202 -45.162  0.00  0.00     0.029 A 
ATOM     16  C   UNL d   1     -57.899 -99.090 -44.716  0.00  0.00     0.116 A 
ATOM     17  C   UNL d   1     -57.840 -98.870 -43.922  0.00  0.00     0.116 A 
ATOM     18  C   UNL d   1     -57.092 -98.763 -43.580  0.00  0.00     0.026 A 
ATOM     19  C   UNL d   1     -56.415 -98.877 -44.033  0.00  0.00     0.005 A 
BRANCH  16  20
ATOM     20  O   UNL d   1     -58.639 -99.197 -45.059  0.00  0.00    -0.326 OA
ATOM     21  C   UNL d   1     -58.824 -98.815 -45.771  0.00  0.00     0.181 C 
ENDBRANCH  16  20
BRANCH  17  22
ATOM     22  O   UNL d   1     -58.517 -98.756 -43.468  0.00  0.00    -0.326 OA
ATOM     23  C   UNL d   1     -59.267 -98.794 -43.817  0.00  0.00     0.181 C 
ENDBRANCH  17  22
ENDBRANCH   1  14
TORSDOF 5
ENDMDL
