MODEL 1
REMARK VINA RESULT:      18.1      0.000      0.000
REMARK  4 active torsions:
REMARK  status: ('A' for Active; 'I' for Inactive)
REMARK    1  A    between atoms: C_4  and  S_1 
REMARK    2  A    between atoms: N_8  and  S_1 
REMARK    3  A    between atoms: C_5  and  C_11 
REMARK    4  A    between atoms: C_16  and  N_8 
ROOT
ATOM      1  C   UNL d   1      45.418 -15.749  44.518  0.00  0.00     0.021 A 
ATOM      2  C   UNL d   1      45.860 -17.084  44.218  0.00  0.00     0.094 A 
ATOM      3  C   UNL d   1      45.974 -16.270  44.172  0.00  0.00     0.021 A 
ATOM      4  C   UNL d   1      44.760 -16.051  44.903  0.00  0.00     0.002 A 
ATOM      5  C   UNL d   1      44.636 -16.872  44.955  0.00  0.00     0.002 A 
ATOM      6  C   UNL d   1      45.191 -17.394  44.609  0.00  0.00     0.020 A 
ENDROOT
BRANCH   2   7
ATOM      7  N   UNL d   1      46.402 -17.593  43.880  0.00  0.00    -0.158 NA
BRANCH   7   8
ATOM      8  S   UNL d   1      46.522 -18.340  44.203  0.00  0.00     0.287 S 
ATOM      9  O   UNL d   1      46.492 -18.025  44.954  0.00  0.00    -0.198 OA
ATOM     10  O   UNL d   1      46.642 -19.088  44.540  0.00  0.00    -0.198 OA
BRANCH   8  11
ATOM     11  C   UNL d   1      46.553 -18.667  43.447  0.00  0.00     0.133 A 
ATOM     12  C   UNL d   1      46.536 -19.485  43.356  0.00  0.00     0.155 A 
ATOM     13  C   UNL d   1      46.566 -19.819  42.607  0.00  0.00     0.060 A 
ATOM     14  F   UNL d   1      46.487 -19.974  44.019  0.00  0.00    -0.203 F 
ATOM     15  C   UNL d   1      46.615 -19.328  41.936  0.00  0.00     0.142 A 
ATOM     16  C   UNL d   1      46.632 -18.509  42.031  0.00  0.00     0.030 A 
ATOM     17  F   UNL d   1      46.646 -19.662  41.180  0.00  0.00    -0.204 F 
ATOM     18  C   UNL d   1      46.602 -18.180  42.778  0.00  0.00     0.018 A 
ENDBRANCH   8  11
ENDBRANCH   7   8
ENDBRANCH   2   7
BRANCH   1  19
ATOM     19  C   UNL d   1      45.533 -14.935  44.472  0.00  0.00     0.101 A 
ATOM     20  N   UNL d   1      45.125 -14.420  43.978  0.00  0.00    -0.221 NA
ATOM     21  C   UNL d   1      45.412 -13.651  44.107  0.00  0.00     0.179 A 
ATOM     22  S   UNL d   1      45.344 -12.869  43.891  0.00  0.00    -0.048 SA
ATOM     23  N   UNL d   1      46.006 -13.708  44.694  0.00  0.00    -0.282 N 
ATOM     24  C   UNL d   1      45.886 -12.428  44.331  0.00  0.00     0.057 A 
ATOM     25  C   UNL d   1      46.297 -12.945  44.829  0.00  0.00     0.089 A 
ATOM     26  C   UNL d   1      46.070 -14.506  44.910  0.00  0.00     0.101 A 
ENDBRANCH   1  19
TORSDOF 4
ENDMDL
MODEL 2
REMARK VINA RESULT:      18.2      2.411      4.955
REMARK  4 active torsions:
REMARK  status: ('A' for Active; 'I' for Inactive)
REMARK    1  A    between atoms: C_4  and  S_1 
REMARK    2  A    between atoms: N_8  and  S_1 
REMARK    3  A    between atoms: C_5  and  C_11 
REMARK    4  A    between atoms: C_16  and  N_8 
ROOT
ATOM      1  C   UNL d   1      46.135 -17.825  43.523  0.00  0.00     0.021 A 
ATOM      2  C   UNL d   1      45.876 -16.598  44.227  0.00  0.00     0.094 A 
ATOM      3  C   UNL d   1      46.001 -16.998  43.519  0.00  0.00     0.021 A 
ATOM      4  C   UNL d   1      46.140 -18.234  44.234  0.00  0.00     0.002 A 
ATOM      5  C   UNL d   1      46.014 -17.838  44.955  0.00  0.00     0.002 A 
ATOM      6  C   UNL d   1      45.881 -17.012  44.951  0.00  0.00     0.020 A 
ENDROOT
BRANCH   2   7
ATOM      7  N   UNL d   1      45.746 -15.792  44.224  0.00  0.00    -0.158 NA
BRANCH   7   8
ATOM      8  S   UNL d   1      45.076 -15.481  44.587  0.00  0.00     0.287 S 
ATOM      9  O   UNL d   1      44.781 -16.233  44.696  0.00  0.00    -0.198 OA
ATOM     10  O   UNL d   1      44.397 -15.180  44.954  0.00  0.00    -0.198 OA
BRANCH   8  11
ATOM     11  C   UNL d   1      45.366 -14.717  44.480  0.00  0.00     0.133 A 
ATOM     12  C   UNL d   1      44.966 -14.194  43.987  0.00  0.00     0.155 A 
ATOM     13  C   UNL d   1      45.248 -13.432  43.876  0.00  0.00     0.060 A 
ATOM     14  F   UNL d   1      44.277 -14.434  43.600  0.00  0.00    -0.203 F 
ATOM     15  C   UNL d   1      45.943 -13.186  44.264  0.00  0.00     0.142 A 
ATOM     16  C   UNL d   1      46.341 -13.713  44.758  0.00  0.00     0.030 A 
ATOM     17  F   UNL d   1      46.230 -12.418  44.154  0.00  0.00    -0.204 F 
ATOM     18  C   UNL d   1      46.058 -14.471  44.866  0.00  0.00     0.018 A 
ENDBRANCH   8  11
ENDBRANCH   7   8
ENDBRANCH   2   7
BRANCH   1  19
ATOM     19  C   UNL d   1      46.260 -18.225  42.815  0.00  0.00     0.101 A 
ATOM     20  N   UNL d   1      46.401 -19.031  42.738  0.00  0.00    -0.221 NA
ATOM     21  C   UNL d   1      46.497 -19.204  41.931  0.00  0.00     0.179 A 
ATOM     22  S   UNL d   1      46.640 -19.793  41.387  0.00  0.00    -0.048 SA
ATOM     23  N   UNL d   1      46.410 -18.482  41.515  0.00  0.00    -0.282 N 
ATOM     24  C   UNL d   1      46.646 -19.458  40.633  0.00  0.00     0.057 A 
ATOM     25  C   UNL d   1      46.504 -18.646  40.709  0.00  0.00     0.089 A 
ATOM     26  C   UNL d   1      46.264 -17.887  42.073  0.00  0.00     0.101 A 
ENDBRANCH   1  19
TORSDOF 4
ENDMDL
