MODEL 1
REMARK VINA RESULT:      32.3      0.000      0.000
REMARK  3 active torsions:
REMARK  status: ('A' for Active; 'I' for Inactive)
REMARK    1  A    between atoms: N_2  and  S_1 
REMARK    2  A    between atoms: C_3  and  S_1 
REMARK    3  A    between atoms: C_11  and  C_6 
ROOT
ATOM      1  C   UNL d   1     -51.837  25.458  33.668  0.00  0.00     0.104 A 
ATOM      2  C   UNL d   1     -52.913  24.206  33.848  0.00  0.00     0.000 A 
ATOM      3  C   UNL d   1     -52.573  25.589  34.016  0.00  0.00     0.013 A 
ATOM      4  C   UNL d   1     -51.640  24.701  33.410  0.00  0.00     0.013 A 
ATOM      5  C   UNL d   1     -52.176  24.077  33.499  0.00  0.00     0.001 A 
ATOM      6  C   UNL d   1     -53.108  24.966  34.106  0.00  0.00     0.001 A 
ENDROOT
BRANCH   1   7
ATOM      7  S   UNL d   1     -51.304  26.078  33.578  0.00  0.00     0.271 S 
ATOM      8  O   UNL d   1     -50.736  25.551  33.306  0.00  0.00    -0.200 OA
ATOM      9  O   UNL d   1     -51.880  26.613  33.855  0.00  0.00    -0.200 OA
BRANCH   7  10
ATOM     10  N   UNL d   1     -50.770  26.700  33.489  0.00  0.00    -0.229 N 
ATOM     11  C   UNL d   1     -51.041  27.460  33.424  0.00  0.00     0.092 A 
ATOM     12  C   UNL d   1     -50.495  28.096  33.333  0.00  0.00     0.020 A 
ATOM     13  C   UNL d   1     -49.697  27.950  33.309  0.00  0.00     0.003 A 
ATOM     14  C   UNL d   1     -49.426  27.170  33.376  0.00  0.00     0.020 A 
ATOM     15  C   UNL d   1     -49.947  26.564  33.463  0.00  0.00     0.092 A 
ENDBRANCH   7  10
ENDBRANCH   1   7
BRANCH   2  16
ATOM     16  C   UNL d   1     -53.444  23.588  33.937  0.00  0.00     0.000 C 
ATOM     17  C   UNL d   1     -53.919  23.362  33.306  0.00  0.00     0.000 C 
ATOM     18  C   UNL d   1     -53.504  23.190  34.657  0.00  0.00     0.000 C 
ENDBRANCH   2  16
TORSDOF 3
ENDMDL
