MODEL 1
REMARK VINA RESULT:      -3.5      0.000      0.000
REMARK  6 active torsions:
REMARK  status: ('A' for Active; 'I' for Inactive)
REMARK    1  A    between atoms: N_3  and  S_1 
REMARK    2  A    between atoms: C_7  and  S_1 
REMARK    3  A    between atoms: C_2  and  N_3 
REMARK    4  A    between atoms: N_8  and  C_5 
REMARK    5  A    between atoms: C_20  and  N_8 
REMARK    6  A    between atoms: C_13  and  C_20 
ROOT
ATOM      1  C   UNL d   1      58.585  -0.950  29.830  0.00  0.00     0.211 A 
ATOM      2  N   UNL d   1      59.046  -0.268  29.964  0.00  0.00    -0.222 NA
ATOM      3  C   UNL d   1      58.827  -1.502  29.254  0.00  0.00     0.200 A 
ATOM      4  N   UNL d   1      59.510  -1.364  28.831  0.00  0.00    -0.223 NA
ATOM      5  C   UNL d   1      59.738  -0.134  29.533  0.00  0.00     0.101 A 
ATOM      6  C   UNL d   1      59.967  -0.696  28.960  0.00  0.00     0.101 A 
ATOM      7  C   UNL d   1      60.680  -0.563  28.511  0.00  0.00     0.021 A 
ATOM      8  C   UNL d   1      60.211   0.556  29.663  0.00  0.00     0.021 A 
ATOM      9  C   UNL d   1      61.132   0.128  28.659  0.00  0.00     0.002 A 
ATOM     10  C   UNL d   1      60.890   0.680  29.235  0.00  0.00     0.002 A 
ENDROOT
BRANCH   1  11
ATOM     11  N   UNL d   1      57.936  -1.107  30.212  0.00  0.00    -0.136 NA
BRANCH  11  12
ATOM     12  S   UNL d   1      57.467  -0.566  30.586  0.00  0.00     0.287 S 
ATOM     13  O   UNL d   1      56.985   0.114  30.810  0.00  0.00    -0.198 OA
ATOM     14  O   UNL d   1      57.618  -0.263  29.856  0.00  0.00    -0.198 OA
BRANCH  12  15
ATOM     15  C   UNL d   1      57.149  -0.586  31.331  0.00  0.00     0.105 A 
ATOM     16  C   UNL d   1      56.734  -1.242  31.586  0.00  0.00     0.013 A 
ATOM     17  C   UNL d   1      56.394  -1.286  32.356  0.00  0.00     0.001 A 
ATOM     18  C   UNL d   1      56.491  -0.627  32.876  0.00  0.00     0.000 A 
ATOM     19  C   UNL d   1      56.905   0.035  32.630  0.00  0.00     0.001 A 
ATOM     20  C   UNL d   1      56.182  -0.618  33.632  0.00  0.00     0.000 C 
ATOM     21  C   UNL d   1      57.239   0.060  31.851  0.00  0.00     0.013 A 
ENDBRANCH  12  15
ENDBRANCH  11  12
ENDBRANCH   1  11
BRANCH   3  22
ATOM     22  N   UNL d   1      58.364  -2.135  29.156  0.00  0.00    -0.221 NA
BRANCH  22  23
ATOM     23  C   UNL d   1      58.191  -2.556  28.513  0.00  0.00     0.125 C 
BRANCH  23  24
ATOM     24  C   UNL d   1      58.301  -3.337  28.522  0.00  0.00     0.119 A 
ATOM     25  O   UNL d   1      57.740  -3.890  28.515  0.00  0.00    -0.304 OA
ATOM     26  C   UNL d   1      58.082  -4.583  28.528  0.00  0.00     0.123 A 
ATOM     27  C   UNL d   1      58.862  -4.474  28.543  0.00  0.00     0.029 A 
ATOM     28  C   UNL d   1      58.999  -3.702  28.539  0.00  0.00     0.028 A 
ENDBRANCH  23  24
ENDBRANCH  22  23
ENDBRANCH   3  22
TORSDOF 6
ENDMDL
MODEL 2
REMARK VINA RESULT:      -0.7      1.066      3.271
REMARK  6 active torsions:
REMARK  status: ('A' for Active; 'I' for Inactive)
REMARK    1  A    between atoms: N_3  and  S_1 
REMARK    2  A    between atoms: C_7  and  S_1 
REMARK    3  A    between atoms: C_2  and  N_3 
REMARK    4  A    between atoms: N_8  and  C_5 
REMARK    5  A    between atoms: C_20  and  N_8 
REMARK    6  A    between atoms: C_13  and  C_20 
ROOT
ATOM      1  C   UNL d   1      58.580  -2.095  29.426  0.00  0.00     0.211 A 
ATOM      2  N   UNL d   1      58.136  -2.769  29.218  0.00  0.00    -0.222 NA
ATOM      3  C   UNL d   1      59.412  -2.120  29.378  0.00  0.00     0.200 A 
ATOM      4  N   UNL d   1      59.776  -2.805  29.127  0.00  0.00    -0.223 NA
ATOM      5  C   UNL d   1      58.511  -3.460  28.965  0.00  0.00     0.101 A 
ATOM      6  C   UNL d   1      59.344  -3.471  28.921  0.00  0.00     0.101 A 
ATOM      7  C   UNL d   1      59.737  -4.181  28.661  0.00  0.00     0.021 A 
ATOM      8  C   UNL d   1      58.067  -4.149  28.752  0.00  0.00     0.021 A 
ATOM      9  C   UNL d   1      59.275  -4.850  28.455  0.00  0.00     0.002 A 
ATOM     10  C   UNL d   1      58.443  -4.825  28.504  0.00  0.00     0.002 A 
ENDROOT
BRANCH   1  11
ATOM     11  N   UNL d   1      58.265  -1.435  29.666  0.00  0.00    -0.136 NA
BRANCH  11  12
ATOM     12  S   UNL d   1      57.598  -1.368  30.115  0.00  0.00     0.287 S 
ATOM     13  O   UNL d   1      56.816  -1.444  30.473  0.00  0.00    -0.198 OA
ATOM     14  O   UNL d   1      57.447  -1.947  29.578  0.00  0.00    -0.198 OA
BRANCH  12  15
ATOM     15  C   UNL d   1      57.441  -0.872  30.737  0.00  0.00     0.105 A 
ATOM     16  C   UNL d   1      57.208  -1.175  31.459  0.00  0.00     0.013 A 
ATOM     17  C   UNL d   1      57.040  -0.680  32.120  0.00  0.00     0.001 A 
ATOM     18  C   UNL d   1      57.117   0.156  32.025  0.00  0.00     0.000 A 
ATOM     19  C   UNL d   1      57.350   0.470  31.305  0.00  0.00     0.001 A 
ATOM     20  C   UNL d   1      56.966   0.681  32.633  0.00  0.00     0.000 C 
ATOM     21  C   UNL d   1      57.515  -0.045  30.652  0.00  0.00     0.013 A 
ENDBRANCH  12  15
ENDBRANCH  11  12
ENDBRANCH   1  11
BRANCH   3  22
ATOM     22  N   UNL d   1      59.798  -1.462  29.583  0.00  0.00    -0.221 NA
BRANCH  22  23
ATOM     23  C   UNL d   1      60.559  -1.268  29.525  0.00  0.00     0.125 C 
BRANCH  23  24
ATOM     24  C   UNL d   1      60.784  -0.531  29.697  0.00  0.00     0.119 A 
ATOM     25  O   UNL d   1      60.907  -0.234  30.415  0.00  0.00    -0.304 OA
ATOM     26  C   UNL d   1      61.121   0.506  30.339  0.00  0.00     0.123 A 
ATOM     27  C   UNL d   1      61.133   0.681  29.571  0.00  0.00     0.029 A 
ATOM     28  C   UNL d   1      60.925   0.039  29.172  0.00  0.00     0.028 A 
ENDBRANCH  23  24
ENDBRANCH  22  23
ENDBRANCH   3  22
TORSDOF 6
ENDMDL
MODEL 3
REMARK VINA RESULT:      -0.6      1.394      3.943
REMARK  6 active torsions:
REMARK  status: ('A' for Active; 'I' for Inactive)
REMARK    1  A    between atoms: N_3  and  S_1 
REMARK    2  A    between atoms: C_7  and  S_1 
REMARK    3  A    between atoms: C_2  and  N_3 
REMARK    4  A    between atoms: N_8  and  C_5 
REMARK    5  A    between atoms: C_20  and  N_8 
REMARK    6  A    between atoms: C_13  and  C_20 
ROOT
ATOM      1  C   UNL d   1      58.470  -0.033  30.571  0.00  0.00     0.211 A 
ATOM      2  N   UNL d   1      59.283   0.079  30.424  0.00  0.00    -0.222 NA
ATOM      3  C   UNL d   1      58.178   0.055  31.347  0.00  0.00     0.200 A 
ATOM      4  N   UNL d   1      58.693   0.250  31.948  0.00  0.00    -0.223 NA
ATOM      5  C   UNL d   1      59.800   0.277  31.037  0.00  0.00     0.101 A 
ATOM      6  C   UNL d   1      59.493   0.362  31.808  0.00  0.00     0.101 A 
ATOM      7  C   UNL d   1      60.022   0.565  32.445  0.00  0.00     0.021 A 
ATOM      8  C   UNL d   1      60.627   0.392  30.894  0.00  0.00     0.021 A 
ATOM      9  C   UNL d   1      60.837   0.675  32.278  0.00  0.00     0.002 A 
ATOM     10  C   UNL d   1      61.130   0.586  31.502  0.00  0.00     0.002 A 
ENDROOT
BRANCH   1  11
ATOM     11  N   UNL d   1      57.960  -0.217  30.026  0.00  0.00    -0.136 NA
BRANCH  11  12
ATOM     12  S   UNL d   1      58.133  -0.556  29.314  0.00  0.00     0.287 S 
ATOM     13  O   UNL d   1      58.260  -0.737  28.479  0.00  0.00    -0.198 OA
ATOM     14  O   UNL d   1      57.880   0.190  29.149  0.00  0.00    -0.198 OA
BRANCH  12  15
ATOM     15  C   UNL d   1      58.410  -1.299  29.149  0.00  0.00     0.105 A 
ATOM     16  C   UNL d   1      59.146  -1.401  28.808  0.00  0.00     0.013 A 
ATOM     17  C   UNL d   1      59.455  -2.164  28.628  0.00  0.00     0.001 A 
ATOM     18  C   UNL d   1      58.984  -2.841  28.809  0.00  0.00     0.000 A 
ATOM     19  C   UNL d   1      58.246  -2.750  29.151  0.00  0.00     0.001 A 
ATOM     20  C   UNL d   1      59.236  -3.603  28.655  0.00  0.00     0.000 C 
ATOM     21  C   UNL d   1      57.952  -1.974  29.325  0.00  0.00     0.013 A 
ENDBRANCH  12  15
ENDBRANCH  11  12
ENDBRANCH   1  11
BRANCH   3  22
ATOM     22  N   UNL d   1      57.402  -0.059  31.447  0.00  0.00    -0.221 NA
BRANCH  22  23
ATOM     23  C   UNL d   1      56.903   0.221  31.988  0.00  0.00     0.125 C 
BRANCH  23  24
ATOM     24  C   UNL d   1      56.417  -0.277  32.360  0.00  0.00     0.119 A 
ATOM     25  O   UNL d   1      56.265  -1.022  32.159  0.00  0.00    -0.304 OA
ATOM     26  C   UNL d   1      55.761  -1.313  32.667  0.00  0.00     0.123 A 
ATOM     27  C   UNL d   1      55.591  -0.754  33.195  0.00  0.00     0.029 A 
ATOM     28  C   UNL d   1      55.998  -0.111  33.006  0.00  0.00     0.028 A 
ENDBRANCH  23  24
ENDBRANCH  22  23
ENDBRANCH   3  22
TORSDOF 6
ENDMDL
