MODEL 1
REMARK VINA RESULT:     291.7      0.000      0.000
REMARK  5 active torsions:
REMARK  status: ('A' for Active; 'I' for Inactive)
REMARK    1  A    between atoms: C_13  and  N_2 
REMARK    2  A    between atoms: C_10  and  N_4 
REMARK    3  A    between atoms: C_11  and  C_10 
REMARK       I    between atoms: N_15  and  C_11 
REMARK    4  A    between atoms: C_16  and  N_15 
REMARK    5  A    between atoms: O_21  and  C_19 
ROOT
ATOM      1  C   UNL d   1     -56.099 -99.382 -43.865  0.00  0.00     0.172 A 
ATOM      2  N   UNL d   1     -56.181 -99.555 -42.439  0.00  0.00    -0.226 N 
ATOM      3  C   UNL d   1     -57.020 -99.630 -42.514  0.00  0.00     0.342 A 
ATOM      4  N   UNL d   1     -57.372 -99.580 -43.250  0.00  0.00    -0.252 N 
ATOM      5  C   UNL d   1     -56.919 -99.457 -43.922  0.00  0.00     0.098 A 
ATOM      6  C   UNL d   1     -55.732 -99.432 -43.119  0.00  0.00     0.292 A 
ATOM      7  O   UNL d   1     -55.786 -99.264 -44.614  0.00  0.00    -0.301 OA
ATOM      8  C   UNL d   1     -57.091 -99.382 -44.721  0.00  0.00     0.041 A 
ATOM      9  C   UNL d   1     -56.391 -99.265 -45.130  0.00  0.00     0.102 A 
ATOM     10  O   UNL d   1     -57.495 -99.756 -41.831  0.00  0.00    -0.245 OA
ATOM     11  O   UNL d   1     -54.901 -99.356 -43.057  0.00  0.00    -0.264 OA
ATOM     12  C   UNL d   1     -57.816 -99.407 -45.130  0.00  0.00     0.004 A 
ATOM     13  C   UNL d   1     -56.403 -99.171 -45.954  0.00  0.00     0.025 A 
ATOM     14  C   UNL d   1     -57.828 -99.312 -45.955  0.00  0.00     0.000 A 
ATOM     15  C   UNL d   1     -57.121 -99.197 -46.349  0.00  0.00     0.002 A 
ENDROOT
BRANCH   4  16
ATOM     16  C   UNL d   1     -58.209 -99.654 -43.325  0.00  0.00     0.147 C 
BRANCH  16  17
ATOM     17  C   UNL d   1     -58.630-100.158 -42.785  0.00  0.00     0.297 C 
ATOM     18  N   UNL d   1     -58.361-100.910 -42.645  0.00  0.00    -0.207 NA
ATOM     19  O   UNL d   1     -59.308 -99.869 -42.414  0.00  0.00    -0.264 OA
BRANCH  18  20
ATOM     20  C   UNL d   1     -58.765-101.390 -42.128  0.00  0.00     0.087 A 
ATOM     21  C   UNL d   1     -59.119-101.055 -41.452  0.00  0.00     0.043 A 
ATOM     22  C   UNL d   1     -59.531-101.537 -40.922  0.00  0.00     0.096 A 
ATOM     23  C   UNL d   1     -59.590-102.356 -41.068  0.00  0.00     0.024 A 
ATOM     24  C   UNL d   1     -59.236-102.684 -41.742  0.00  0.00     0.004 A 
ATOM     25  C   UNL d   1     -58.828-102.203 -42.265  0.00  0.00     0.019 A 
BRANCH  22  26
ATOM     26  O   UNL d   1     -59.890-101.211 -40.241  0.00  0.00    -0.328 OA
ATOM     27  C   UNL d   1     -59.631-100.484 -39.950  0.00  0.00     0.181 C 
ENDBRANCH  22  26
ENDBRANCH  18  20
ENDBRANCH  16  17
ENDBRANCH   4  16
BRANCH   2  28
ATOM     28  C   UNL d   1     -55.808 -99.604 -41.696  0.00  0.00     0.071 A 
ATOM     29  C   UNL d   1     -56.142-100.060 -41.096  0.00  0.00     0.018 A 
ATOM     30  C   UNL d   1     -55.763-100.103 -40.355  0.00  0.00     0.002 A 
ATOM     31  C   UNL d   1     -55.072 -99.699 -40.231  0.00  0.00     0.000 A 
ATOM     32  C   UNL d   1     -54.738 -99.243 -40.830  0.00  0.00     0.002 A 
ATOM     33  C   UNL d   1     -55.110 -99.200 -41.556  0.00  0.00     0.018 A 
ENDBRANCH   2  28
TORSDOF 5
ENDMDL
