MODEL 1
REMARK VINA RESULT:      48.5      0.000      0.000
REMARK  6 active torsions:
REMARK  status: ('A' for Active; 'I' for Inactive)
REMARK    1  A    between atoms: S_2  and  C_1 
REMARK    2  A    between atoms: N_3  and  S_2 
REMARK    3  A    between atoms: C_17  and  N_3 
REMARK    4  A    between atoms: C_4  and  C_12 
REMARK    5  A    between atoms: O_20  and  C_4 
REMARK    6  A    between atoms: C_23  and  O_20 
ROOT
ATOM      1  S   UNL d   1      58.185  49.395  50.715  0.00  0.00     0.153 S 
ATOM      2  O   UNL d   1      58.091  48.661  51.035  0.00  0.00    -0.232 OA
ENDROOT
BRANCH   1   3
ATOM      3  C   UNL d   1      57.487  49.497  50.635  0.00  0.00     0.108 A 
ATOM      4  C   UNL d   1      57.776  49.448  49.958  0.00  0.00     0.023 A 
ATOM      5  C   UNL d   1      57.134  49.537  49.392  0.00  0.00     0.024 A 
ATOM      6  C   UNL d   1      56.364  49.650  49.352  0.00  0.00     0.009 A 
ATOM      7  C   UNL d   1      57.393  49.506  50.082  0.00  0.00    -0.027 A 
ATOM      8  C   UNL d   1      56.033  49.707  50.122  0.00  0.00     0.024 A 
ATOM      9  C   UNL d   1      56.533  49.638  50.614  0.00  0.00     0.023 A 
ATOM     10  C   UNL d   1      56.303  49.675  50.891  0.00  0.00    -0.027 A 
ATOM     11  C   UNL d   1      57.058  49.564  50.931  0.00  0.00    -0.012 A 
ATOM     12  C   UNL d   1      57.698  49.475  51.522  0.00  0.00    -0.013 A 
ENDBRANCH   1   3
BRANCH   1  13
ATOM     13  N   UNL d   1      58.951  49.708  50.615  0.00  0.00    -0.185 NA
BRANCH  13  14
ATOM     14  C   UNL d   1      59.616  49.199  50.646  0.00  0.00     0.091 A 
ATOM     15  C   UNL d   1      60.387  49.513  50.474  0.00  0.00     0.020 A 
ATOM     16  C   UNL d   1      61.011  49.034  50.503  0.00  0.00     0.007 A 
ATOM     17  C   UNL d   1      60.922  48.238  50.698  0.00  0.00     0.064 A 
ATOM     18  C   UNL d   1      60.179  47.921  50.868  0.00  0.00     0.007 A 
ATOM     19  C   UNL d   1      59.530  48.417  50.838  0.00  0.00     0.020 A 
BRANCH  17  20
ATOM     20  C   UNL d   1      61.606  47.733  50.726  0.00  0.00     0.300 C 
ATOM     21  O   UNL d   1      62.053  47.700  51.414  0.00  0.00    -0.259 OA
BRANCH  20  22
ATOM     22  O   UNL d   1      61.797  47.292  50.060  0.00  0.00    -0.271 OA
BRANCH  22  23
ATOM     23  C   UNL d   1      61.821  46.465  50.139  0.00  0.00     0.126 C 
ATOM     24  C   UNL d   1      61.618  46.000  49.480  0.00  0.00     0.029 C 
ENDBRANCH  22  23
ENDBRANCH  20  22
ENDBRANCH  17  20
ENDBRANCH  13  14
ENDBRANCH   1  13
TORSDOF 6
ENDMDL
