MODEL 1
REMARK VINA RESULT:      -3.2      0.000      0.000
REMARK  5 active torsions:
REMARK  status: ('A' for Active; 'I' for Inactive)
REMARK    1  A    between atoms: C_6  and  C_1 
REMARK    2  A    between atoms: C_7  and  C_6 
REMARK    3  A    between atoms: C_9  and  C_19 
REMARK       I    between atoms: N_17  and  C_9 
REMARK    4  A    between atoms: O_20  and  C_18 
REMARK    5  A    between atoms: C_19  and  O_20 
ROOT
ATOM      1  C   UNL d   1      31.387  17.100 -24.352  0.00  0.00     0.141 A 
ATOM      2  C   UNL d   1      32.376  17.516 -23.560  0.00  0.00     0.064 A 
ATOM      3  C   UNL d   1      32.043  16.849 -23.921  0.00  0.00     0.220 A 
ATOM      4  C   UNL d   1      31.920  18.176 -23.774  0.00  0.00     0.105 A 
ATOM      5  O   UNL d   1      31.306  17.916 -24.266  0.00  0.00    -0.304 OA
ATOM      6  C   UNL d   1      32.129  18.922 -23.490  0.00  0.00     0.050 A 
ATOM      7  C   UNL d   1      33.035  17.609 -23.065  0.00  0.00     0.007 A 
ATOM      8  O   UNL d   1      32.319  16.076 -23.857  0.00  0.00    -0.284 OA
ATOM      9  C   UNL d   1      32.785  19.012 -22.997  0.00  0.00     0.102 A 
ATOM     10  C   UNL d   1      33.235  18.360 -22.787  0.00  0.00     0.025 A 
ENDROOT
BRANCH   1  11
ATOM     11  C   UNL d   1      30.889  16.611 -24.801  0.00  0.00     0.053 C 
BRANCH  11  12
ATOM     12  C   UNL d   1      30.075  16.590 -24.642  0.00  0.00     0.102 A 
ATOM     13  O   UNL d   1      29.721  16.211 -24.001  0.00  0.00    -0.307 OA
ATOM     14  C   UNL d   1      28.910  16.332 -24.062  0.00  0.00     0.100 A 
ATOM     15  C   UNL d   1      28.335  16.049 -23.535  0.00  0.00     0.027 C 
ATOM     16  C   UNL d   1      28.758  16.783 -24.735  0.00  0.00     0.027 A 
ATOM     17  C   UNL d   1      29.492  16.942 -25.095  0.00  0.00     0.027 A 
ENDBRANCH  11  12
ENDBRANCH   1  11
BRANCH   9  18
ATOM     18  O   UNL d   1      32.988  19.765 -22.716  0.00  0.00    -0.300 OA
BRANCH  18  19
ATOM     19  C   UNL d   1      32.889  19.949 -21.928  0.00  0.00     0.187 C 
BRANCH  19  20
ATOM     20  C   UNL d   1      32.946  20.732 -21.676  0.00  0.00     0.323 C 
ATOM     21  O   UNL d   1      33.189  21.316 -22.198  0.00  0.00    -0.261 OA
ATOM     22  N   UNL d   1      32.756  20.928 -20.893  0.00  0.00    -0.083 NA
ATOM     23  N   UNL d   1      32.813  21.716 -20.637  0.00  0.00    -0.019 N 
ENDBRANCH  19  20
ENDBRANCH  18  19
ENDBRANCH   9  18
TORSDOF 5
ENDMDL
MODEL 2
REMARK VINA RESULT:      -2.3      0.761      1.078
REMARK  5 active torsions:
REMARK  status: ('A' for Active; 'I' for Inactive)
REMARK    1  A    between atoms: C_6  and  C_1 
REMARK    2  A    between atoms: C_7  and  C_6 
REMARK    3  A    between atoms: C_9  and  C_19 
REMARK       I    between atoms: N_17  and  C_9 
REMARK    4  A    between atoms: O_20  and  C_18 
REMARK    5  A    between atoms: C_19  and  O_20 
ROOT
ATOM      1  C   UNL d   1      31.990  17.614 -23.980  0.00  0.00     0.141 A 
ATOM      2  C   UNL d   1      32.694  18.166 -22.992  0.00  0.00     0.064 A 
ATOM      3  C   UNL d   1      32.528  17.452 -23.377  0.00  0.00     0.220 A 
ATOM      4  C   UNL d   1      32.255  18.765 -23.362  0.00  0.00     0.105 A 
ATOM      5  O   UNL d   1      31.819  18.420 -23.976  0.00  0.00    -0.304 OA
ATOM      6  C   UNL d   1      32.316  19.540 -23.088  0.00  0.00     0.050 A 
ATOM      7  C   UNL d   1      33.188  18.349 -22.351  0.00  0.00     0.007 A 
ATOM      8  O   UNL d   1      32.844  16.716 -23.189  0.00  0.00    -0.284 OA
ATOM      9  C   UNL d   1      32.808  19.720 -22.451  0.00  0.00     0.102 A 
ATOM     10  C   UNL d   1      33.241  19.128 -22.084  0.00  0.00     0.025 A 
ENDROOT
BRANCH   1  11
ATOM     11  C   UNL d   1      31.673  17.056 -24.507  0.00  0.00     0.053 C 
BRANCH  11  12
ATOM     12  C   UNL d   1      30.860  16.895 -24.500  0.00  0.00     0.102 A 
ATOM     13  O   UNL d   1      30.274  17.373 -24.828  0.00  0.00    -0.307 OA
ATOM     14  C   UNL d   1      29.552  17.004 -24.696  0.00  0.00     0.100 A 
ATOM     15  C   UNL d   1      28.809  17.288 -24.931  0.00  0.00     0.027 C 
ATOM     16  C   UNL d   1      29.685  16.299 -24.287  0.00  0.00     0.027 A 
ATOM     17  C   UNL d   1      30.507  16.236 -24.167  0.00  0.00     0.027 A 
ENDBRANCH  11  12
ENDBRANCH   1  11
BRANCH   9  18
ATOM     18  O   UNL d   1      32.863  20.502 -22.181  0.00  0.00    -0.300 OA
BRANCH  18  19
ATOM     19  C   UNL d   1      32.592  20.700 -21.437  0.00  0.00     0.187 C 
BRANCH  19  20
ATOM     20  C   UNL d   1      32.597  21.487 -21.191  0.00  0.00     0.323 C 
ATOM     21  O   UNL d   1      32.402  22.085 -21.718  0.00  0.00    -0.261 OA
ATOM     22  N   UNL d   1      32.801  21.673 -20.409  0.00  0.00    -0.083 NA
ATOM     23  N   UNL d   1      32.807  22.465 -20.159  0.00  0.00    -0.019 N 
ENDBRANCH  19  20
ENDBRANCH  18  19
ENDBRANCH   9  18
TORSDOF 5
ENDMDL
MODEL 3
REMARK VINA RESULT:      -2.1      2.511      4.867
REMARK  5 active torsions:
REMARK  status: ('A' for Active; 'I' for Inactive)
REMARK    1  A    between atoms: C_6  and  C_1 
REMARK    2  A    between atoms: C_7  and  C_6 
REMARK    3  A    between atoms: C_9  and  C_19 
REMARK       I    between atoms: N_17  and  C_9 
REMARK    4  A    between atoms: O_20  and  C_18 
REMARK    5  A    between atoms: C_19  and  O_20 
ROOT
ATOM      1  C   UNL d   1      32.622  18.460 -23.745  0.00  0.00     0.141 A 
ATOM      2  C   UNL d   1      32.035  17.481 -24.433  0.00  0.00     0.064 A 
ATOM      3  C   UNL d   1      32.667  18.016 -24.437  0.00  0.00     0.220 A 
ATOM      4  C   UNL d   1      31.603  17.601 -23.734  0.00  0.00     0.105 A 
ATOM      5  O   UNL d   1      31.969  18.210 -23.309  0.00  0.00    -0.304 OA
ATOM      6  C   UNL d   1      30.937  17.139 -23.585  0.00  0.00     0.050 A 
ATOM      7  C   UNL d   1      31.796  16.900 -24.974  0.00  0.00     0.007 A 
ATOM      8  O   UNL d   1      33.237  18.087 -25.028  0.00  0.00    -0.284 OA
ATOM      9  C   UNL d   1      30.701  16.561 -24.125  0.00  0.00     0.102 A 
ATOM     10  C   UNL d   1      31.128  16.442 -24.815  0.00  0.00     0.025 A 
ENDROOT
BRANCH   1  11
ATOM     11  C   UNL d   1      33.149  19.063 -23.524  0.00  0.00     0.053 C 
BRANCH  11  12
ATOM     12  C   UNL d   1      33.066  19.436 -22.787  0.00  0.00     0.102 A 
ATOM     13  O   UNL d   1      32.795  20.205 -22.667  0.00  0.00    -0.307 OA
ATOM     14  C   UNL d   1      32.803  20.345 -21.857  0.00  0.00     0.100 A 
ATOM     15  C   UNL d   1      32.574  21.048 -21.482  0.00  0.00     0.027 C 
ATOM     16  C   UNL d   1      33.077  19.668 -21.474  0.00  0.00     0.027 A 
ATOM     17  C   UNL d   1      33.241  19.101 -22.062  0.00  0.00     0.027 A 
ENDBRANCH  11  12
ENDBRANCH   1  11
BRANCH   9  18
ATOM     18  O   UNL d   1      30.030  16.100 -23.968  0.00  0.00    -0.300 OA
BRANCH  18  19
ATOM     19  C   UNL d   1      29.310  16.458 -23.826  0.00  0.00     0.187 C 
BRANCH  19  20
ATOM     20  C   UNL d   1      28.666  16.006 -23.580  0.00  0.00     0.323 C 
ATOM     21  O   UNL d   1      28.667  15.655 -22.839  0.00  0.00    -0.261 OA
ATOM     22  N   UNL d   1      28.015  15.907 -24.085  0.00  0.00    -0.083 NA
ATOM     23  N   UNL d   1      27.365  15.453 -23.840  0.00  0.00    -0.019 N 
ENDBRANCH  19  20
ENDBRANCH  18  19
ENDBRANCH   9  18
TORSDOF 5
ENDMDL
MODEL 4
REMARK VINA RESULT:      -2.0      2.635      5.615
REMARK  5 active torsions:
REMARK  status: ('A' for Active; 'I' for Inactive)
REMARK    1  A    between atoms: C_6  and  C_1 
REMARK    2  A    between atoms: C_7  and  C_6 
REMARK    3  A    between atoms: C_9  and  C_19 
REMARK       I    between atoms: N_17  and  C_9 
REMARK    4  A    between atoms: O_20  and  C_18 
REMARK    5  A    between atoms: C_19  and  O_20 
ROOT
ATOM      1  C   UNL d   1      33.239  22.092 -22.443  0.00  0.00     0.141 A 
ATOM      2  C   UNL d   1      33.236  21.256 -23.482  0.00  0.00     0.064 A 
ATOM      3  C   UNL d   1      33.238  22.056 -23.266  0.00  0.00     0.220 A 
ATOM      4  C   UNL d   1      33.236  20.803 -22.787  0.00  0.00     0.105 A 
ATOM      5  O   UNL d   1      33.238  21.324 -22.142  0.00  0.00    -0.304 OA
ATOM      6  C   UNL d   1      33.235  19.981 -22.839  0.00  0.00     0.050 A 
ATOM      7  C   UNL d   1      33.235  20.881 -24.222  0.00  0.00     0.007 A 
ATOM      8  O   UNL d   1      33.238  22.697 -23.783  0.00  0.00    -0.284 OA
ATOM      9  C   UNL d   1      33.233  19.610 -23.576  0.00  0.00     0.102 A 
ATOM     10  C   UNL d   1      33.233  20.057 -24.263  0.00  0.00     0.025 A 
ENDROOT
BRANCH   1  11
ATOM     11  C   UNL d   1      33.241  22.787 -21.990  0.00  0.00     0.053 C 
BRANCH  11  12
ATOM     12  C   UNL d   1      32.827  22.816 -21.272  0.00  0.00     0.102 A 
ATOM     13  O   UNL d   1      33.155  22.693 -20.525  0.00  0.00    -0.307 OA
ATOM     14  C   UNL d   1      32.550  22.773 -19.975  0.00  0.00     0.100 A 
ATOM     15  C   UNL d   1      32.625  22.695 -19.153  0.00  0.00     0.027 C 
ATOM     16  C   UNL d   1      31.848  22.944 -20.375  0.00  0.00     0.027 A 
ATOM     17  C   UNL d   1      32.029  22.970 -21.188  0.00  0.00     0.027 A 
ENDBRANCH  11  12
ENDBRANCH   1  11
BRANCH   9  18
ATOM     18  O   UNL d   1      33.232  18.782 -23.620  0.00  0.00    -0.300 OA
BRANCH  18  19
ATOM     19  C   UNL d   1      32.535  18.379 -23.755  0.00  0.00     0.187 C 
BRANCH  19  20
ATOM     20  C   UNL d   1      32.487  17.572 -23.593  0.00  0.00     0.323 C 
ATOM     21  O   UNL d   1      33.140  17.169 -23.304  0.00  0.00    -0.261 OA
ATOM     22  N   UNL d   1      31.774  17.168 -23.723  0.00  0.00    -0.083 NA
ATOM     23  N   UNL d   1      31.722  16.355 -23.560  0.00  0.00    -0.019 N 
ENDBRANCH  19  20
ENDBRANCH  18  19
ENDBRANCH   9  18
TORSDOF 5
ENDMDL
MODEL 5
REMARK VINA RESULT:      -1.9      2.319      4.896
REMARK  5 active torsions:
REMARK  status: ('A' for Active; 'I' for Inactive)
REMARK    1  A    between atoms: C_6  and  C_1 
REMARK    2  A    between atoms: C_7  and  C_6 
REMARK    3  A    between atoms: C_9  and  C_19 
REMARK       I    between atoms: N_17  and  C_9 
REMARK    4  A    between atoms: O_20  and  C_18 
REMARK    5  A    between atoms: C_19  and  O_20 
ROOT
ATOM      1  C   UNL d   1      32.911  19.635 -23.026  0.00  0.00     0.141 A 
ATOM      2  C   UNL d   1      32.521  18.721 -23.914  0.00  0.00     0.064 A 
ATOM      3  C   UNL d   1      32.903  19.451 -23.828  0.00  0.00     0.220 A 
ATOM      4  C   UNL d   1      32.296  18.460 -23.159  0.00  0.00     0.105 A 
ATOM      5  O   UNL d   1      32.539  19.029 -22.608  0.00  0.00    -0.304 OA
ATOM      6  C   UNL d   1      31.901  17.740 -23.080  0.00  0.00     0.050 A 
ATOM      7  C   UNL d   1      32.348  18.259 -24.581  0.00  0.00     0.007 A 
ATOM      8  O   UNL d   1      33.216  19.907 -24.438  0.00  0.00    -0.284 OA
ATOM      9  C   UNL d   1      31.730  17.283 -23.745  0.00  0.00     0.102 A 
ATOM     10  C   UNL d   1      31.952  17.541 -24.491  0.00  0.00     0.025 A 
ENDROOT
BRANCH   1  11
ATOM     11  C   UNL d   1      33.241  20.319 -22.691  0.00  0.00     0.053 C 
BRANCH  11  12
ATOM     12  C   UNL d   1      32.905  20.651 -22.009  0.00  0.00     0.102 A 
ATOM     13  O   UNL d   1      32.441  21.333 -21.986  0.00  0.00    -0.307 OA
ATOM     14  C   UNL d   1      32.228  21.458 -21.203  0.00  0.00     0.100 A 
ATOM     15  C   UNL d   1      31.760  22.082 -20.919  0.00  0.00     0.027 C 
ATOM     16  C   UNL d   1      32.555  20.860 -20.739  0.00  0.00     0.027 A 
ATOM     17  C   UNL d   1      32.979  20.356 -21.250  0.00  0.00     0.027 A 
ENDBRANCH  11  12
ENDBRANCH   1  11
BRANCH   9  18
ATOM     18  O   UNL d   1      31.333  16.561 -23.657  0.00  0.00    -0.300 OA
BRANCH  18  19
ATOM     19  C   UNL d   1      30.537  16.507 -23.825  0.00  0.00     0.187 C 
BRANCH  19  20
ATOM     20  C   UNL d   1      30.059  15.986 -23.401  0.00  0.00     0.323 C 
ATOM     21  O   UNL d   1      30.395  15.453 -22.875  0.00  0.00    -0.261 OA
ATOM     22  N   UNL d   1      29.237  16.001 -23.507  0.00  0.00    -0.083 NA
ATOM     23  N   UNL d   1      28.753  15.477 -23.081  0.00  0.00    -0.019 N 
ENDBRANCH  19  20
ENDBRANCH  18  19
ENDBRANCH   9  18
TORSDOF 5
ENDMDL
MODEL 6
REMARK VINA RESULT:      -1.3      3.004      6.301
REMARK  5 active torsions:
REMARK  status: ('A' for Active; 'I' for Inactive)
REMARK    1  A    between atoms: C_6  and  C_1 
REMARK    2  A    between atoms: C_7  and  C_6 
REMARK    3  A    between atoms: C_9  and  C_19 
REMARK       I    between atoms: N_17  and  C_9 
REMARK    4  A    between atoms: O_20  and  C_18 
REMARK    5  A    between atoms: C_19  and  O_20 
ROOT
ATOM      1  C   UNL d   1      32.698  22.541 -20.681  0.00  0.00     0.141 A 
ATOM      2  C   UNL d   1      32.789  21.775 -21.768  0.00  0.00     0.064 A 
ATOM      3  C   UNL d   1      32.671  22.551 -21.504  0.00  0.00     0.220 A 
ATOM      4  C   UNL d   1      32.889  21.290 -21.102  0.00  0.00     0.105 A 
ATOM      5  O   UNL d   1      32.832  21.768 -20.427  0.00  0.00    -0.304 OA
ATOM      6  C   UNL d   1      33.017  20.482 -21.204  0.00  0.00     0.050 A 
ATOM      7  C   UNL d   1      32.818  21.445 -22.529  0.00  0.00     0.007 A 
ATOM      8  O   UNL d   1      32.548  23.211 -21.981  0.00  0.00    -0.284 OA
ATOM      9  C   UNL d   1      33.046  20.157 -21.962  0.00  0.00     0.102 A 
ATOM     10  C   UNL d   1      32.947  20.636 -22.620  0.00  0.00     0.025 A 
ENDROOT
BRANCH   1  11
ATOM     11  C   UNL d   1      32.607  23.201 -20.187  0.00  0.00     0.053 C 
BRANCH  11  12
ATOM     12  C   UNL d   1      32.534  23.099 -19.367  0.00  0.00     0.102 A 
ATOM     13  O   UNL d   1      33.144  22.885 -18.855  0.00  0.00    -0.307 OA
ATOM     14  C   UNL d   1      32.827  22.848 -18.098  0.00  0.00     0.100 A 
ATOM     15  C   UNL d   1      33.241  22.653 -17.406  0.00  0.00     0.027 C 
ATOM     16  C   UNL d   1      32.025  23.039 -18.136  0.00  0.00     0.027 A 
ATOM     17  C   UNL d   1      31.847  23.195 -18.934  0.00  0.00     0.027 A 
ENDBRANCH  11  12
ENDBRANCH   1  11
BRANCH   9  18
ATOM     18  O   UNL d   1      33.176  19.343 -22.056  0.00  0.00    -0.300 OA
BRANCH  18  19
ATOM     19  C   UNL d   1      32.866  18.950 -22.700  0.00  0.00     0.187 C 
BRANCH  19  20
ATOM     20  C   UNL d   1      32.956  18.133 -22.768  0.00  0.00     0.323 C 
ATOM     21  O   UNL d   1      33.241  17.696 -22.135  0.00  0.00    -0.261 OA
ATOM     22  N   UNL d   1      32.757  17.754 -23.478  0.00  0.00    -0.083 NA
ATOM     23  N   UNL d   1      32.847  16.932 -23.549  0.00  0.00    -0.019 N 
ENDBRANCH  19  20
ENDBRANCH  18  19
ENDBRANCH   9  18
TORSDOF 5
ENDMDL
