MODEL 1
REMARK VINA RESULT:      -8.1      0.000      0.000
REMARK  5 active torsions:
REMARK  status: ('A' for Active; 'I' for Inactive)
REMARK    1  A    between atoms: C_11  and  N_1 
REMARK    2  A    between atoms: C_15  and  C_3 
REMARK    3  A    between atoms: N_4  and  C_7 
REMARK    4  A    between atoms: C_9  and  C_10 
REMARK       I    between atoms: C_10  and  N_12 
REMARK    5  A    between atoms: N_12  and  C_15 
ROOT
ATOM      1  C   UNL d   1     -48.173  12.635  23.389  0.00  0.00     0.141 C 
ENDROOT
BRANCH   1   2
ATOM      2  N   UNL d   1     -47.518  12.139  23.299  0.00  0.00    -0.203 NA
ATOM      3  C   UNL d   1     -46.757  12.438  23.440  0.00  0.00     0.279 C 
ATOM      4  O   UNL d   1     -46.660  13.209  23.664  0.00  0.00    -0.265 OA
BRANCH   3   5
ATOM      5  C   UNL d   1     -46.102  11.935  23.349  0.00  0.00     0.059 A 
ATOM      6  C   UNL d   1     -45.451  12.188  22.906  0.00  0.00     0.027 A 
ATOM      7  C   UNL d   1     -44.813  11.695  22.817  0.00  0.00     0.127 A 
ATOM      8  C   UNL d   1     -45.469  12.937  22.564  0.00  0.00     0.002 C 
ATOM      9  C   UNL d   1     -44.802  10.938  23.166  0.00  0.00     0.024 A 
ATOM     10  C   UNL d   1     -45.444  10.677  23.608  0.00  0.00     0.002 A 
ATOM     11  C   UNL d   1     -46.086  11.170  23.698  0.00  0.00     0.005 A 
BRANCH   7  12
ATOM     12  N   UNL d   1     -44.175  11.956  22.377  0.00  0.00    -0.114 N 
ATOM     13  O   UNL d   1     -44.265  12.549  21.807  0.00  0.00    -0.532 OA
ATOM     14  O   UNL d   1     -43.421  11.623  22.500  0.00  0.00    -0.532 OA
ENDBRANCH   7  12
ENDBRANCH   3   5
ENDBRANCH   1   2
BRANCH   1  15
ATOM     15  C   UNL d   1     -48.934  12.313  23.419  0.00  0.00     0.191 A 
ATOM     16  N   UNL d   1     -49.642  12.707  23.279  0.00  0.00    -0.264 N 
ATOM     17  C   UNL d   1     -50.264  12.183  23.367  0.00  0.00     0.227 A 
ATOM     18  N   UNL d   1     -49.944  11.439  23.567  0.00  0.00    -0.117 NA
ATOM     19  S   UNL d   1     -51.064  12.349  23.276  0.00  0.00    -0.036 SA
ATOM     20  N   UNL d   1     -49.116  11.520  23.600  0.00  0.00    -0.126 NA
BRANCH  16  21
ATOM     21  C   UNL d   1     -49.712  13.510  23.080  0.00  0.00     0.068 A 
ATOM     22  C   UNL d   1     -49.712  13.730  22.283  0.00  0.00     0.020 A 
ATOM     23  C   UNL d   1     -49.783  14.530  22.097  0.00  0.00     0.031 A 
ATOM     24  C   UNL d   1     -49.851  15.105  22.684  0.00  0.00     0.140 A 
ATOM     25  C   UNL d   1     -49.849  14.868  23.480  0.00  0.00     0.031 A 
ATOM     26  F   UNL d   1     -49.920  15.895  22.488  0.00  0.00    -0.204 F 
ATOM     27  C   UNL d   1     -49.779  14.070  23.678  0.00  0.00     0.020 A 
ENDBRANCH  16  21
ENDBRANCH   1  15
TORSDOF 5
ENDMDL
MODEL 2
REMARK VINA RESULT:      -6.9      9.322     10.095
REMARK  5 active torsions:
REMARK  status: ('A' for Active; 'I' for Inactive)
REMARK    1  A    between atoms: C_11  and  N_1 
REMARK    2  A    between atoms: C_15  and  C_3 
REMARK    3  A    between atoms: N_4  and  C_7 
REMARK    4  A    between atoms: C_9  and  C_10 
REMARK       I    between atoms: C_10  and  N_12 
REMARK    5  A    between atoms: N_12  and  C_15 
ROOT
ATOM      1  C   UNL d   1     -39.345  15.247  19.055  0.00  0.00     0.141 C 
ENDROOT
BRANCH   1   2
ATOM      2  N   UNL d   1     -39.395  15.259  19.880  0.00  0.00    -0.203 NA
ATOM      3  C   UNL d   1     -38.704  15.180  20.332  0.00  0.00     0.279 C 
ATOM      4  O   UNL d   1     -37.989  15.092  19.965  0.00  0.00    -0.265 OA
BRANCH   3   5
ATOM      5  C   UNL d   1     -38.761  15.192  21.161  0.00  0.00     0.059 A 
ATOM      6  C   UNL d   1     -38.695  14.485  21.585  0.00  0.00     0.027 A 
ATOM      7  C   UNL d   1     -38.751  14.499  22.394  0.00  0.00     0.127 A 
ATOM      8  C   UNL d   1     -38.576  13.782  21.173  0.00  0.00     0.002 C 
ATOM      9  C   UNL d   1     -38.872  15.214  22.806  0.00  0.00     0.024 A 
ATOM     10  C   UNL d   1     -38.938  15.922  22.393  0.00  0.00     0.002 A 
ATOM     11  C   UNL d   1     -38.883  15.910  21.581  0.00  0.00     0.005 A 
BRANCH   7  12
ATOM     12  N   UNL d   1     -38.685  13.794  22.804  0.00  0.00    -0.114 N 
ATOM     13  O   UNL d   1     -39.336  13.290  22.890  0.00  0.00    -0.532 OA
ATOM     14  O   UNL d   1     -37.956  13.576  23.142  0.00  0.00    -0.532 OA
ENDBRANCH   7  12
ENDBRANCH   3   5
ENDBRANCH   1   2
BRANCH   1  15
ATOM     15  C   UNL d   1     -40.007  15.441  18.598  0.00  0.00     0.191 A 
ATOM     16  N   UNL d   1     -40.121  15.275  17.801  0.00  0.00    -0.264 N 
ATOM     17  C   UNL d   1     -40.850  15.563  17.568  0.00  0.00     0.227 A 
ATOM     18  N   UNL d   1     -41.207  15.922  18.231  0.00  0.00    -0.117 NA
ATOM     19  S   UNL d   1     -41.181  15.515  16.817  0.00  0.00    -0.036 SA
ATOM     20  N   UNL d   1     -40.682  15.846  18.874  0.00  0.00    -0.126 NA
BRANCH  16  21
ATOM     21  C   UNL d   1     -39.582  14.876  17.313  0.00  0.00     0.068 A 
ATOM     22  C   UNL d   1     -39.060  15.314  16.845  0.00  0.00     0.020 A 
ATOM     23  C   UNL d   1     -38.528  14.908  16.363  0.00  0.00     0.031 A 
ATOM     24  C   UNL d   1     -38.509  14.084  16.342  0.00  0.00     0.140 A 
ATOM     25  C   UNL d   1     -39.039  13.658  16.818  0.00  0.00     0.031 A 
ATOM     26  F   UNL d   1     -37.978  13.692  15.861  0.00  0.00    -0.204 F 
ATOM     27  C   UNL d   1     -39.576  14.054  17.303  0.00  0.00     0.020 A 
ENDBRANCH  16  21
ENDBRANCH   1  15
TORSDOF 5
ENDMDL
MODEL 3
REMARK VINA RESULT:      -5.2      2.452      4.940
REMARK  5 active torsions:
REMARK  status: ('A' for Active; 'I' for Inactive)
REMARK    1  A    between atoms: C_11  and  N_1 
REMARK    2  A    between atoms: C_15  and  C_3 
REMARK    3  A    between atoms: N_4  and  C_7 
REMARK    4  A    between atoms: C_9  and  C_10 
REMARK       I    between atoms: C_10  and  N_12 
REMARK    5  A    between atoms: N_12  and  C_15 
ROOT
ATOM      1  C   UNL d   1     -47.340  12.483  22.374  0.00  0.00     0.141 C 
ENDROOT
BRANCH   1   2
ATOM      2  N   UNL d   1     -48.128  12.649  22.558  0.00  0.00    -0.203 NA
ATOM      3  C   UNL d   1     -48.601  13.050  22.006  0.00  0.00     0.279 C 
ATOM      4  O   UNL d   1     -48.289  13.275  21.295  0.00  0.00    -0.265 OA
BRANCH   3   5
ATOM      5  C   UNL d   1     -49.393  13.215  22.197  0.00  0.00     0.059 A 
ATOM      6  C   UNL d   1     -49.609  13.983  22.416  0.00  0.00     0.027 A 
ATOM      7  C   UNL d   1     -50.383  14.141  22.601  0.00  0.00     0.127 A 
ATOM      8  C   UNL d   1     -49.031  14.568  22.439  0.00  0.00     0.002 C 
ATOM      9  C   UNL d   1     -50.964  13.543  22.575  0.00  0.00     0.024 A 
ATOM     10  C   UNL d   1     -50.758  12.777  22.359  0.00  0.00     0.002 A 
ATOM     11  C   UNL d   1     -49.983  12.616  22.172  0.00  0.00     0.005 A 
BRANCH   7  12
ATOM     12  N   UNL d   1     -50.586  14.904  22.816  0.00  0.00    -0.114 N 
ATOM     13  O   UNL d   1     -50.552  15.146  23.607  0.00  0.00    -0.532 OA
ATOM     14  O   UNL d   1     -50.832  15.448  22.236  0.00  0.00    -0.532 OA
ENDBRANCH   7  12
ENDBRANCH   3   5
ENDBRANCH   1   2
BRANCH   1  15
ATOM     15  C   UNL d   1     -46.916  11.938  22.830  0.00  0.00     0.191 A 
ATOM     16  N   UNL d   1     -46.101  11.911  22.932  0.00  0.00    -0.264 N 
ATOM     17  C   UNL d   1     -45.912  11.286  23.425  0.00  0.00     0.227 A 
ATOM     18  N   UNL d   1     -46.623  10.907  23.640  0.00  0.00    -0.117 NA
ATOM     19  S   UNL d   1     -45.160  11.063  23.670  0.00  0.00    -0.036 SA
ATOM     20  N   UNL d   1     -47.249  11.313  23.269  0.00  0.00    -0.126 NA
BRANCH  16  21
ATOM     21  C   UNL d   1     -45.557  12.436  22.589  0.00  0.00     0.068 A 
ATOM     22  C   UNL d   1     -45.598  13.240  22.777  0.00  0.00     0.020 A 
ATOM     23  C   UNL d   1     -45.053  13.753  22.431  0.00  0.00     0.031 A 
ATOM     24  C   UNL d   1     -44.477  13.480  21.909  0.00  0.00     0.140 A 
ATOM     25  C   UNL d   1     -44.448  12.670  21.730  0.00  0.00     0.031 A 
ATOM     26  F   UNL d   1     -43.942  13.997  21.571  0.00  0.00    -0.204 F 
ATOM     27  C   UNL d   1     -44.989  12.148  22.070  0.00  0.00     0.020 A 
ENDBRANCH  16  21
ENDBRANCH   1  15
TORSDOF 5
ENDMDL
