MODEL 1
REMARK VINA RESULT:     132.9      0.000      0.000
REMARK  6 active torsions:
REMARK  status: ('A' for Active; 'I' for Inactive)
REMARK    1  A    between atoms: N_13  and  C_2 
REMARK    2  A    between atoms: C_22  and  C_5 
REMARK    3  A    between atoms: C_23  and  C_6 
REMARK    4  A    between atoms: C_7  and  S_17 
REMARK       I    between atoms: C_16  and  N_13 
REMARK    5  A    between atoms: C_25  and  C_16 
REMARK    6  A    between atoms: S_17  and  C_25 
ROOT
ATOM      1  C   UNL d   1     -56.476-100.126 -44.112  0.00  0.00     0.092 A 
ATOM      2  C   UNL d   1     -57.651 -99.525 -43.574  0.00  0.00     0.057 A 
ATOM      3  C   UNL d   1     -57.166 -99.685 -44.217  0.00  0.00     0.016 A 
ATOM      4  C   UNL d   1     -56.277-100.403 -43.366  0.00  0.00     0.120 A 
ATOM      5  N   UNL d   1     -56.761-100.244 -42.717  0.00  0.00    -0.239 NA
ATOM      6  C   UNL d   1     -57.452 -99.803 -42.822  0.00  0.00     0.081 A 
ATOM      7  C   UNL d   1     -58.336 -99.086 -43.686  0.00  0.00     0.193 A 
ATOM      8  C   UNL d   1     -55.991-100.285 -44.761  0.00  0.00     0.103 C 
ATOM      9  N   UNL d   1     -55.500-100.449 -45.402  0.00  0.00    -0.191 NA
ATOM     10  C   UNL d   1     -58.629 -99.202 -42.280  0.00  0.00     0.042 A 
ATOM     11  C   UNL d   1     -58.835 -98.919 -43.034  0.00  0.00     0.019 A 
ATOM     12  C   UNL d   1     -57.935 -99.645 -42.173  0.00  0.00    -0.003 A 
ATOM     13  O   UNL d   1     -58.541 -98.805 -44.437  0.00  0.00    -0.287 OA
ATOM     14  C   UNL d   1     -58.626 -99.372 -41.475  0.00  0.00     0.009 C 
ATOM     15  C   UNL d   1     -59.323 -98.757 -42.393  0.00  0.00     0.009 C 
ENDROOT
BRANCH   4  16
ATOM     16  S   UNL d   1     -55.587-100.844 -43.261  0.00  0.00    -0.062 SA
BRANCH  16  17
ATOM     17  C   UNL d   1     -55.629-101.663 -43.153  0.00  0.00     0.100 C 
BRANCH  17  18
ATOM     18  C   UNL d   1     -55.364-101.996 -42.446  0.00  0.00     0.302 C 
ATOM     19  N   UNL d   1     -55.621-101.700 -41.728  0.00  0.00    -0.018 NA
ATOM     20  O   UNL d   1     -54.842-102.629 -42.461  0.00  0.00    -0.264 OA
BRANCH  19  21
ATOM     21  C   UNL d   1     -55.352-102.039 -41.010  0.00  0.00     0.760 A 
ATOM     22  N   UNL d   1     -55.498-101.751 -40.254  0.00  0.00    -0.051 NA
ATOM     23  C   UNL d   1     -55.132-102.252 -39.721  0.00  0.00     0.147 A 
ATOM     24  S   UNL d   1     -54.763-102.845 -40.145  0.00  0.00     0.052 SA
ATOM     25  N   UNL d   1     -54.900-102.712 -40.944  0.00  0.00    -0.019 NA
BRANCH  23  26
ATOM     26  C   UNL d   1     -55.115-102.204 -38.897  0.00  0.00     0.026 A 
ATOM     27  C   UNL d   1     -55.487-102.782 -38.443  0.00  0.00     0.002 A 
ATOM     28  C   UNL d   1     -55.469-102.733 -37.616  0.00  0.00     0.000 A 
ATOM     29  C   UNL d   1     -55.084-102.114 -37.244  0.00  0.00     0.000 A 
ATOM     30  C   UNL d   1     -54.711-101.536 -37.697  0.00  0.00     0.000 A 
ATOM     31  C   UNL d   1     -54.726-101.580 -38.530  0.00  0.00     0.002 A 
ENDBRANCH  23  26
ENDBRANCH  19  21
ENDBRANCH  17  18
ENDBRANCH  16  17
ENDBRANCH   4  16
BRANCH   3  32
ATOM     32  C   UNL d   1     -57.364 -99.409 -44.963  0.00  0.00     0.001 A 
ATOM     33  C   UNL d   1     -58.149 -99.451 -45.222  0.00  0.00     0.000 A 
ATOM     34  C   UNL d   1     -58.346 -99.175 -45.969  0.00  0.00     0.000 A 
ATOM     35  C   UNL d   1     -57.771 -98.856 -46.465  0.00  0.00     0.000 A 
ATOM     36  C   UNL d   1     -56.988 -98.814 -46.207  0.00  0.00     0.000 A 
ATOM     37  C   UNL d   1     -56.783 -99.091 -45.454  0.00  0.00     0.000 A 
ENDBRANCH   3  32
TORSDOF 6
ENDMDL
