MODEL 1
REMARK VINA RESULT:      40.2      0.000      0.000
REMARK  5 active torsions:
REMARK  status: ('A' for Active; 'I' for Inactive)
REMARK    1  A    between atoms: C_11  and  N_1 
REMARK    2  A    between atoms: S_14  and  C_2 
REMARK    3  A    between atoms: C_12  and  C_3 
REMARK    4  A    between atoms: C_8  and  C_12 
REMARK    5  A    between atoms: C_20  and  S_14 
ROOT
ATOM      1  N   UNL d   1      45.153 -15.344  44.591  0.00  0.00    -0.269 N 
ATOM      2  C   UNL d   1      44.380 -15.310  44.836  0.00  0.00     0.201 A 
ATOM      3  C   UNL d   1      45.365 -16.137  44.553  0.00  0.00     0.172 A 
ATOM      4  N   UNL d   1      44.099 -16.062  44.952  0.00  0.00    -0.121 NA
ATOM      5  N   UNL d   1      44.714 -16.580  44.775  0.00  0.00    -0.128 NA
ENDROOT
BRANCH   3   6
ATOM      6  C   UNL d   1      46.114 -16.347  44.322  0.00  0.00     0.059 C 
BRANCH   6   7
ATOM      7  C   UNL d   1      46.237 -17.070  43.951  0.00  0.00     0.094 A 
ATOM      8  C   UNL d   1      46.288 -17.110  43.134  0.00  0.00     0.082 A 
ATOM      9  C   UNL d   1      46.411 -17.838  42.764  0.00  0.00     0.285 A 
ATOM     10  O   UNL d   1      46.465 -17.884  41.925  0.00  0.00    -0.265 OA
ATOM     11  N   UNL d   1      46.481 -18.525  43.231  0.00  0.00    -0.152 NA
ATOM     12  C   UNL d   1      46.429 -18.482  44.043  0.00  0.00     0.371 A 
ATOM     13  N   UNL d   1      46.305 -17.746  44.409  0.00  0.00    -0.191 NA
ATOM     14  O   UNL d   1      46.500 -19.169  44.496  0.00  0.00    -0.242 OA
ENDBRANCH   6   7
ENDBRANCH   3   6
BRANCH   1  15
ATOM     15  C   UNL d   1      45.610 -14.687  44.422  0.00  0.00     0.067 A 
ATOM     16  C   UNL d   1      45.493 -14.277  43.712  0.00  0.00     0.018 A 
ATOM     17  C   UNL d   1      45.958 -13.608  43.539  0.00  0.00     0.001 A 
ATOM     18  C   UNL d   1      45.840 -13.192  42.819  0.00  0.00     0.000 C 
ATOM     19  C   UNL d   1      46.530 -13.360  44.077  0.00  0.00     0.000 A 
ATOM     20  C   UNL d   1      46.642 -13.773  44.784  0.00  0.00     0.002 A 
ATOM     21  C   UNL d   1      46.182 -14.434  44.955  0.00  0.00     0.018 A 
ENDBRANCH   1  15
BRANCH   2  22
ATOM     22  S   UNL d   1      43.944 -14.598  44.949  0.00  0.00    -0.048 SA
BRANCH  22  23
ATOM     23  C   UNL d   1      43.113 -14.609  44.870  0.00  0.00     0.032 C 
ATOM     24  C   UNL d   1      42.706 -13.907  44.708  0.00  0.00     0.007 C 
ATOM     25  C   UNL d   1      42.707 -15.323  44.955  0.00  0.00     0.007 C 
ENDBRANCH  22  23
ENDBRANCH   2  22
TORSDOF 5
ENDMDL
