MODEL 1
REMARK VINA RESULT:      -7.0      0.000      0.000
REMARK  6 active torsions:
REMARK  status: ('A' for Active; 'I' for Inactive)
REMARK    1  A    between atoms: C_9  and  N_1 
REMARK    2  A    between atoms: S_10  and  C_6 
REMARK    3  A    between atoms: C_16  and  S_10 
REMARK    4  A    between atoms: C_12  and  C_16 
REMARK    5  A    between atoms: O_20  and  C_12 
REMARK    6  A    between atoms: C_22  and  O_20 
ROOT
ATOM      1  N   UNL d   1      52.683  34.253  53.333  0.00  0.00    -0.212 N 
ATOM      2  C   UNL d   1      51.956  33.871  53.322  0.00  0.00     0.169 A 
ATOM      3  N   UNL d   1      52.673  34.855  52.791  0.00  0.00    -0.162 NA
ATOM      4  C   UNL d   1      51.486  34.248  52.758  0.00  0.00     0.081 A 
ATOM      5  C   UNL d   1      51.928  34.858  52.428  0.00  0.00     0.126 A 
ATOM      6  C   UNL d   1      50.719  33.987  52.620  0.00  0.00     0.117 A 
ATOM      7  N   UNL d   1      51.659  33.234  53.747  0.00  0.00    -0.205 NA
ATOM      8  N   UNL d   1      50.418  33.347  53.046  0.00  0.00    -0.217 NA
ATOM      9  C   UNL d   1      50.889  32.970  53.610  0.00  0.00     0.201 A 
ENDROOT
BRANCH   1  10
ATOM     10  C   UNL d   1      53.279  33.996  53.851  0.00  0.00     0.085 A 
ATOM     11  C   UNL d   1      53.785  33.396  53.622  0.00  0.00     0.020 A 
ATOM     12  C   UNL d   1      54.372  33.140  54.127  0.00  0.00     0.013 A 
ATOM     13  C   UNL d   1      54.461  33.487  54.881  0.00  0.00     0.058 A 
ATOM     14  C   UNL d   1      53.944  34.094  55.103  0.00  0.00     0.013 A 
ATOM     15 CL   UNL d   1      55.058  33.230  55.398  0.00  0.00    -0.082 Cl
ATOM     16  C   UNL d   1      53.358  34.345  54.591  0.00  0.00     0.020 A 
ENDBRANCH   1  10
BRANCH   6  17
ATOM     17  S   UNL d   1      50.249  34.364  52.056  0.00  0.00    -0.062 SA
BRANCH  17  18
ATOM     18  C   UNL d   1      49.436  34.329  52.114  0.00  0.00     0.105 C 
BRANCH  18  19
ATOM     19  C   UNL d   1      48.966  34.728  51.566  0.00  0.00     0.307 C 
ATOM     20  O   UNL d   1      49.033  34.555  50.761  0.00  0.00    -0.258 OA
BRANCH  19  21
ATOM     21  O   UNL d   1      48.429  35.301  51.821  0.00  0.00    -0.271 OA
BRANCH  21  22
ATOM     22  C   UNL d   1      47.689  35.364  51.459  0.00  0.00     0.126 C 
ATOM     23  C   UNL d   1      47.125  35.885  51.762  0.00  0.00     0.029 C 
ENDBRANCH  21  22
ENDBRANCH  19  21
ENDBRANCH  18  19
ENDBRANCH  17  18
ENDBRANCH   6  17
TORSDOF 6
ENDMDL
MODEL 2
REMARK VINA RESULT:      -5.9      3.382      4.744
REMARK  6 active torsions:
REMARK  status: ('A' for Active; 'I' for Inactive)
REMARK    1  A    between atoms: C_9  and  N_1 
REMARK    2  A    between atoms: S_10  and  C_6 
REMARK    3  A    between atoms: C_16  and  S_10 
REMARK    4  A    between atoms: C_12  and  C_16 
REMARK    5  A    between atoms: O_20  and  C_12 
REMARK    6  A    between atoms: C_22  and  O_20 
ROOT
ATOM      1  N   UNL d   1      52.620  33.520  53.808  0.00  0.00    -0.212 N 
ATOM      2  C   UNL d   1      53.230  32.980  53.702  0.00  0.00     0.169 A 
ATOM      3  N   UNL d   1      51.914  33.149  53.673  0.00  0.00    -0.162 NA
ATOM      4  C   UNL d   1      52.890  32.258  53.496  0.00  0.00     0.081 A 
ATOM      5  C   UNL d   1      52.074  32.360  53.477  0.00  0.00     0.126 A 
ATOM      6  C   UNL d   1      53.366  31.604  53.353  0.00  0.00     0.117 A 
ATOM      7  N   UNL d   1      54.047  33.049  53.765  0.00  0.00    -0.205 NA
ATOM      8  N   UNL d   1      54.186  31.670  53.416  0.00  0.00    -0.217 NA
ATOM      9  C   UNL d   1      54.527  32.393  53.621  0.00  0.00     0.201 A 
ENDROOT
BRANCH   1  10
ATOM     10  C   UNL d   1      52.792  34.305  54.020  0.00  0.00     0.085 A 
ATOM     11  C   UNL d   1      52.843  34.881  53.442  0.00  0.00     0.020 A 
ATOM     12  C   UNL d   1      53.011  35.652  53.645  0.00  0.00     0.013 A 
ATOM     13  C   UNL d   1      53.134  35.861  54.445  0.00  0.00     0.058 A 
ATOM     14  C   UNL d   1      53.080  35.271  55.022  0.00  0.00     0.013 A 
ATOM     15 CL   UNL d   1      53.305  36.645  54.656  0.00  0.00    -0.082 Cl
ATOM     16  C   UNL d   1      52.911  34.499  54.810  0.00  0.00     0.020 A 
ENDBRANCH   1  10
BRANCH   6  17
ATOM     17  S   UNL d   1      53.026  30.881  53.147  0.00  0.00    -0.062 SA
BRANCH  17  18
ATOM     18  C   UNL d   1      53.401  30.183  53.340  0.00  0.00     0.105 C 
BRANCH  18  19
ATOM     19  C   UNL d   1      52.958  29.515  53.531  0.00  0.00     0.307 C 
ATOM     20  O   UNL d   1      52.531  29.121  52.944  0.00  0.00    -0.258 OA
BRANCH  19  21
ATOM     21  O   UNL d   1      52.940  29.239  54.309  0.00  0.00    -0.271 OA
BRANCH  21  22
ATOM     22  C   UNL d   1      53.386  28.578  54.523  0.00  0.00     0.126 C 
ATOM     23  C   UNL d   1      53.471  28.378  55.320  0.00  0.00     0.029 C 
ENDBRANCH  21  22
ENDBRANCH  19  21
ENDBRANCH  18  19
ENDBRANCH  17  18
ENDBRANCH   6  17
TORSDOF 6
ENDMDL
MODEL 3
REMARK VINA RESULT:      -5.6      1.991      2.921
REMARK  6 active torsions:
REMARK  status: ('A' for Active; 'I' for Inactive)
REMARK    1  A    between atoms: C_9  and  N_1 
REMARK    2  A    between atoms: S_10  and  C_6 
REMARK    3  A    between atoms: C_16  and  S_10 
REMARK    4  A    between atoms: C_12  and  C_16 
REMARK    5  A    between atoms: O_20  and  C_12 
REMARK    6  A    between atoms: C_22  and  O_20 
ROOT
ATOM      1  N   UNL d   1      50.102  34.535  52.893  0.00  0.00    -0.212 N 
ATOM      2  C   UNL d   1      49.652  34.532  52.206  0.00  0.00     0.169 A 
ATOM      3  N   UNL d   1      49.718  34.972  53.456  0.00  0.00    -0.162 NA
ATOM      4  C   UNL d   1      48.974  34.978  52.350  0.00  0.00     0.081 A 
ATOM      5  C   UNL d   1      49.012  35.252  53.125  0.00  0.00     0.126 A 
ATOM      6  C   UNL d   1      48.412  35.076  51.759  0.00  0.00     0.117 A 
ATOM      7  N   UNL d   1      49.769  34.183  51.470  0.00  0.00    -0.205 NA
ATOM      8  N   UNL d   1      48.526  34.727  51.020  0.00  0.00    -0.217 NA
ATOM      9  C   UNL d   1      49.205  34.281  50.875  0.00  0.00     0.201 A 
ENDROOT
BRANCH   1  10
ATOM     10  C   UNL d   1      50.825  34.128  52.918  0.00  0.00     0.085 A 
ATOM     11  C   UNL d   1      50.852  33.364  53.208  0.00  0.00     0.020 A 
ATOM     12  C   UNL d   1      51.559  32.959  53.235  0.00  0.00     0.013 A 
ATOM     13  C   UNL d   1      52.262  33.321  52.967  0.00  0.00     0.058 A 
ATOM     14  C   UNL d   1      52.225  34.094  52.675  0.00  0.00     0.013 A 
ATOM     15 CL   UNL d   1      52.985  32.913  52.993  0.00  0.00    -0.082 Cl
ATOM     16  C   UNL d   1      51.512  34.493  52.652  0.00  0.00     0.020 A 
ENDBRANCH   1  10
BRANCH   6  17
ATOM     17  S   UNL d   1      47.733  35.522  51.903  0.00  0.00    -0.062 SA
BRANCH  17  18
ATOM     18  C   UNL d   1      47.110  35.499  51.377  0.00  0.00     0.105 C 
BRANCH  18  19
ATOM     19  C   UNL d   1      46.367  35.775  51.606  0.00  0.00     0.307 C 
ATOM     20  O   UNL d   1      46.273  36.558  51.849  0.00  0.00    -0.258 OA
BRANCH  19  21
ATOM     21  O   UNL d   1      45.716  35.267  51.592  0.00  0.00    -0.271 OA
BRANCH  21  22
ATOM     22  C   UNL d   1      44.960  35.569  51.454  0.00  0.00     0.126 C 
ATOM     23  C   UNL d   1      44.315  35.057  51.394  0.00  0.00     0.029 C 
ENDBRANCH  21  22
ENDBRANCH  19  21
ENDBRANCH  18  19
ENDBRANCH  17  18
ENDBRANCH   6  17
TORSDOF 6
ENDMDL
MODEL 4
REMARK VINA RESULT:      -5.4      2.928      5.036
REMARK  6 active torsions:
REMARK  status: ('A' for Active; 'I' for Inactive)
REMARK    1  A    between atoms: C_9  and  N_1 
REMARK    2  A    between atoms: S_10  and  C_6 
REMARK    3  A    between atoms: C_16  and  S_10 
REMARK    4  A    between atoms: C_12  and  C_16 
REMARK    5  A    between atoms: O_20  and  C_12 
REMARK    6  A    between atoms: C_22  and  O_20 
ROOT
ATOM      1  N   UNL d   1      50.878  34.404  52.441  0.00  0.00    -0.212 N 
ATOM      2  C   UNL d   1      51.068  33.681  52.781  0.00  0.00     0.169 A 
ATOM      3  N   UNL d   1      51.561  34.817  52.303  0.00  0.00    -0.162 NA
ATOM      4  C   UNL d   1      51.889  33.647  52.854  0.00  0.00     0.081 A 
ATOM      5  C   UNL d   1      52.197  34.350  52.559  0.00  0.00     0.126 A 
ATOM      6  C   UNL d   1      52.247  32.983  53.179  0.00  0.00     0.117 A 
ATOM      7  N   UNL d   1      50.604  33.050  53.033  0.00  0.00    -0.205 NA
ATOM      8  N   UNL d   1      51.784  32.348  53.433  0.00  0.00    -0.217 NA
ATOM      9  C   UNL d   1      50.963  32.382  53.360  0.00  0.00     0.201 A 
ENDROOT
BRANCH   1  10
ATOM     10  C   UNL d   1      50.084  34.600  52.297  0.00  0.00     0.085 A 
ATOM     11  C   UNL d   1      49.646  34.975  52.876  0.00  0.00     0.020 A 
ATOM     12  C   UNL d   1      48.866  35.169  52.739  0.00  0.00     0.013 A 
ATOM     13  C   UNL d   1      48.508  34.987  52.007  0.00  0.00     0.058 A 
ATOM     14  C   UNL d   1      48.960  34.608  51.427  0.00  0.00     0.013 A 
ATOM     15 CL   UNL d   1      47.714  35.183  51.863  0.00  0.00    -0.082 Cl
ATOM     16  C   UNL d   1      49.742  34.416  51.572  0.00  0.00     0.020 A 
ENDBRANCH   1  10
BRANCH   6  17
ATOM     17  S   UNL d   1      53.068  32.950  53.253  0.00  0.00    -0.062 SA
BRANCH  17  18
ATOM     18  C   UNL d   1      53.406  32.549  53.878  0.00  0.00     0.105 C 
BRANCH  18  19
ATOM     19  C   UNL d   1      54.202  32.664  54.059  0.00  0.00     0.307 C 
ATOM     20  O   UNL d   1      54.782  32.502  53.494  0.00  0.00    -0.258 OA
BRANCH  19  21
ATOM     21  O   UNL d   1      54.420  32.941  54.806  0.00  0.00    -0.271 OA
BRANCH  21  22
ATOM     22  C   UNL d   1      55.084  33.425  54.889  0.00  0.00     0.126 C 
ATOM     23  C   UNL d   1      55.192  33.861  55.582  0.00  0.00     0.029 C 
ENDBRANCH  21  22
ENDBRANCH  19  21
ENDBRANCH  18  19
ENDBRANCH  17  18
ENDBRANCH   6  17
TORSDOF 6
ENDMDL
MODEL 5
REMARK VINA RESULT:      -5.0      2.837      3.531
REMARK  6 active torsions:
REMARK  status: ('A' for Active; 'I' for Inactive)
REMARK    1  A    between atoms: C_9  and  N_1 
REMARK    2  A    between atoms: S_10  and  C_6 
REMARK    3  A    between atoms: C_16  and  S_10 
REMARK    4  A    between atoms: C_12  and  C_16 
REMARK    5  A    between atoms: O_20  and  C_12 
REMARK    6  A    between atoms: C_22  and  O_20 
ROOT
ATOM      1  N   UNL d   1      52.943  30.773  53.415  0.00  0.00    -0.212 N 
ATOM      2  C   UNL d   1      53.158  31.509  53.709  0.00  0.00     0.169 A 
ATOM      3  N   UNL d   1      52.497  30.877  52.747  0.00  0.00    -0.162 NA
ATOM      4  C   UNL d   1      52.835  32.081  53.209  0.00  0.00     0.081 A 
ATOM      5  C   UNL d   1      52.425  31.692  52.612  0.00  0.00     0.126 A 
ATOM      6  C   UNL d   1      52.958  32.879  53.363  0.00  0.00     0.117 A 
ATOM      7  N   UNL d   1      53.602  31.736  54.363  0.00  0.00    -0.205 NA
ATOM      8  N   UNL d   1      53.403  33.109  54.019  0.00  0.00    -0.217 NA
ATOM      9  C   UNL d   1      53.725  32.537  54.519  0.00  0.00     0.201 A 
ENDROOT
BRANCH   1  10
ATOM     10  C   UNL d   1      53.188  30.082  53.805  0.00  0.00     0.085 A 
ATOM     11  C   UNL d   1      53.868  29.698  53.562  0.00  0.00     0.020 A 
ATOM     12  C   UNL d   1      54.113  29.019  53.941  0.00  0.00     0.013 A 
ATOM     13  C   UNL d   1      53.673  28.711  54.580  0.00  0.00     0.058 A 
ATOM     14  C   UNL d   1      52.987  29.107  54.818  0.00  0.00     0.013 A 
ATOM     15 CL   UNL d   1      53.919  28.020  54.969  0.00  0.00    -0.082 Cl
ATOM     16  C   UNL d   1      52.748  29.787  54.433  0.00  0.00     0.020 A 
ENDBRANCH   1  10
BRANCH   6  17
ATOM     17  S   UNL d   1      52.635  33.451  52.863  0.00  0.00    -0.062 SA
BRANCH  17  18
ATOM     18  C   UNL d   1      52.178  34.051  53.171  0.00  0.00     0.105 C 
BRANCH  18  19
ATOM     19  C   UNL d   1      51.624  34.434  52.695  0.00  0.00     0.307 C 
ATOM     20  O   UNL d   1      51.791  34.575  51.899  0.00  0.00    -0.258 OA
BRANCH  19  21
ATOM     21  O   UNL d   1      50.902  34.677  53.014  0.00  0.00    -0.271 OA
BRANCH  21  22
ATOM     22  C   UNL d   1      50.209  34.605  52.570  0.00  0.00     0.126 C 
ATOM     23  C   UNL d   1      49.495  34.891  52.869  0.00  0.00     0.029 C 
ENDBRANCH  21  22
ENDBRANCH  19  21
ENDBRANCH  18  19
ENDBRANCH  17  18
ENDBRANCH   6  17
TORSDOF 6
ENDMDL
MODEL 6
REMARK VINA RESULT:      -4.9     10.353     11.672
REMARK  6 active torsions:
REMARK  status: ('A' for Active; 'I' for Inactive)
REMARK    1  A    between atoms: C_9  and  N_1 
REMARK    2  A    between atoms: S_10  and  C_6 
REMARK    3  A    between atoms: C_16  and  S_10 
REMARK    4  A    between atoms: C_12  and  C_16 
REMARK    5  A    between atoms: O_20  and  C_12 
REMARK    6  A    between atoms: C_22  and  O_20 
ROOT
ATOM      1  N   UNL d   1      45.082  28.380  57.857  0.00  0.00    -0.212 N 
ATOM      2  C   UNL d   1      44.838  27.832  58.419  0.00  0.00     0.169 A 
ATOM      3  N   UNL d   1      45.375  27.984  57.214  0.00  0.00    -0.162 NA
ATOM      4  C   UNL d   1      44.985  27.080  58.113  0.00  0.00     0.081 A 
ATOM      5  C   UNL d   1      45.317  27.172  57.366  0.00  0.00     0.126 A 
ATOM      6  C   UNL d   1      44.796  26.413  58.554  0.00  0.00     0.117 A 
ATOM      7  N   UNL d   1      44.504  27.917  59.165  0.00  0.00    -0.205 NA
ATOM      8  N   UNL d   1      44.460  26.495  59.303  0.00  0.00    -0.217 NA
ATOM      9  C   UNL d   1      44.314  27.247  59.609  0.00  0.00     0.201 A 
ENDROOT
BRANCH   1  10
ATOM     10  C   UNL d   1      45.004  29.193  58.008  0.00  0.00     0.085 A 
ATOM     11  C   UNL d   1      44.467  29.636  57.580  0.00  0.00     0.020 A 
ATOM     12  C   UNL d   1      44.387  30.434  57.724  0.00  0.00     0.013 A 
ATOM     13  C   UNL d   1      44.852  30.806  58.310  0.00  0.00     0.058 A 
ATOM     14  C   UNL d   1      45.392  30.349  58.738  0.00  0.00     0.013 A 
ATOM     15 CL   UNL d   1      44.773  31.619  58.460  0.00  0.00    -0.082 Cl
ATOM     16  C   UNL d   1      45.467  29.549  58.587  0.00  0.00     0.020 A 
ENDBRANCH   1  10
BRANCH   6  17
ATOM     17  S   UNL d   1      44.942  25.660  58.248  0.00  0.00    -0.062 SA
BRANCH  17  18
ATOM     18  C   UNL d   1      44.624  25.003  58.612  0.00  0.00     0.105 C 
BRANCH  18  19
ATOM     19  C   UNL d   1      44.716  24.258  58.270  0.00  0.00     0.307 C 
ATOM     20  O   UNL d   1      44.408  24.108  57.519  0.00  0.00    -0.258 OA
BRANCH  19  21
ATOM     21  O   UNL d   1      45.114  23.662  58.680  0.00  0.00    -0.271 OA
BRANCH  21  22
ATOM     22  C   UNL d   1      44.931  22.870  58.537  0.00  0.00     0.126 C 
ATOM     23  C   UNL d   1      45.235  22.281  59.029  0.00  0.00     0.029 C 
ENDBRANCH  21  22
ENDBRANCH  19  21
ENDBRANCH  18  19
ENDBRANCH  17  18
ENDBRANCH   6  17
TORSDOF 6
ENDMDL
MODEL 7
REMARK VINA RESULT:      -4.5     10.138     11.279
REMARK  6 active torsions:
REMARK  status: ('A' for Active; 'I' for Inactive)
REMARK    1  A    between atoms: C_9  and  N_1 
REMARK    2  A    between atoms: S_10  and  C_6 
REMARK    3  A    between atoms: C_16  and  S_10 
REMARK    4  A    between atoms: C_12  and  C_16 
REMARK    5  A    between atoms: O_20  and  C_12 
REMARK    6  A    between atoms: C_22  and  O_20 
ROOT
ATOM      1  N   UNL d   1      44.938  28.199  57.795  0.00  0.00    -0.212 N 
ATOM      2  C   UNL d   1      44.727  28.153  58.587  0.00  0.00     0.169 A 
ATOM      3  N   UNL d   1      45.114  28.969  57.615  0.00  0.00    -0.162 NA
ATOM      4  C   UNL d   1      44.775  28.913  58.903  0.00  0.00     0.081 A 
ATOM      5  C   UNL d   1      45.015  29.421  58.302  0.00  0.00     0.126 A 
ATOM      6  C   UNL d   1      44.595  29.043  59.694  0.00  0.00     0.117 A 
ATOM      7  N   UNL d   1      44.499  27.522  59.063  0.00  0.00    -0.205 NA
ATOM      8  N   UNL d   1      44.366  28.412  60.174  0.00  0.00    -0.217 NA
ATOM      9  C   UNL d   1      44.318  27.651  59.858  0.00  0.00     0.201 A 
ENDROOT
BRANCH   1  10
ATOM     10  C   UNL d   1      44.942  27.515  57.325  0.00  0.00     0.085 A 
ATOM     11  C   UNL d   1      45.555  26.978  57.393  0.00  0.00     0.020 A 
ATOM     12  C   UNL d   1      45.564  26.305  56.935  0.00  0.00     0.013 A 
ATOM     13  C   UNL d   1      44.948  26.156  56.391  0.00  0.00     0.058 A 
ATOM     14  C   UNL d   1      44.332  26.705  56.329  0.00  0.00     0.013 A 
ATOM     15 CL   UNL d   1      44.953  25.471  55.922  0.00  0.00    -0.082 Cl
ATOM     16  C   UNL d   1      44.330  27.378  56.793  0.00  0.00     0.020 A 
ENDBRANCH   1  10
BRANCH   6  17
ATOM     17  S   UNL d   1      44.643  29.804  60.010  0.00  0.00    -0.062 SA
BRANCH  17  18
ATOM     18  C   UNL d   1      44.371  29.950  60.764  0.00  0.00     0.105 C 
BRANCH  18  19
ATOM     19  C   UNL d   1      44.728  30.533  61.227  0.00  0.00     0.307 C 
ATOM     20  O   UNL d   1      45.241  31.079  60.879  0.00  0.00    -0.258 OA
BRANCH  19  21
ATOM     21  O   UNL d   1      44.572  30.571  62.037  0.00  0.00    -0.271 OA
BRANCH  21  22
ATOM     22  C   UNL d   1      44.531  31.303  62.415  0.00  0.00     0.126 C 
ATOM     23  C   UNL d   1      44.317  31.345  63.212  0.00  0.00     0.029 C 
ENDBRANCH  21  22
ENDBRANCH  19  21
ENDBRANCH  18  19
ENDBRANCH  17  18
ENDBRANCH   6  17
TORSDOF 6
ENDMDL
MODEL 8
REMARK VINA RESULT:      -4.4      9.941     10.963
REMARK  6 active torsions:
REMARK  status: ('A' for Active; 'I' for Inactive)
REMARK    1  A    between atoms: C_9  and  N_1 
REMARK    2  A    between atoms: S_10  and  C_6 
REMARK    3  A    between atoms: C_16  and  S_10 
REMARK    4  A    between atoms: C_12  and  C_16 
REMARK    5  A    between atoms: O_20  and  C_12 
REMARK    6  A    between atoms: C_22  and  O_20 
ROOT
ATOM      1  N   UNL d   1      44.927  29.384  58.720  0.00  0.00    -0.212 N 
ATOM      2  C   UNL d   1      44.736  28.587  58.783  0.00  0.00     0.169 A 
ATOM      3  N   UNL d   1      45.162  29.539  57.961  0.00  0.00    -0.162 NA
ATOM      4  C   UNL d   1      44.855  28.244  58.042  0.00  0.00     0.081 A 
ATOM      5  C   UNL d   1      45.120  28.832  57.531  0.00  0.00     0.126 A 
ATOM      6  C   UNL d   1      44.709  27.443  57.931  0.00  0.00     0.117 A 
ATOM      7  N   UNL d   1      44.469  28.130  59.412  0.00  0.00    -0.205 NA
ATOM      8  N   UNL d   1      44.441  26.982  58.561  0.00  0.00    -0.217 NA
ATOM      9  C   UNL d   1      44.321  27.325  59.301  0.00  0.00     0.201 A 
ENDROOT
BRANCH   1  10
ATOM     10  C   UNL d   1      44.861  29.880  59.383  0.00  0.00     0.085 A 
ATOM     11  C   UNL d   1      45.275  29.704  60.066  0.00  0.00     0.020 A 
ATOM     12  C   UNL d   1      45.214  30.187  60.719  0.00  0.00     0.013 A 
ATOM     13  C   UNL d   1      44.729  30.866  60.697  0.00  0.00     0.058 A 
ATOM     14  C   UNL d   1      44.314  31.036  60.002  0.00  0.00     0.013 A 
ATOM     15 CL   UNL d   1      44.664  31.362  61.360  0.00  0.00    -0.082 Cl
ATOM     16  C   UNL d   1      44.381  30.546  59.351  0.00  0.00     0.020 A 
ENDBRANCH   1  10
BRANCH   6  17
ATOM     17  S   UNL d   1      44.829  27.099  57.191  0.00  0.00    -0.062 SA
BRANCH  17  18
ATOM     18  C   UNL d   1      44.628  26.319  57.066  0.00  0.00     0.105 C 
BRANCH  18  19
ATOM     19  C   UNL d   1      44.656  26.002  56.305  0.00  0.00     0.307 C 
ATOM     20  O   UNL d   1      44.352  26.431  55.668  0.00  0.00    -0.258 OA
BRANCH  19  21
ATOM     21  O   UNL d   1      44.987  25.256  56.179  0.00  0.00    -0.271 OA
BRANCH  21  22
ATOM     22  C   UNL d   1      44.787  24.824  55.505  0.00  0.00     0.126 C 
ATOM     23  C   UNL d   1      45.099  24.068  55.392  0.00  0.00     0.029 C 
ENDBRANCH  21  22
ENDBRANCH  19  21
ENDBRANCH  18  19
ENDBRANCH  17  18
ENDBRANCH   6  17
TORSDOF 6
ENDMDL
MODEL 9
REMARK VINA RESULT:      -4.2     10.303     11.382
REMARK  6 active torsions:
REMARK  status: ('A' for Active; 'I' for Inactive)
REMARK    1  A    between atoms: C_9  and  N_1 
REMARK    2  A    between atoms: S_10  and  C_6 
REMARK    3  A    between atoms: C_16  and  S_10 
REMARK    4  A    between atoms: C_12  and  C_16 
REMARK    5  A    between atoms: O_20  and  C_12 
REMARK    6  A    between atoms: C_22  and  O_20 
ROOT
ATOM      1  N   UNL d   1      44.632  26.070  56.531  0.00  0.00    -0.212 N 
ATOM      2  C   UNL d   1      44.900  26.362  57.250  0.00  0.00     0.169 A 
ATOM      3  N   UNL d   1      44.372  26.688  56.076  0.00  0.00    -0.162 NA
ATOM      4  C   UNL d   1      44.803  27.181  57.237  0.00  0.00     0.081 A 
ATOM      5  C   UNL d   1      44.476  27.385  56.511  0.00  0.00     0.126 A 
ATOM      6  C   UNL d   1      45.025  27.632  57.887  0.00  0.00     0.117 A 
ATOM      7  N   UNL d   1      45.220  25.994  57.912  0.00  0.00    -0.205 NA
ATOM      8  N   UNL d   1      45.346  27.265  58.553  0.00  0.00    -0.217 NA
ATOM      9  C   UNL d   1      45.443  26.446  58.566  0.00  0.00     0.201 A 
ENDROOT
BRANCH   1  10
ATOM     10  C   UNL d   1      44.659  25.254  56.377  0.00  0.00     0.085 A 
ATOM     11  C   UNL d   1      45.030  24.979  55.702  0.00  0.00     0.020 A 
ATOM     12  C   UNL d   1      45.060  24.180  55.547  0.00  0.00     0.013 A 
ATOM     13  C   UNL d   1      44.713  23.634  56.076  0.00  0.00     0.058 A 
ATOM     14  C   UNL d   1      44.340  23.922  56.756  0.00  0.00     0.013 A 
ATOM     15 CL   UNL d   1      44.741  22.819  55.922  0.00  0.00    -0.082 Cl
ATOM     16  C   UNL d   1      44.314  24.726  56.904  0.00  0.00     0.020 A 
ENDBRANCH   1  10
BRANCH   6  17
ATOM     17  S   UNL d   1      44.928  28.451  57.875  0.00  0.00    -0.062 SA
BRANCH  17  18
ATOM     18  C   UNL d   1      45.112  28.894  58.535  0.00  0.00     0.105 C 
BRANCH  18  19
ATOM     19  C   UNL d   1      44.918  29.696  58.561  0.00  0.00     0.307 C 
ATOM     20  O   UNL d   1      45.088  30.183  57.916  0.00  0.00    -0.258 OA
BRANCH  19  21
ATOM     21  O   UNL d   1      44.555  30.011  59.232  0.00  0.00    -0.271 OA
BRANCH  21  22
ATOM     22  C   UNL d   1      44.876  30.677  59.600  0.00  0.00     0.126 C 
ATOM     23  C   UNL d   1      44.521  30.984  60.280  0.00  0.00     0.029 C 
ENDBRANCH  21  22
ENDBRANCH  19  21
ENDBRANCH  18  19
ENDBRANCH  17  18
ENDBRANCH   6  17
TORSDOF 6
ENDMDL
