MODEL 1
REMARK VINA RESULT:      -2.8      0.000      0.000
REMARK  3 active torsions:
REMARK  status: ('A' for Active; 'I' for Inactive)
REMARK    1  A    between atoms: S_8  and  C_2 
REMARK       I    between atoms: N_6  and  C_7 
REMARK    2  A    between atoms: C_7  and  C_9 
REMARK    3  A    between atoms: C_9  and  S_8 
ROOT
ATOM      1  N   UNL d   1      33.099  18.991 -23.143  0.00  0.00    -0.267 N 
ATOM      2  C   UNL d   1      33.098  19.308 -22.378  0.00  0.00     0.272 C 
ATOM      3  O   UNL d   1      33.240  18.814 -21.725  0.00  0.00    -0.266 OA
ATOM      4  O   UNL d   1      33.100  18.364 -24.666  0.00  0.00    -0.300 OA
ATOM      5  C   UNL d   1      33.240  18.189 -23.257  0.00  0.00     0.110 A 
ATOM      6  C   UNL d   1      32.958  19.480 -23.790  0.00  0.00     0.110 A 
ATOM      7  C   UNL d   1      32.958  19.168 -24.550  0.00  0.00     0.142 A 
ATOM      8  C   UNL d   1      33.241  17.874 -24.020  0.00  0.00     0.142 A 
ENDROOT
BRANCH   2   9
ATOM      9  C   UNL d   1      32.957  20.113 -22.262  0.00  0.00     0.099 C 
BRANCH   9  10
ATOM     10  S   UNL d   1      32.928  20.420 -21.499  0.00  0.00    -0.041 SA
BRANCH  10  11
ATOM     11  C   UNL d   1      32.649  21.182 -21.373  0.00  0.00     0.233 A 
ATOM     12  N   UNL d   1      32.932  21.924 -21.611  0.00  0.00    -0.029 NA
ATOM     13  C   UNL d   1      32.416  22.493 -21.315  0.00  0.00     0.788 A 
ATOM     14  N   UNL d   1      31.822  22.123 -20.902  0.00  0.00     0.050 NA
ATOM     15  N   UNL d   1      32.498  23.322 -21.429  0.00  0.00     0.064 N 
ATOM     16  N   UNL d   1      31.959  21.305 -20.932  0.00  0.00    -0.105 NA
ENDBRANCH  10  11
ENDBRANCH   9  10
ENDBRANCH   2   9
TORSDOF 3
ENDMDL
MODEL 2
REMARK VINA RESULT:      -2.6      1.594      4.053
REMARK  3 active torsions:
REMARK  status: ('A' for Active; 'I' for Inactive)
REMARK    1  A    between atoms: S_8  and  C_2 
REMARK       I    between atoms: N_6  and  C_7 
REMARK    2  A    between atoms: C_7  and  C_9 
REMARK    3  A    between atoms: C_9  and  S_8 
ROOT
ATOM      1  N   UNL d   1      32.716  21.927 -20.878  0.00  0.00    -0.267 N 
ATOM      2  C   UNL d   1      32.966  21.140 -20.945  0.00  0.00     0.272 C 
ATOM      3  O   UNL d   1      33.241  20.735 -20.274  0.00  0.00    -0.266 OA
ATOM      4  O   UNL d   1      32.219  23.492 -20.750  0.00  0.00    -0.300 OA
ATOM      5  C   UNL d   1      32.741  22.307 -20.150  0.00  0.00     0.110 A 
ATOM      6  C   UNL d   1      32.443  22.328 -21.543  0.00  0.00     0.110 A 
ATOM      7  C   UNL d   1      32.195  23.109 -21.480  0.00  0.00     0.142 A 
ATOM      8  C   UNL d   1      32.492  23.091 -20.085  0.00  0.00     0.142 A 
ENDROOT
BRANCH   2   9
ATOM      9  C   UNL d   1      32.941  20.757 -21.676  0.00  0.00     0.099 C 
BRANCH   9  10
ATOM     10  S   UNL d   1      33.237  19.993 -21.750  0.00  0.00    -0.041 SA
BRANCH  10  11
ATOM     11  C   UNL d   1      33.161  19.589 -22.461  0.00  0.00     0.233 A 
ATOM     12  N   UNL d   1      33.239  19.833 -23.250  0.00  0.00    -0.029 NA
ATOM     13  C   UNL d   1      33.098  19.178 -23.728  0.00  0.00     0.788 A 
ATOM     14  N   UNL d   1      32.936  18.536 -23.255  0.00  0.00     0.050 NA
ATOM     15  N   UNL d   1      33.121  19.182 -24.567  0.00  0.00     0.064 N 
ATOM     16  N   UNL d   1      32.973  18.783 -22.464  0.00  0.00    -0.105 NA
ENDBRANCH  10  11
ENDBRANCH   9  10
ENDBRANCH   2   9
TORSDOF 3
ENDMDL
MODEL 3
REMARK VINA RESULT:      -2.5      2.899      3.943
REMARK  3 active torsions:
REMARK  status: ('A' for Active; 'I' for Inactive)
REMARK    1  A    between atoms: S_8  and  C_2 
REMARK       I    between atoms: N_6  and  C_7 
REMARK    2  A    between atoms: C_7  and  C_9 
REMARK    3  A    between atoms: C_9  and  S_8 
ROOT
ATOM      1  N   UNL d   1      30.432  16.543 -24.266  0.00  0.00    -0.267 N 
ATOM      2  C   UNL d   1      31.220  16.609 -24.016  0.00  0.00     0.272 C 
ATOM      3  O   UNL d   1      31.678  15.924 -23.907  0.00  0.00    -0.266 OA
ATOM      4  O   UNL d   1      28.868  16.416 -24.762  0.00  0.00    -0.300 OA
ATOM      5  C   UNL d   1      30.105  15.802 -24.405  0.00  0.00     0.110 A 
ATOM      6  C   UNL d   1      29.979  17.221 -24.374  0.00  0.00     0.110 A 
ATOM      7  C   UNL d   1      29.198  17.158 -24.622  0.00  0.00     0.142 A 
ATOM      8  C   UNL d   1      29.321  15.738 -24.654  0.00  0.00     0.142 A 
ENDROOT
BRANCH   2   9
ATOM      9  C   UNL d   1      31.550  17.352 -23.875  0.00  0.00     0.099 C 
BRANCH   9  10
ATOM     10  S   UNL d   1      32.345  17.417 -23.672  0.00  0.00    -0.041 SA
BRANCH  10  11
ATOM     11  C   UNL d   1      32.651  18.142 -23.436  0.00  0.00     0.233 A 
ATOM     12  N   UNL d   1      32.706  18.507 -22.694  0.00  0.00    -0.029 NA
ATOM     13  C   UNL d   1      33.070  19.237 -22.802  0.00  0.00     0.788 A 
ATOM     14  N   UNL d   1      33.240  19.333 -23.591  0.00  0.00     0.050 NA
ATOM     15  N   UNL d   1      33.233  19.788 -22.189  0.00  0.00     0.064 N 
ATOM     16  N   UNL d   1      32.983  18.656 -23.994  0.00  0.00    -0.105 NA
ENDBRANCH  10  11
ENDBRANCH   9  10
ENDBRANCH   2   9
TORSDOF 3
ENDMDL
MODEL 4
REMARK VINA RESULT:      -2.5      3.353      4.534
REMARK  3 active torsions:
REMARK  status: ('A' for Active; 'I' for Inactive)
REMARK    1  A    between atoms: S_8  and  C_2 
REMARK       I    between atoms: N_6  and  C_7 
REMARK    2  A    between atoms: C_7  and  C_9 
REMARK    3  A    between atoms: C_9  and  S_8 
ROOT
ATOM      1  N   UNL d   1      29.987  16.187 -23.720  0.00  0.00    -0.267 N 
ATOM      2  C   UNL d   1      30.805  16.253 -23.606  0.00  0.00     0.272 C 
ATOM      3  O   UNL d   1      31.220  15.639 -23.231  0.00  0.00    -0.266 OA
ATOM      4  O   UNL d   1      28.361  16.061 -23.950  0.00  0.00    -0.300 OA
ATOM      5  C   UNL d   1      29.587  15.516 -23.464  0.00  0.00     0.110 A 
ATOM      6  C   UNL d   1      29.575  16.796 -24.091  0.00  0.00     0.110 A 
ATOM      7  C   UNL d   1      28.764  16.734 -24.206  0.00  0.00     0.142 A 
ATOM      8  C   UNL d   1      28.773  15.452 -23.579  0.00  0.00     0.142 A 
ENDROOT
BRANCH   2   9
ATOM      9  C   UNL d   1      31.207  16.926 -23.862  0.00  0.00     0.099 C 
BRANCH   9  10
ATOM     10  S   UNL d   1      32.005  17.021 -23.683  0.00  0.00    -0.041 SA
BRANCH  10  11
ATOM     11  C   UNL d   1      32.384  17.729 -23.855  0.00  0.00     0.233 A 
ATOM     12  N   UNL d   1      32.561  18.105 -24.573  0.00  0.00    -0.029 NA
ATOM     13  C   UNL d   1      32.950  18.809 -24.396  0.00  0.00     0.788 A 
ATOM     14  N   UNL d   1      33.017  18.878 -23.588  0.00  0.00     0.050 NA
ATOM     15  N   UNL d   1      33.229  19.360 -24.965  0.00  0.00     0.064 N 
ATOM     16  N   UNL d   1      32.667  18.210 -23.243  0.00  0.00    -0.105 NA
ENDBRANCH  10  11
ENDBRANCH   9  10
ENDBRANCH   2   9
TORSDOF 3
ENDMDL
MODEL 5
REMARK VINA RESULT:      -2.1      1.823      4.277
REMARK  3 active torsions:
REMARK  status: ('A' for Active; 'I' for Inactive)
REMARK    1  A    between atoms: S_8  and  C_2 
REMARK       I    between atoms: N_6  and  C_7 
REMARK    2  A    between atoms: C_7  and  C_9 
REMARK    3  A    between atoms: C_9  and  S_8 
ROOT
ATOM      1  N   UNL d   1      33.122  20.353 -22.375  0.00  0.00    -0.267 N 
ATOM      2  C   UNL d   1      33.121  19.906 -23.073  0.00  0.00     0.272 C 
ATOM      3  O   UNL d   1      33.241  20.282 -23.805  0.00  0.00    -0.266 OA
ATOM      4  O   UNL d   1      33.122  21.236 -20.986  0.00  0.00    -0.300 OA
ATOM      5  C   UNL d   1      33.240  21.166 -22.406  0.00  0.00     0.110 A 
ATOM      6  C   UNL d   1      33.004  19.981 -21.651  0.00  0.00     0.110 A 
ATOM      7  C   UNL d   1      33.004  20.421 -20.958  0.00  0.00     0.142 A 
ATOM      8  C   UNL d   1      33.241  21.609 -21.710  0.00  0.00     0.142 A 
ENDROOT
BRANCH   2   9
ATOM      9  C   UNL d   1      33.003  19.090 -23.044  0.00  0.00     0.099 C 
BRANCH   9  10
ATOM     10  S   UNL d   1      32.884  18.667 -23.740  0.00  0.00    -0.041 SA
BRANCH  10  11
ATOM     11  C   UNL d   1      32.674  17.874 -23.708  0.00  0.00     0.233 A 
ATOM     12  N   UNL d   1      33.056  17.210 -23.390  0.00  0.00    -0.029 NA
ATOM     13  C   UNL d   1      32.574  16.557 -23.526  0.00  0.00     0.788 A 
ATOM     14  N   UNL d   1      31.905  16.799 -23.919  0.00  0.00     0.050 NA
ATOM     15  N   UNL d   1      32.754  15.770 -23.291  0.00  0.00     0.064 N 
ATOM     16  N   UNL d   1      31.958  17.618 -24.037  0.00  0.00    -0.105 NA
ENDBRANCH  10  11
ENDBRANCH   9  10
ENDBRANCH   2   9
TORSDOF 3
ENDMDL
MODEL 6
REMARK VINA RESULT:      -2.1      3.842      5.375
REMARK  3 active torsions:
REMARK  status: ('A' for Active; 'I' for Inactive)
REMARK    1  A    between atoms: S_8  and  C_2 
REMARK       I    between atoms: N_6  and  C_7 
REMARK    2  A    between atoms: C_7  and  C_9 
REMARK    3  A    between atoms: C_9  and  S_8 
ROOT
ATOM      1  N   UNL d   1      32.091  17.287 -23.940  0.00  0.00    -0.267 N 
ATOM      2  C   UNL d   1      31.693  16.606 -23.687  0.00  0.00     0.272 C 
ATOM      3  O   UNL d   1      32.060  16.089 -23.149  0.00  0.00    -0.266 OA
ATOM      4  O   UNL d   1      32.878  18.641 -24.448  0.00  0.00    -0.300 OA
ATOM      5  C   UNL d   1      32.846  17.451 -23.661  0.00  0.00     0.110 A 
ATOM      6  C   UNL d   1      31.728  17.798 -24.473  0.00  0.00     0.110 A 
ATOM      7  C   UNL d   1      32.120  18.474 -24.727  0.00  0.00     0.142 A 
ATOM      8  C   UNL d   1      33.241  18.130 -23.915  0.00  0.00     0.142 A 
ENDROOT
BRANCH   2   9
ATOM      9  C   UNL d   1      30.935  16.439 -23.966  0.00  0.00     0.099 C 
BRANCH   9  10
ATOM     10  S   UNL d   1      30.507  15.813 -23.646  0.00  0.00    -0.041 SA
BRANCH  10  11
ATOM     11  C   UNL d   1      29.708  15.731 -23.818  0.00  0.00     0.233 A 
ATOM     12  N   UNL d   1      29.026  15.854 -23.362  0.00  0.00    -0.029 NA
ATOM     13  C   UNL d   1      28.376  15.680 -23.836  0.00  0.00     0.788 A 
ATOM     14  N   UNL d   1      28.638  15.453 -24.571  0.00  0.00     0.050 NA
ATOM     15  N   UNL d   1      27.575  15.732 -23.589  0.00  0.00     0.064 N 
ATOM     16  N   UNL d   1      29.467  15.481 -24.569  0.00  0.00    -0.105 NA
ENDBRANCH  10  11
ENDBRANCH   9  10
ENDBRANCH   2   9
TORSDOF 3
ENDMDL
MODEL 7
REMARK VINA RESULT:      -1.7      3.049      5.279
REMARK  3 active torsions:
REMARK  status: ('A' for Active; 'I' for Inactive)
REMARK    1  A    between atoms: S_8  and  C_2 
REMARK       I    between atoms: N_6  and  C_7 
REMARK    2  A    between atoms: C_7  and  C_9 
REMARK    3  A    between atoms: C_9  and  S_8 
ROOT
ATOM      1  N   UNL d   1      33.000  22.940 -18.554  0.00  0.00    -0.267 N 
ATOM      2  C   UNL d   1      32.970  22.976 -19.381  0.00  0.00     0.272 C 
ATOM      3  O   UNL d   1      32.829  23.702 -19.759  0.00  0.00    -0.266 OA
ATOM      4  O   UNL d   1      33.061  22.865 -16.910  0.00  0.00    -0.300 OA
ATOM      5  C   UNL d   1      32.890  23.622 -18.108  0.00  0.00     0.110 A 
ATOM      6  C   UNL d   1      33.141  22.221 -18.180  0.00  0.00     0.110 A 
ATOM      7  C   UNL d   1      33.171  22.182 -17.360  0.00  0.00     0.142 A 
ATOM      8  C   UNL d   1      32.920  23.584 -17.284  0.00  0.00     0.142 A 
ENDROOT
BRANCH   2   9
ATOM      9  C   UNL d   1      33.081  22.293 -19.831  0.00  0.00     0.099 C 
BRANCH   9  10
ATOM     10  S   UNL d   1      32.815  22.266 -20.609  0.00  0.00    -0.041 SA
BRANCH  10  11
ATOM     11  C   UNL d   1      32.930  21.589 -21.060  0.00  0.00     0.233 A 
ATOM     12  N   UNL d   1      32.859  20.782 -20.881  0.00  0.00    -0.029 NA
ATOM     13  C   UNL d   1      33.048  20.358 -21.560  0.00  0.00     0.788 A 
ATOM     14  N   UNL d   1      33.233  20.881 -22.155  0.00  0.00     0.050 NA
ATOM     15  N   UNL d   1      33.045  19.520 -21.620  0.00  0.00     0.064 N 
ATOM     16  N   UNL d   1      33.163  21.650 -21.852  0.00  0.00    -0.105 NA
ENDBRANCH  10  11
ENDBRANCH   9  10
ENDBRANCH   2   9
TORSDOF 3
ENDMDL
MODEL 8
REMARK VINA RESULT:      -1.0      4.479      5.816
REMARK  3 active torsions:
REMARK  status: ('A' for Active; 'I' for Inactive)
REMARK    1  A    between atoms: S_8  and  C_2 
REMARK       I    between atoms: N_6  and  C_7 
REMARK    2  A    between atoms: C_7  and  C_9 
REMARK    3  A    between atoms: C_9  and  S_8 
ROOT
ATOM      1  N   UNL d   1      28.895  16.610 -23.862  0.00  0.00    -0.267 N 
ATOM      2  C   UNL d   1      29.447  17.044 -24.302  0.00  0.00     0.272 C 
ATOM      3  O   UNL d   1      29.225  17.769 -24.643  0.00  0.00    -0.266 OA
ATOM      4  O   UNL d   1      27.802  15.743 -22.987  0.00  0.00    -0.300 OA
ATOM      5  C   UNL d   1      28.131  16.895 -23.763  0.00  0.00     0.110 A 
ATOM      6  C   UNL d   1      29.115  15.893 -23.524  0.00  0.00     0.110 A 
ATOM      7  C   UNL d   1      28.570  15.460 -23.087  0.00  0.00     0.142 A 
ATOM      8  C   UNL d   1      27.582  16.461 -23.325  0.00  0.00     0.142 A 
ENDROOT
BRANCH   2   9
ATOM      9  C   UNL d   1      30.215  16.760 -24.402  0.00  0.00     0.099 C 
BRANCH   9  10
ATOM     10  S   UNL d   1      30.850  17.283 -24.401  0.00  0.00    -0.041 SA
BRANCH  10  11
ATOM     11  C   UNL d   1      31.613  17.005 -24.526  0.00  0.00     0.233 A 
ATOM     12  N   UNL d   1      31.901  16.276 -24.798  0.00  0.00    -0.029 NA
ATOM     13  C   UNL d   1      32.723  16.322 -24.809  0.00  0.00     0.788 A 
ATOM     14  N   UNL d   1      32.950  17.059 -24.551  0.00  0.00     0.050 NA
ATOM     15  N   UNL d   1      33.235  15.701 -25.049  0.00  0.00     0.064 N 
ATOM     16  N   UNL d   1      32.265  17.491 -24.372  0.00  0.00    -0.105 NA
ENDBRANCH  10  11
ENDBRANCH   9  10
ENDBRANCH   2   9
TORSDOF 3
ENDMDL
MODEL 9
REMARK VINA RESULT:      -0.7      2.016      4.291
REMARK  3 active torsions:
REMARK  status: ('A' for Active; 'I' for Inactive)
REMARK    1  A    between atoms: S_8  and  C_2 
REMARK       I    between atoms: N_6  and  C_7 
REMARK    2  A    between atoms: C_7  and  C_9 
REMARK    3  A    between atoms: C_9  and  S_8 
ROOT
ATOM      1  N   UNL d   1      33.084  19.743 -22.592  0.00  0.00    -0.267 N 
ATOM      2  C   UNL d   1      33.104  18.919 -22.676  0.00  0.00     0.272 C 
ATOM      3  O   UNL d   1      33.241  18.439 -22.011  0.00  0.00    -0.266 OA
ATOM      4  O   UNL d   1      33.044  21.381 -22.431  0.00  0.00    -0.300 OA
ATOM      5  C   UNL d   1      33.199  20.085 -21.854  0.00  0.00     0.110 A 
ATOM      6  C   UNL d   1      32.949  20.218 -23.250  0.00  0.00     0.110 A 
ATOM      7  C   UNL d   1      32.929  21.035 -23.171  0.00  0.00     0.142 A 
ATOM      8  C   UNL d   1      33.179  20.906 -21.772  0.00  0.00     0.142 A 
ENDROOT
BRANCH   2   9
ATOM      9  C   UNL d   1      32.989  18.574 -23.416  0.00  0.00     0.099 C 
BRANCH   9  10
ATOM     10  S   UNL d   1      33.068  17.759 -23.506  0.00  0.00    -0.041 SA
BRANCH  10  11
ATOM     11  C   UNL d   1      32.568  17.352 -24.015  0.00  0.00     0.233 A 
ATOM     12  N   UNL d   1      31.747  17.233 -24.012  0.00  0.00    -0.029 NA
ATOM     13  C   UNL d   1      31.559  16.775 -24.669  0.00  0.00     0.788 A 
ATOM     14  N   UNL d   1      32.241  16.607 -25.078  0.00  0.00     0.050 NA
ATOM     15  N   UNL d   1      30.783  16.526 -24.874  0.00  0.00     0.064 N 
ATOM     16  N   UNL d   1      32.875  16.963 -24.678  0.00  0.00    -0.105 NA
ENDBRANCH  10  11
ENDBRANCH   9  10
ENDBRANCH   2   9
TORSDOF 3
ENDMDL
