MODEL 1
REMARK VINA RESULT:      -7.5      0.000      0.000
REMARK  3 active torsions:
REMARK  status: ('A' for Active; 'I' for Inactive)
REMARK    1  A    between atoms: N_7  and  N_1 
REMARK    2  A    between atoms: N_2  and  N_8 
REMARK       I    between atoms: C_3  and  N_7 
REMARK    3  A    between atoms: C_4  and  C_3 
REMARK       I    between atoms: N_8  and  C_4 
ROOT
ATOM      1  C   UNL d   1     -49.065  13.498  21.497  0.00  0.00     0.355 C 
ATOM      2  N   UNL d   1     -49.561  14.127  21.605  0.00  0.00    -0.115 NA
ATOM      3  O   UNL d   1     -48.867  13.257  20.746  0.00  0.00    -0.258 OA
ENDROOT
BRANCH   1   4
ATOM      4  C   UNL d   1     -48.761  13.101  22.153  0.00  0.00     0.355 C 
ATOM      5  N   UNL d   1     -48.066  12.670  22.058  0.00  0.00    -0.115 NA
ATOM      6  O   UNL d   1     -49.027  13.130  22.645  0.00  0.00    -0.258 OA
BRANCH   5   7
ATOM      7  N   UNL d   1     -47.727  12.253  22.706  0.00  0.00    -0.175 N 
ATOM      8  C   UNL d   1     -47.023  12.480  22.984  0.00  0.00     0.170 A 
ATOM      9  S   UNL d   1     -46.838  11.938  23.645  0.00  0.00    -0.051 SA
ATOM     10  S   UNL d   1     -46.570  13.128  22.673  0.00  0.00    -0.050 SA
ATOM     11  C   UNL d   1     -47.485  11.415  23.696  0.00  0.00     0.100 A 
ATOM     12  C   UNL d   1     -48.026  11.625  23.106  0.00  0.00     0.288 A 
ATOM     13  O   UNL d   1     -48.763  11.251  22.948  0.00  0.00    -0.265 OA
ENDBRANCH   5   7
ENDBRANCH   1   4
BRANCH   2  14
ATOM     14  N   UNL d   1     -49.807  14.428  22.363  0.00  0.00    -0.175 N 
ATOM     15  C   UNL d   1     -50.449  14.218  22.819  0.00  0.00     0.170 A 
ATOM     16  S   UNL d   1     -50.405  14.684  23.479  0.00  0.00    -0.051 SA
ATOM     17  S   UNL d   1     -51.034  13.632  22.631  0.00  0.00    -0.050 SA
ATOM     18  C   UNL d   1     -49.780  15.165  23.459  0.00  0.00     0.100 A 
ATOM     19  C   UNL d   1     -49.381  15.035  22.777  0.00  0.00     0.288 A 
ATOM     20  O   UNL d   1     -48.984  15.238  22.607  0.00  0.00    -0.265 OA
ENDBRANCH   2  14
TORSDOF 3
ENDMDL
MODEL 2
REMARK VINA RESULT:      -7.4      0.393      3.451
REMARK  3 active torsions:
REMARK  status: ('A' for Active; 'I' for Inactive)
REMARK    1  A    between atoms: N_7  and  N_1 
REMARK    2  A    between atoms: N_2  and  N_8 
REMARK       I    between atoms: C_3  and  N_7 
REMARK    3  A    between atoms: C_4  and  C_3 
REMARK       I    between atoms: N_8  and  C_4 
ROOT
ATOM      1  C   UNL d   1     -48.599  13.155  21.619  0.00  0.00     0.355 C 
ATOM      2  N   UNL d   1     -48.068  12.562  21.760  0.00  0.00    -0.115 NA
ATOM      3  O   UNL d   1     -48.856  13.302  20.862  0.00  0.00    -0.258 OA
ENDROOT
BRANCH   1   4
ATOM      4  C   UNL d   1     -48.878  13.610  22.248  0.00  0.00     0.355 C 
ATOM      5  N   UNL d   1     -49.568  14.044  22.136  0.00  0.00    -0.115 NA
ATOM      6  O   UNL d   1     -48.598  13.617  22.734  0.00  0.00    -0.258 OA
BRANCH   5   7
ATOM      7  N   UNL d   1     -49.882  14.519  22.756  0.00  0.00    -0.175 N 
ATOM      8  C   UNL d   1     -50.572  14.317  23.083  0.00  0.00     0.170 A 
ATOM      9  S   UNL d   1     -50.733  14.918  23.698  0.00  0.00    -0.051 SA
ATOM     10  S   UNL d   1     -51.033  13.642  22.855  0.00  0.00    -0.050 SA
ATOM     11  C   UNL d   1     -50.088  15.446  23.672  0.00  0.00     0.100 A 
ATOM     12  C   UNL d   1     -49.571  15.182  23.082  0.00  0.00     0.288 A 
ATOM     13  O   UNL d   1     -48.844  15.542  22.858  0.00  0.00    -0.265 OA
ENDBRANCH   5   7
ENDBRANCH   1   4
BRANCH   2  14
ATOM     14  N   UNL d   1     -47.760  12.357  22.528  0.00  0.00    -0.175 N 
ATOM     15  C   UNL d   1     -47.099  12.639  22.912  0.00  0.00     0.170 A 
ATOM     16  S   UNL d   1     -47.079  12.249  23.620  0.00  0.00    -0.051 SA
ATOM     17  S   UNL d   1     -46.552  13.220  22.620  0.00  0.00    -0.050 SA
ATOM     18  C   UNL d   1     -47.682  11.747  23.697  0.00  0.00     0.100 A 
ATOM     19  C   UNL d   1     -48.131  11.785  23.036  0.00  0.00     0.288 A 
ATOM     20  O   UNL d   1     -48.529  11.551  22.917  0.00  0.00    -0.265 OA
ENDBRANCH   2  14
TORSDOF 3
ENDMDL
MODEL 3
REMARK VINA RESULT:      -6.8      1.391      2.104
REMARK  3 active torsions:
REMARK  status: ('A' for Active; 'I' for Inactive)
REMARK    1  A    between atoms: N_7  and  N_1 
REMARK    2  A    between atoms: N_2  and  N_8 
REMARK       I    between atoms: C_3  and  N_7 
REMARK    3  A    between atoms: C_4  and  C_3 
REMARK       I    between atoms: N_8  and  C_4 
ROOT
ATOM      1  C   UNL d   1     -49.165  12.556  21.458  0.00  0.00     0.355 C 
ATOM      2  N   UNL d   1     -49.895  12.283  21.671  0.00  0.00    -0.115 NA
ATOM      3  O   UNL d   1     -48.875  12.411  20.713  0.00  0.00    -0.258 OA
ENDROOT
BRANCH   1   4
ATOM      4  C   UNL d   1     -48.716  12.984  22.001  0.00  0.00     0.355 C 
ATOM      5  N   UNL d   1     -47.908  13.063  21.861  0.00  0.00    -0.115 NA
ATOM      6  O   UNL d   1     -48.962  13.212  22.451  0.00  0.00    -0.258 OA
BRANCH   5   7
ATOM      7  N   UNL d   1     -47.419  13.492  22.394  0.00  0.00    -0.175 N 
ATOM      8  C   UNL d   1     -46.863  13.107  22.802  0.00  0.00     0.170 A 
ATOM      9  S   UNL d   1     -46.463  13.708  23.295  0.00  0.00    -0.051 SA
ATOM     10  S   UNL d   1     -46.716  12.272  22.744  0.00  0.00    -0.050 SA
ATOM     11  C   UNL d   1     -46.842  14.431  23.121  0.00  0.00     0.100 A 
ATOM     12  C   UNL d   1     -47.432  14.277  22.561  0.00  0.00     0.288 A 
ATOM     13  O   UNL d   1     -47.957  14.840  22.221  0.00  0.00    -0.265 OA
ENDBRANCH   5   7
ENDBRANCH   1   4
BRANCH   2  14
ATOM     14  N   UNL d   1     -50.256  12.402  22.435  0.00  0.00    -0.175 N 
ATOM     15  C   UNL d   1     -50.750  12.999  22.685  0.00  0.00     0.170 A 
ATOM     16  S   UNL d   1     -50.919  12.828  23.457  0.00  0.00    -0.051 SA
ATOM     17  S   UNL d   1     -51.024  13.658  22.224  0.00  0.00    -0.050 SA
ATOM     18  C   UNL d   1     -50.562  12.167  23.697  0.00  0.00     0.100 A 
ATOM     19  C   UNL d   1     -50.138  11.870  23.087  0.00  0.00     0.288 A 
ATOM     20  O   UNL d   1     -49.865  11.480  23.059  0.00  0.00    -0.265 OA
ENDBRANCH   2  14
TORSDOF 3
ENDMDL
MODEL 4
REMARK VINA RESULT:      -6.8      1.561      2.884
REMARK  3 active torsions:
REMARK  status: ('A' for Active; 'I' for Inactive)
REMARK    1  A    between atoms: N_7  and  N_1 
REMARK    2  A    between atoms: N_2  and  N_8 
REMARK       I    between atoms: C_3  and  N_7 
REMARK    3  A    between atoms: C_4  and  C_3 
REMARK       I    between atoms: N_8  and  C_4 
ROOT
ATOM      1  C   UNL d   1     -48.222  12.770  21.459  0.00  0.00     0.355 C 
ATOM      2  N   UNL d   1     -47.481  13.075  21.563  0.00  0.00    -0.115 NA
ATOM      3  O   UNL d   1     -48.478  12.559  20.717  0.00  0.00    -0.258 OA
ENDROOT
BRANCH   1   4
ATOM      4  C   UNL d   1     -48.719  12.675  22.111  0.00  0.00     0.355 C 
ATOM      5  N   UNL d   1     -49.486  12.406  21.979  0.00  0.00    -0.115 NA
ATOM      6  O   UNL d   1     -48.530  12.793  22.626  0.00  0.00    -0.258 OA
BRANCH   5   7
ATOM      7  N   UNL d   1     -50.019  12.297  22.621  0.00  0.00    -0.175 N 
ATOM      8  C   UNL d   1     -50.629  12.793  22.702  0.00  0.00     0.170 A 
ATOM      9  S   UNL d   1     -51.064  12.527  23.412  0.00  0.00    -0.051 SA
ATOM     10  S   UNL d   1     -50.793  13.443  22.180  0.00  0.00    -0.050 SA
ATOM     11  C   UNL d   1     -50.647  11.864  23.697  0.00  0.00     0.100 A 
ATOM     12  C   UNL d   1     -50.002  11.736  23.194  0.00  0.00     0.288 A 
ATOM     13  O   UNL d   1     -49.426  11.128  23.264  0.00  0.00    -0.265 OA
ENDBRANCH   5   7
ENDBRANCH   1   4
BRANCH   2  14
ATOM     14  N   UNL d   1     -47.154  13.315  22.313  0.00  0.00    -0.175 N 
ATOM     15  C   UNL d   1     -47.173  14.045  22.675  0.00  0.00     0.170 A 
ATOM     16  S   UNL d   1     -46.776  13.949  23.372  0.00  0.00    -0.051 SA
ATOM     17  S   UNL d   1     -47.538  14.751  22.373  0.00  0.00    -0.050 SA
ATOM     18  C   UNL d   1     -46.514  13.210  23.463  0.00  0.00     0.100 A 
ATOM     19  C   UNL d   1     -46.730  12.783  22.822  0.00  0.00     0.288 A 
ATOM     20  O   UNL d   1     -46.654  12.325  22.714  0.00  0.00    -0.265 OA
ENDBRANCH   2  14
TORSDOF 3
ENDMDL
MODEL 5
REMARK VINA RESULT:      -5.7      8.859     10.071
REMARK  3 active torsions:
REMARK  status: ('A' for Active; 'I' for Inactive)
REMARK    1  A    between atoms: N_7  and  N_1 
REMARK    2  A    between atoms: N_2  and  N_8 
REMARK       I    between atoms: C_3  and  N_7 
REMARK    3  A    between atoms: C_4  and  C_3 
REMARK       I    between atoms: N_8  and  C_4 
ROOT
ATOM      1  C   UNL d   1     -40.735  14.182  18.483  0.00  0.00     0.355 C 
ATOM      2  N   UNL d   1     -40.618  14.288  17.691  0.00  0.00    -0.115 NA
ATOM      3  O   UNL d   1     -41.311  13.673  18.748  0.00  0.00    -0.258 OA
ENDROOT
BRANCH   1   4
ATOM      4  C   UNL d   1     -40.267  14.593  19.023  0.00  0.00     0.355 C 
ATOM      5  N   UNL d   1     -40.493  14.591  19.815  0.00  0.00    -0.115 NA
ATOM      6  O   UNL d   1     -39.808  14.864  18.846  0.00  0.00    -0.258 OA
BRANCH   5   7
ATOM      7  N   UNL d   1     -40.038  15.000  20.393  0.00  0.00    -0.175 N 
ATOM      8  C   UNL d   1     -40.355  15.624  20.760  0.00  0.00     0.170 A 
ATOM      9  S   UNL d   1     -39.744  15.913  21.316  0.00  0.00    -0.051 SA
ATOM     10  S   UNL d   1     -41.137  15.922  20.614  0.00  0.00    -0.050 SA
ATOM     11  C   UNL d   1     -39.091  15.405  21.218  0.00  0.00     0.100 A 
ATOM     12  C   UNL d   1     -39.292  14.845  20.642  0.00  0.00     0.288 A 
ATOM     13  O   UNL d   1     -38.803  14.220  20.361  0.00  0.00    -0.265 OA
ENDBRANCH   5   7
ENDBRANCH   1   4
BRANCH   2  14
ATOM     14  N   UNL d   1     -40.033  14.805  17.350  0.00  0.00    -0.175 N 
ATOM     15  C   UNL d   1     -39.272  14.638  17.112  0.00  0.00     0.170 A 
ATOM     16  S   UNL d   1     -38.976  15.337  16.833  0.00  0.00    -0.051 SA
ATOM     17  S   UNL d   1     -38.881  13.885  17.154  0.00  0.00    -0.050 SA
ATOM     18  C   UNL d   1     -39.504  15.921  16.883  0.00  0.00     0.100 A 
ATOM     19  C   UNL d   1     -40.177  15.629  17.201  0.00  0.00     0.288 A 
ATOM     20  O   UNL d   1     -40.592  15.843  17.300  0.00  0.00    -0.265 OA
ENDBRANCH   2  14
TORSDOF 3
ENDMDL
MODEL 6
REMARK VINA RESULT:      -5.2      9.316     10.307
REMARK  3 active torsions:
REMARK  status: ('A' for Active; 'I' for Inactive)
REMARK    1  A    between atoms: N_7  and  N_1 
REMARK    2  A    between atoms: N_2  and  N_8 
REMARK       I    between atoms: C_3  and  N_7 
REMARK    3  A    between atoms: C_4  and  C_3 
REMARK       I    between atoms: N_8  and  C_4 
ROOT
ATOM      1  C   UNL d   1     -38.766  13.987  19.635  0.00  0.00     0.355 C 
ATOM      2  N   UNL d   1     -38.741  14.153  20.426  0.00  0.00    -0.115 NA
ATOM      3  O   UNL d   1     -38.283  13.412  19.322  0.00  0.00    -0.258 OA
ENDROOT
BRANCH   1   4
ATOM      4  C   UNL d   1     -39.284  14.404  19.147  0.00  0.00     0.355 C 
ATOM      5  N   UNL d   1     -39.226  14.291  18.334  0.00  0.00    -0.115 NA
ATOM      6  O   UNL d   1     -39.661  14.752  19.373  0.00  0.00    -0.258 OA
BRANCH   5   7
ATOM      7  N   UNL d   1     -39.739  14.700  17.806  0.00  0.00    -0.175 N 
ATOM      8  C   UNL d   1     -39.449  15.291  17.370  0.00  0.00     0.170 A 
ATOM      9  S   UNL d   1     -40.118  15.590  16.891  0.00  0.00    -0.051 SA
ATOM     10  S   UNL d   1     -38.641  15.554  17.391  0.00  0.00    -0.050 SA
ATOM     11  C   UNL d   1     -40.773  15.120  17.102  0.00  0.00     0.100 A 
ATOM     12  C   UNL d   1     -40.519  14.574  17.671  0.00  0.00     0.288 A 
ATOM     13  O   UNL d   1     -40.991  13.987  18.046  0.00  0.00    -0.265 OA
ENDBRANCH   5   7
ENDBRANCH   1   4
BRANCH   2  14
ATOM     14  N   UNL d   1     -39.220  14.741  20.815  0.00  0.00    -0.175 N 
ATOM     15  C   UNL d   1     -39.042  15.516  20.993  0.00  0.00     0.170 A 
ATOM     16  S   UNL d   1     -39.701  15.808  21.360  0.00  0.00    -0.051 SA
ATOM     17  S   UNL d   1     -38.315  15.922  20.824  0.00  0.00    -0.050 SA
ATOM     18  C   UNL d   1     -40.270  15.265  21.420  0.00  0.00     0.100 A 
ATOM     19  C   UNL d   1     -40.008  14.585  21.090  0.00  0.00     0.288 A 
ATOM     20  O   UNL d   1     -40.222  14.162  21.041  0.00  0.00    -0.265 OA
ENDBRANCH   2  14
TORSDOF 3
ENDMDL
