MODEL 1
REMARK VINA RESULT:      -2.5      0.000      0.000
REMARK  9 active torsions:
REMARK  status: ('A' for Active; 'I' for Inactive)
REMARK    1  A    between atoms: C_19  and  N_1 
REMARK    2  A    between atoms: S_10  and  C_2 
REMARK    3  A    between atoms: N_8  and  C_9 
REMARK    4  A    between atoms: C_20  and  S_10 
REMARK    5  A    between atoms: C_11  and  C_20 
REMARK       I    between atoms: N_13  and  C_11 
REMARK    6  A    between atoms: C_15  and  N_13 
REMARK    7  A    between atoms: C_32  and  C_19 
REMARK    8  A    between atoms: O_25  and  C_22 
REMARK    9  A    between atoms: C_33  and  C_32 
ROOT
ATOM      1  N   UNL d   1      33.161  20.706 -22.934  0.00  0.00    -0.253 N 
ATOM      2  C   UNL d   1      33.112  19.934 -22.643  0.00  0.00     0.182 A 
ATOM      3  C   UNL d   1      33.131  21.343 -22.425  0.00  0.00     0.268 A 
ATOM      4  C   UNL d   1      33.052  21.206 -21.612  0.00  0.00     0.076 A 
ATOM      5  N   UNL d   1      33.034  19.796 -21.843  0.00  0.00    -0.222 NA
ATOM      6  C   UNL d   1      33.004  20.437 -21.323  0.00  0.00     0.088 A 
ATOM      7  C   UNL d   1      33.023  21.841 -21.108  0.00  0.00     0.024 A 
ATOM      8  C   UNL d   1      32.943  21.717 -20.286  0.00  0.00     0.065 A 
ATOM      9  O   UNL d   1      33.180  22.116 -22.717  0.00  0.00    -0.267 OA
ATOM     10  C   UNL d   1      32.925  20.302 -20.519  0.00  0.00     0.021 A 
ATOM     11  C   UNL d   1      32.895  20.940 -20.006  0.00  0.00     0.019 A 
ENDROOT
BRANCH   2  12
ATOM     12  S   UNL d   1      33.144  19.283 -23.173  0.00  0.00    -0.044 SA
BRANCH  12  13
ATOM     13  C   UNL d   1      32.898  18.538 -22.925  0.00  0.00     0.101 C 
BRANCH  13  14
ATOM     14  C   UNL d   1      32.457  18.063 -23.426  0.00  0.00     0.286 C 
ATOM     15  N   UNL d   1      32.244  17.312 -23.194  0.00  0.00    -0.207 NA
ATOM     16  O   UNL d   1      32.228  18.343 -24.167  0.00  0.00    -0.265 OA
BRANCH  15  17
ATOM     17  C   UNL d   1      31.798  16.825 -23.697  0.00  0.00     0.087 A 
ATOM     18  C   UNL d   1      31.002  17.003 -23.814  0.00  0.00     0.043 A 
ATOM     19  C   UNL d   1      30.556  16.516 -24.317  0.00  0.00     0.096 A 
ATOM     20  C   UNL d   1      30.901  15.872 -24.688  0.00  0.00     0.024 A 
ATOM     21  C   UNL d   1      31.700  15.703 -24.564  0.00  0.00     0.004 A 
ATOM     22  C   UNL d   1      32.143  16.181 -24.068  0.00  0.00     0.019 A 
BRANCH  19  23
ATOM     23  O   UNL d   1      29.746  16.690 -24.441  0.00  0.00    -0.328 OA
ATOM     24  C   UNL d   1      29.293  16.216 -24.925  0.00  0.00     0.181 C 
ENDBRANCH  19  23
ENDBRANCH  15  17
ENDBRANCH  13  14
ENDBRANCH  12  13
ENDBRANCH   2  12
BRANCH   1  25
ATOM     25  C   UNL d   1      33.241  20.830 -23.756  0.00  0.00     0.085 C 
BRANCH  25  26
ATOM     26  C   UNL d   1      33.227  21.594 -24.050  0.00  0.00     0.019 C 
BRANCH  26  27
ATOM     27  C   UNL d   1      33.030  21.730 -24.841  0.00  0.00     0.002 C 
ATOM     28  C   UNL d   1      32.771  22.481 -25.077  0.00  0.00     0.000 C 
ENDBRANCH  26  27
ENDBRANCH  25  26
ENDBRANCH   1  25
BRANCH   8  29
ATOM     29  N   UNL d   1      32.912  22.354 -19.764  0.00  0.00    -0.300 N 
ATOM     30  C   UNL d   1      33.236  22.277 -19.004  0.00  0.00     0.107 A 
ATOM     31  C   UNL d   1      33.199  22.923 -18.489  0.00  0.00     0.142 A 
ATOM     32  O   UNL d   1      32.845  23.637 -18.728  0.00  0.00    -0.300 OA
ATOM     33  C   UNL d   1      32.525  23.700 -19.492  0.00  0.00     0.142 A 
ATOM     34  C   UNL d   1      32.557  23.060 -20.013  0.00  0.00     0.107 A 
ENDBRANCH   8  29
TORSDOF 9
ENDMDL
MODEL 2
REMARK VINA RESULT:      -1.4      0.930      6.107
REMARK  9 active torsions:
REMARK  status: ('A' for Active; 'I' for Inactive)
REMARK    1  A    between atoms: C_19  and  N_1 
REMARK    2  A    between atoms: S_10  and  C_2 
REMARK    3  A    between atoms: N_8  and  C_9 
REMARK    4  A    between atoms: C_20  and  S_10 
REMARK    5  A    between atoms: C_11  and  C_20 
REMARK       I    between atoms: N_13  and  C_11 
REMARK    6  A    between atoms: C_15  and  N_13 
REMARK    7  A    between atoms: C_32  and  C_19 
REMARK    8  A    between atoms: O_25  and  C_22 
REMARK    9  A    between atoms: C_33  and  C_32 
ROOT
ATOM      1  N   UNL d   1      32.986  20.371 -23.745  0.00  0.00    -0.253 N 
ATOM      2  C   UNL d   1      32.972  20.392 -22.918  0.00  0.00     0.182 A 
ATOM      3  C   UNL d   1      32.760  19.699 -24.146  0.00  0.00     0.268 A 
ATOM      4  C   UNL d   1      32.517  19.034 -23.716  0.00  0.00     0.076 A 
ATOM      5  N   UNL d   1      32.733  19.739 -22.492  0.00  0.00    -0.222 NA
ATOM      6  C   UNL d   1      32.503  19.055 -22.893  0.00  0.00     0.088 A 
ATOM      7  C   UNL d   1      32.293  18.366 -24.117  0.00  0.00     0.024 A 
ATOM      8  C   UNL d   1      32.046  17.690 -23.694  0.00  0.00     0.065 A 
ATOM      9  O   UNL d   1      32.774  19.678 -24.974  0.00  0.00    -0.267 OA
ATOM     10  C   UNL d   1      32.263  18.399 -22.467  0.00  0.00     0.021 A 
ATOM     11  C   UNL d   1      32.036  17.721 -22.868  0.00  0.00     0.019 A 
ENDROOT
BRANCH   2  12
ATOM     12  S   UNL d   1      33.205  21.089 -22.512  0.00  0.00    -0.044 SA
BRANCH  12  13
ATOM     13  C   UNL d   1      33.241  21.093 -21.690  0.00  0.00     0.101 C 
BRANCH  13  14
ATOM     14  C   UNL d   1      33.017  21.762 -21.273  0.00  0.00     0.286 C 
ATOM     15  N   UNL d   1      32.793  21.700 -20.492  0.00  0.00    -0.207 NA
ATOM     16  O   UNL d   1      33.018  22.499 -21.642  0.00  0.00    -0.265 OA
BRANCH  15  17
ATOM     17  C   UNL d   1      32.565  22.374 -20.063  0.00  0.00     0.087 A 
ATOM     18  C   UNL d   1      32.944  22.534 -19.350  0.00  0.00     0.043 A 
ATOM     19  C   UNL d   1      32.716  23.208 -18.922  0.00  0.00     0.096 A 
ATOM     20  C   UNL d   1      32.126  23.702 -19.204  0.00  0.00     0.024 A 
ATOM     21  C   UNL d   1      31.752  23.531 -19.921  0.00  0.00     0.004 A 
ATOM     22  C   UNL d   1      31.975  22.868 -20.346  0.00  0.00     0.019 A 
BRANCH  19  23
ATOM     23  O   UNL d   1      33.097  23.378 -18.196  0.00  0.00    -0.328 OA
ATOM     24  C   UNL d   1      33.091  22.831 -17.591  0.00  0.00     0.181 C 
ENDBRANCH  19  23
ENDBRANCH  15  17
ENDBRANCH  13  14
ENDBRANCH  12  13
ENDBRANCH   2  12
BRANCH   1  25
ATOM     25  C   UNL d   1      33.233  21.048 -24.167  0.00  0.00     0.085 C 
BRANCH  25  26
ATOM     26  C   UNL d   1      32.690  21.459 -24.622  0.00  0.00     0.019 C 
BRANCH  26  27
ATOM     27  C   UNL d   1      32.903  22.174 -24.976  0.00  0.00     0.002 C 
ATOM     28  C   UNL d   1      32.362  22.800 -24.996  0.00  0.00     0.000 C 
ENDBRANCH  26  27
ENDBRANCH  25  26
ENDBRANCH   1  25
BRANCH   8  29
ATOM     29  N   UNL d   1      31.816  17.005 -24.092  0.00  0.00    -0.300 N 
ATOM     30  C   UNL d   1      31.011  16.867 -24.239  0.00  0.00     0.107 A 
ATOM     31  C   UNL d   1      30.793  16.176 -24.639  0.00  0.00     0.142 A 
ATOM     32  O   UNL d   1      31.368  15.630 -24.888  0.00  0.00    -0.300 OA
ATOM     33  C   UNL d   1      32.171  15.781 -24.734  0.00  0.00     0.142 A 
ATOM     34  C   UNL d   1      32.398  16.468 -24.335  0.00  0.00     0.107 A 
ENDBRANCH   8  29
TORSDOF 9
ENDMDL
