MODEL 1
REMARK VINA RESULT:      -3.0      0.000      0.000
REMARK  4 active torsions:
REMARK  status: ('A' for Active; 'I' for Inactive)
REMARK    1  A    between atoms: N_7  and  C_2 
REMARK    2  A    between atoms: C_5  and  C_10 
REMARK    3  A    between atoms: N_6  and  N_7 
REMARK    4  A    between atoms: C_10  and  N_6 
ROOT
ATOM      1  C   UNL d   1      33.221  19.490 -22.108  0.00  0.00     0.125 C 
ENDROOT
BRANCH   1   2
ATOM      2  C   UNL d   1      33.181  19.175 -22.882  0.00  0.00     0.060 A 
ATOM      3  C   UNL d   1      33.092  18.357 -22.992  0.00  0.00     0.197 A 
ATOM      4  C   UNL d   1      33.052  18.047 -23.765  0.00  0.00     0.043 A 
ATOM      5  O   UNL d   1      33.041  17.840 -22.354  0.00  0.00    -0.286 OA
ATOM      6  C   UNL d   1      33.101  18.548 -24.409  0.00  0.00     0.010 A 
ATOM      7  C   UNL d   1      33.189  19.359 -24.292  0.00  0.00     0.035 A 
ATOM      8  C   UNL d   1      33.230  19.685 -23.540  0.00  0.00     0.011 A 
ATOM      9 BR   UNL d   1      33.240  19.884 -24.953  0.00  0.00    -0.049 Br
ENDBRANCH   1   2
BRANCH   1  10
ATOM     10  N   UNL d   1      32.996  20.286 -21.943  0.00  0.00    -0.144 NA
BRANCH  10  11
ATOM     11  N   UNL d   1      33.001  20.566 -21.188  0.00  0.00    -0.121 NA
BRANCH  11  12
ATOM     12  C   UNL d   1      32.724  21.331 -21.029  0.00  0.00     0.217 A 
ATOM     13  N   UNL d   1      32.054  21.719 -21.242  0.00  0.00    -0.181 NA
ATOM     14  C   UNL d   1      32.087  22.451 -20.925  0.00  0.00     0.288 A 
ATOM     15  O   UNL d   1      31.511  23.035 -21.005  0.00  0.00    -0.265 OA
ATOM     16  C   UNL d   1      32.756  22.550 -20.512  0.00  0.00     0.101 A 
ATOM     17  S   UNL d   1      33.184  21.845 -20.563  0.00  0.00    -0.041 SA
ENDBRANCH  11  12
ENDBRANCH  10  11
ENDBRANCH   1  10
TORSDOF 4
ENDMDL
MODEL 2
REMARK VINA RESULT:      -3.0      1.555      1.910
REMARK  4 active torsions:
REMARK  status: ('A' for Active; 'I' for Inactive)
REMARK    1  A    between atoms: N_7  and  C_2 
REMARK    2  A    between atoms: C_5  and  C_10 
REMARK    3  A    between atoms: N_6  and  N_7 
REMARK    4  A    between atoms: C_10  and  N_6 
ROOT
ATOM      1  C   UNL d   1      33.124  18.732 -23.176  0.00  0.00     0.125 C 
ENDROOT
BRANCH   1   2
ATOM      2  C   UNL d   1      32.647  18.276 -23.692  0.00  0.00     0.060 A 
ATOM      3  C   UNL d   1      32.599  18.477 -24.496  0.00  0.00     0.197 A 
ATOM      4  C   UNL d   1      32.123  18.020 -25.007  0.00  0.00     0.043 A 
ATOM      5  O   UNL d   1      33.010  19.118 -24.805  0.00  0.00    -0.286 OA
ATOM      6  C   UNL d   1      31.708  17.380 -24.714  0.00  0.00     0.010 A 
ATOM      7  C   UNL d   1      31.762  17.187 -23.914  0.00  0.00     0.035 A 
ATOM      8  C   UNL d   1      32.224  17.622 -23.394  0.00  0.00     0.011 A 
ATOM      9 BR   UNL d   1      31.336  16.525 -23.604  0.00  0.00    -0.049 Br
ENDBRANCH   1   2
BRANCH   1  10
ATOM     10  N   UNL d   1      32.786  19.291 -22.642  0.00  0.00    -0.144 NA
BRANCH  10  11
ATOM     11  N   UNL d   1      33.227  19.609 -22.048  0.00  0.00    -0.121 NA
BRANCH  11  12
ATOM     12  C   UNL d   1      32.919  20.227 -21.589  0.00  0.00     0.217 A 
ATOM     13  N   UNL d   1      32.330  20.757 -21.722  0.00  0.00    -0.181 NA
ATOM     14  C   UNL d   1      32.279  21.227 -21.078  0.00  0.00     0.288 A 
ATOM     15  O   UNL d   1      31.746  21.848 -20.979  0.00  0.00    -0.265 OA
ATOM     16  C   UNL d   1      32.816  21.019 -20.534  0.00  0.00     0.101 A 
ATOM     17  S   UNL d   1      33.240  20.379 -20.837  0.00  0.00    -0.041 SA
ENDBRANCH  11  12
ENDBRANCH  10  11
ENDBRANCH   1  10
TORSDOF 4
ENDMDL
MODEL 3
REMARK VINA RESULT:      -2.5      3.211      4.048
REMARK  4 active torsions:
REMARK  status: ('A' for Active; 'I' for Inactive)
REMARK    1  A    between atoms: N_7  and  C_2 
REMARK    2  A    between atoms: C_5  and  C_10 
REMARK    3  A    between atoms: N_6  and  N_7 
REMARK    4  A    between atoms: C_10  and  N_6 
ROOT
ATOM      1  C   UNL d   1      31.456  16.659 -23.855  0.00  0.00     0.125 C 
ENDROOT
BRANCH   1   2
ATOM      2  C   UNL d   1      30.635  16.516 -23.934  0.00  0.00     0.060 A 
ATOM      3  C   UNL d   1      30.270  15.931 -23.471  0.00  0.00     0.197 A 
ATOM      4  C   UNL d   1      29.452  15.792 -23.552  0.00  0.00     0.043 A 
ATOM      5  O   UNL d   1      30.697  15.482 -22.930  0.00  0.00    -0.286 OA
ATOM      6  C   UNL d   1      29.015  16.230 -24.086  0.00  0.00     0.010 A 
ATOM      7  C   UNL d   1      29.384  16.810 -24.542  0.00  0.00     0.035 A 
ATOM      8  C   UNL d   1      30.188  16.963 -24.477  0.00  0.00     0.011 A 
ATOM      9 BR   UNL d   1      28.938  17.268 -25.096  0.00  0.00    -0.049 Br
ENDBRANCH   1   2
BRANCH   1  10
ATOM     10  N   UNL d   1      31.766  17.442 -23.818  0.00  0.00    -0.144 NA
BRANCH  10  11
ATOM     11  N   UNL d   1      32.546  17.568 -23.662  0.00  0.00    -0.121 NA
BRANCH  11  12
ATOM     12  C   UNL d   1      32.786  18.269 -23.290  0.00  0.00     0.217 A 
ATOM     13  N   UNL d   1      32.837  18.480 -22.517  0.00  0.00    -0.181 NA
ATOM     14  C   UNL d   1      33.106  19.232 -22.489  0.00  0.00     0.288 A 
ATOM     15  O   UNL d   1      33.241  19.668 -21.803  0.00  0.00    -0.265 OA
ATOM     16  C   UNL d   1      33.232  19.513 -23.219  0.00  0.00     0.101 A 
ATOM     17  S   UNL d   1      33.034  18.915 -23.752  0.00  0.00    -0.041 SA
ENDBRANCH  11  12
ENDBRANCH  10  11
ENDBRANCH   1  10
TORSDOF 4
ENDMDL
MODEL 4
REMARK VINA RESULT:      -2.4      3.820      5.070
REMARK  4 active torsions:
REMARK  status: ('A' for Active; 'I' for Inactive)
REMARK    1  A    between atoms: N_7  and  C_2 
REMARK    2  A    between atoms: C_5  and  C_10 
REMARK    3  A    between atoms: N_6  and  N_7 
REMARK    4  A    between atoms: C_10  and  N_6 
ROOT
ATOM      1  C   UNL d   1      32.008  16.806 -23.864  0.00  0.00     0.125 C 
ENDROOT
BRANCH   1   2
ATOM      2  C   UNL d   1      32.413  17.538 -23.829  0.00  0.00     0.060 A 
ATOM      3  C   UNL d   1      32.839  17.744 -23.148  0.00  0.00     0.197 A 
ATOM      4  C   UNL d   1      33.241  18.474 -23.117  0.00  0.00     0.043 A 
ATOM      5  O   UNL d   1      32.876  17.243 -22.496  0.00  0.00    -0.286 OA
ATOM      6  C   UNL d   1      33.213  18.982 -23.757  0.00  0.00     0.010 A 
ATOM      7  C   UNL d   1      32.787  18.771 -24.430  0.00  0.00     0.035 A 
ATOM      8  C   UNL d   1      32.385  18.057 -24.482  0.00  0.00     0.011 A 
ATOM      9 BR   UNL d   1      32.754  19.291 -25.097  0.00  0.00    -0.049 Br
ENDBRANCH   1   2
BRANCH   1  10
ATOM     10  N   UNL d   1      31.179  16.767 -24.016  0.00  0.00    -0.144 NA
BRANCH  10  11
ATOM     11  N   UNL d   1      30.807  16.056 -24.081  0.00  0.00    -0.121 NA
BRANCH  11  12
ATOM     12  C   UNL d   1      29.979  16.022 -24.096  0.00  0.00     0.217 A 
ATOM     13  N   UNL d   1      29.416  16.309 -23.599  0.00  0.00    -0.181 NA
ATOM     14  C   UNL d   1      28.704  16.106 -23.898  0.00  0.00     0.288 A 
ATOM     15  O   UNL d   1      27.974  16.289 -23.562  0.00  0.00    -0.265 OA
ATOM     16  C   UNL d   1      28.787  15.697 -24.571  0.00  0.00     0.101 A 
ATOM     17  S   UNL d   1      29.596  15.629 -24.722  0.00  0.00    -0.041 SA
ENDBRANCH  11  12
ENDBRANCH  10  11
ENDBRANCH   1  10
TORSDOF 4
ENDMDL
MODEL 5
REMARK VINA RESULT:      -2.2      3.017      4.598
REMARK  4 active torsions:
REMARK  status: ('A' for Active; 'I' for Inactive)
REMARK    1  A    between atoms: N_7  and  C_2 
REMARK    2  A    between atoms: C_5  and  C_10 
REMARK    3  A    between atoms: N_6  and  N_7 
REMARK    4  A    between atoms: C_10  and  N_6 
ROOT
ATOM      1  C   UNL d   1      33.190  18.412 -23.537  0.00  0.00     0.125 C 
ENDROOT
BRANCH   1   2
ATOM      2  C   UNL d   1      33.204  19.175 -23.193  0.00  0.00     0.060 A 
ATOM      3  C   UNL d   1      33.227  19.848 -23.679  0.00  0.00     0.197 A 
ATOM      4  C   UNL d   1      33.241  20.607 -23.332  0.00  0.00     0.043 A 
ATOM      5  O   UNL d   1      33.236  19.787 -24.499  0.00  0.00    -0.286 OA
ATOM      6  C   UNL d   1      33.232  20.683 -22.519  0.00  0.00     0.010 A 
ATOM      7  C   UNL d   1      33.210  20.011 -22.043  0.00  0.00     0.035 A 
ATOM      8  C   UNL d   1      33.196  19.255 -22.363  0.00  0.00     0.011 A 
ATOM      9 BR   UNL d   1      33.201  20.082 -21.200  0.00  0.00    -0.049 Br
ENDBRANCH   1   2
BRANCH   1  10
ATOM     10  N   UNL d   1      32.501  17.927 -23.507  0.00  0.00    -0.144 NA
BRANCH  10  11
ATOM     11  N   UNL d   1      32.517  17.173 -23.788  0.00  0.00    -0.121 NA
BRANCH  11  12
ATOM     12  C   UNL d   1      31.823  16.720 -23.800  0.00  0.00     0.217 A 
ATOM     13  N   UNL d   1      31.423  16.328 -23.224  0.00  0.00    -0.181 NA
ATOM     14  C   UNL d   1      30.785  15.987 -23.561  0.00  0.00     0.288 A 
ATOM     15  O   UNL d   1      30.223  15.529 -23.170  0.00  0.00    -0.265 OA
ATOM     16  C   UNL d   1      30.759  16.145 -24.337  0.00  0.00     0.101 A 
ATOM     17  S   UNL d   1      31.413  16.615 -24.517  0.00  0.00    -0.041 SA
ENDBRANCH  11  12
ENDBRANCH  10  11
ENDBRANCH   1  10
TORSDOF 4
ENDMDL
MODEL 6
REMARK VINA RESULT:      -2.1      4.037      5.022
REMARK  4 active torsions:
REMARK  status: ('A' for Active; 'I' for Inactive)
REMARK    1  A    between atoms: N_7  and  C_2 
REMARK    2  A    between atoms: C_5  and  C_10 
REMARK    3  A    between atoms: N_6  and  N_7 
REMARK    4  A    between atoms: C_10  and  N_6 
ROOT
ATOM      1  C   UNL d   1      30.146  17.122 -24.814  0.00  0.00     0.125 C 
ENDROOT
BRANCH   1   2
ATOM      2  C   UNL d   1      29.556  16.780 -24.328  0.00  0.00     0.060 A 
ATOM      3  C   UNL d   1      28.755  16.936 -24.477  0.00  0.00     0.197 A 
ATOM      4  C   UNL d   1      28.171  16.593 -23.991  0.00  0.00     0.043 A 
ATOM      5  O   UNL d   1      28.519  17.424 -25.096  0.00  0.00    -0.286 OA
ATOM      6  C   UNL d   1      28.389  16.106 -23.372  0.00  0.00     0.010 A 
ATOM      7  C   UNL d   1      29.188  15.955 -23.231  0.00  0.00     0.035 A 
ATOM      8  C   UNL d   1      29.779  16.283 -23.697  0.00  0.00     0.011 A 
ATOM      9 BR   UNL d   1      29.422  15.453 -22.592  0.00  0.00    -0.049 Br
ENDBRANCH   1   2
BRANCH   1  10
ATOM     10  N   UNL d   1      30.897  17.349 -24.504  0.00  0.00    -0.144 NA
BRANCH  10  11
ATOM     11  N   UNL d   1      31.347  17.901 -24.880  0.00  0.00    -0.121 NA
BRANCH  11  12
ATOM     12  C   UNL d   1      31.997  18.238 -24.493  0.00  0.00     0.217 A 
ATOM     13  N   UNL d   1      32.094  18.524 -23.749  0.00  0.00    -0.181 NA
ATOM     14  C   UNL d   1      32.847  18.783 -23.686  0.00  0.00     0.288 A 
ATOM     15  O   UNL d   1      33.184  19.119 -23.013  0.00  0.00    -0.265 OA
ATOM     16  C   UNL d   1      33.240  18.674 -24.365  0.00  0.00     0.101 A 
ATOM     17  S   UNL d   1      32.717  18.326 -24.901  0.00  0.00    -0.041 SA
ENDBRANCH  11  12
ENDBRANCH  10  11
ENDBRANCH   1  10
TORSDOF 4
ENDMDL
MODEL 7
REMARK VINA RESULT:      -0.6      2.863      5.477
REMARK  4 active torsions:
REMARK  status: ('A' for Active; 'I' for Inactive)
REMARK    1  A    between atoms: N_7  and  C_2 
REMARK    2  A    between atoms: C_5  and  C_10 
REMARK    3  A    between atoms: N_6  and  N_7 
REMARK    4  A    between atoms: C_10  and  N_6 
ROOT
ATOM      1  C   UNL d   1      33.122  23.003 -19.554  0.00  0.00     0.125 C 
ENDROOT
BRANCH   1   2
ATOM      2  C   UNL d   1      32.762  23.197 -18.823  0.00  0.00     0.060 A 
ATOM      3  C   UNL d   1      31.994  23.510 -18.811  0.00  0.00     0.197 A 
ATOM      4  C   UNL d   1      31.638  23.702 -18.081  0.00  0.00     0.043 A 
ATOM      5  O   UNL d   1      31.569  23.638 -19.504  0.00  0.00    -0.286 OA
ATOM      6  C   UNL d   1      32.048  23.582 -17.384  0.00  0.00     0.010 A 
ATOM      7  C   UNL d   1      32.811  23.270 -17.405  0.00  0.00     0.035 A 
ATOM      8  C   UNL d   1      33.179  23.074 -18.112  0.00  0.00     0.011 A 
ATOM      9 BR   UNL d   1      33.241  23.142 -16.688  0.00  0.00    -0.049 Br
ENDBRANCH   1   2
BRANCH   1  10
ATOM     10  N   UNL d   1      32.927  22.293 -19.967  0.00  0.00    -0.144 NA
BRANCH  10  11
ATOM     11  N   UNL d   1      33.238  22.143 -20.694  0.00  0.00    -0.121 NA
BRANCH  11  12
ATOM     12  C   UNL d   1      33.148  21.394 -21.037  0.00  0.00     0.217 A 
ATOM     13  N   UNL d   1      33.117  20.656 -20.721  0.00  0.00    -0.181 NA
ATOM     14  C   UNL d   1      33.023  20.140 -21.323  0.00  0.00     0.288 A 
ATOM     15  O   UNL d   1      32.964  19.321 -21.248  0.00  0.00    -0.265 OA
ATOM     16  C   UNL d   1      32.991  20.520 -22.018  0.00  0.00     0.101 A 
ATOM     17  S   UNL d   1      33.070  21.327 -21.862  0.00  0.00    -0.041 SA
ENDBRANCH  11  12
ENDBRANCH  10  11
ENDBRANCH   1  10
TORSDOF 4
ENDMDL
MODEL 8
REMARK VINA RESULT:      -0.2      3.695      4.545
REMARK  4 active torsions:
REMARK  status: ('A' for Active; 'I' for Inactive)
REMARK    1  A    between atoms: N_7  and  C_2 
REMARK    2  A    between atoms: C_5  and  C_10 
REMARK    3  A    between atoms: N_6  and  N_7 
REMARK    4  A    between atoms: C_10  and  N_6 
ROOT
ATOM      1  C   UNL d   1      32.234  22.707 -21.184  0.00  0.00     0.125 C 
ENDROOT
BRANCH   1   2
ATOM      2  C   UNL d   1      32.542  22.528 -20.426  0.00  0.00     0.060 A 
ATOM      3  C   UNL d   1      32.731  21.744 -20.231  0.00  0.00     0.197 A 
ATOM      4  C   UNL d   1      33.038  21.569 -19.475  0.00  0.00     0.043 A 
ATOM      5  O   UNL d   1      32.623  21.129 -20.766  0.00  0.00    -0.286 OA
ATOM      6  C   UNL d   1      33.151  22.170 -18.933  0.00  0.00     0.010 A 
ATOM      7  C   UNL d   1      32.961  22.946 -19.134  0.00  0.00     0.035 A 
ATOM      8  C   UNL d   1      32.658  23.140 -19.872  0.00  0.00     0.011 A 
ATOM      9 BR   UNL d   1      33.075  23.573 -18.578  0.00  0.00    -0.049 Br
ENDBRANCH   1   2
BRANCH   1  10
ATOM     10  N   UNL d   1      32.644  23.214 -21.719  0.00  0.00    -0.144 NA
BRANCH  10  11
ATOM     11  N   UNL d   1      32.238  23.701 -22.215  0.00  0.00    -0.121 NA
BRANCH  11  12
ATOM     12  C   UNL d   1      32.384  23.676 -23.030  0.00  0.00     0.217 A 
ATOM     13  N   UNL d   1      31.895  23.628 -23.666  0.00  0.00    -0.181 NA
ATOM     14  C   UNL d   1      32.350  23.624 -24.322  0.00  0.00     0.288 A 
ATOM     15  O   UNL d   1      32.074  23.580 -25.097  0.00  0.00    -0.265 OA
ATOM     16  C   UNL d   1      33.119  23.668 -24.132  0.00  0.00     0.101 A 
ATOM     17  S   UNL d   1      33.168  23.702 -23.308  0.00  0.00    -0.041 SA
ENDBRANCH  11  12
ENDBRANCH  10  11
ENDBRANCH   1  10
TORSDOF 4
ENDMDL
