MODEL 1
REMARK VINA RESULT:      14.6      0.000      0.000
REMARK  4 active torsions:
REMARK  status: ('A' for Active; 'I' for Inactive)
REMARK    1  A    between atoms: C_6  and  C_2 
REMARK    2  A    between atoms: C_8  and  C_6 
REMARK    3  A    between atoms: C_7  and  C_9 
REMARK    4  A    between atoms: C_9  and  C_8 
ROOT
ATOM      1  C   UNL d   1     -57.816 -98.756 -44.780  0.00  0.00     0.006 C 
ENDROOT
BRANCH   1   2
ATOM      2  C   UNL d   1     -58.504 -98.761 -44.332  0.00  0.00     0.039 A 
ATOM      3  C   UNL d   1     -59.301 -98.772 -44.545  0.00  0.00     0.103 A 
ATOM      4  N   UNL d   1     -59.747 -98.773 -43.854  0.00  0.00    -0.165 NA
ATOM      5  C   UNL d   1     -59.550 -98.780 -45.333  0.00  0.00     0.022 C 
ATOM      6  N   UNL d   1     -59.232 -98.762 -43.221  0.00  0.00    -0.225 N 
ATOM      7  C   UNL d   1     -58.464 -98.755 -43.512  0.00  0.00     0.102 A 
ATOM      8  C   UNL d   1     -59.456 -98.760 -42.426  0.00  0.00     0.121 C 
ENDBRANCH   1   2
BRANCH   1   9
ATOM      9  C   UNL d   1     -57.081 -98.787 -44.407  0.00  0.00     0.043 C 
BRANCH   9  10
ATOM     10  C   UNL d   1     -56.397 -98.954 -44.851  0.00  0.00     0.202 C 
ATOM     11  O   UNL d   1     -56.371 -98.758 -45.647  0.00  0.00    -0.286 OA
BRANCH  10  12
ATOM     12  C   UNL d   1     -55.745 -99.320 -44.484  0.00  0.00     0.068 A 
ATOM     13  S   UNL d   1     -55.096 -99.233 -43.988  0.00  0.00    -0.083 SA
ATOM     14  C   UNL d   1     -54.720 -99.965 -43.929  0.00  0.00     0.035 A 
ATOM     15  C   UNL d   1     -55.139-100.506 -44.392  0.00  0.00     0.008 A 
ATOM     16  C   UNL d   1     -55.776-100.105 -44.737  0.00  0.00     0.010 A 
ENDBRANCH  10  12
ENDBRANCH   9  10
ENDBRANCH   1   9
TORSDOF 4
ENDMDL
