MODEL 1
REMARK VINA RESULT:      45.3      0.000      0.000
REMARK  7 active torsions:
REMARK  status: ('A' for Active; 'I' for Inactive)
REMARK    1  A    between atoms: S_10  and  C_5 
REMARK    2  A    between atoms: C_11  and  N_8 
REMARK    3  A    between atoms: C_15  and  S_10 
REMARK    4  A    between atoms: C_19  and  C_11 
REMARK    5  A    between atoms: C_14  and  C_15 
REMARK    6  A    between atoms: C_17  and  C_14 
REMARK    7  A    between atoms: C_20  and  C_19 
ROOT
ATOM      1  C   UNL d   1      14.615  15.334  -2.006  0.00  0.00     0.174 A 
ATOM      2  C   UNL d   1      14.831  14.911  -1.332  0.00  0.00     0.159 A 
ATOM      3  N   UNL d   1      14.242  14.822  -2.525  0.00  0.00    -0.203 NA
ATOM      4  N   UNL d   1      14.791  16.154  -2.062  0.00  0.00    -0.239 N 
ATOM      5  C   UNL d   1      14.244  14.084  -2.136  0.00  0.00     0.181 A 
ATOM      6  C   UNL d   1      15.166  16.532  -1.470  0.00  0.00     0.358 A 
ATOM      7  N   UNL d   1      15.391  16.092  -0.770  0.00  0.00    -0.152 NA
ATOM      8  N   UNL d   1      14.586  14.147  -1.449  0.00  0.00    -0.279 N 
ATOM      9  C   UNL d   1      15.228  15.299  -0.700  0.00  0.00     0.302 A 
ATOM     10  O   UNL d   1      15.330  17.343  -1.548  0.00  0.00    -0.244 OA
ATOM     11  O   UNL d   1      15.454  14.899  -0.015  0.00  0.00    -0.263 OA
ATOM     12  C   UNL d   1      14.586  16.599  -2.726  0.00  0.00     0.105 C 
ENDROOT
BRANCH   5  13
ATOM     13  S   UNL d   1      13.921  13.379  -2.448  0.00  0.00    -0.046 SA
BRANCH  13  14
ATOM     14  C   UNL d   1      13.637  13.354  -3.219  0.00  0.00     0.080 C 
BRANCH  14  15
ATOM     15  C   UNL d   1      13.271  12.667  -3.508  0.00  0.00     0.202 C 
ATOM     16  O   UNL d   1      13.055  12.087  -2.984  0.00  0.00    -0.286 OA
BRANCH  15  17
ATOM     17  C   UNL d   1      13.132  12.584  -4.317  0.00  0.00     0.040 A 
ATOM     18  C   UNL d   1      12.931  11.862  -4.633  0.00  0.00     0.003 A 
ATOM     19  C   UNL d   1      12.792  11.779  -5.442  0.00  0.00     0.000 A 
ATOM     20  C   UNL d   1      12.856  12.440  -5.951  0.00  0.00     0.000 A 
ATOM     21  C   UNL d   1      13.060  13.162  -5.616  0.00  0.00     0.000 A 
ATOM     22  C   UNL d   1      13.197  13.241  -4.812  0.00  0.00     0.003 A 
ENDBRANCH  15  17
ENDBRANCH  14  15
ENDBRANCH  13  14
ENDBRANCH   5  13
BRANCH   8  23
ATOM     23  C   UNL d   1      14.687  13.502  -0.902  0.00  0.00     0.082 C 
BRANCH  23  24
ATOM     24  C   UNL d   1      15.372  13.045  -0.893  0.00  0.00     0.019 C 
BRANCH  24  25
ATOM     25  C   UNL d   1      15.385  12.324  -0.565  0.00  0.00     0.002 C 
ATOM     26  C   UNL d   1      15.960  11.780  -0.795  0.00  0.00     0.000 C 
ATOM     27  C   UNL d   1      14.851  12.114  -0.015  0.00  0.00     0.000 C 
ENDBRANCH  24  25
ENDBRANCH  23  24
ENDBRANCH   8  23
TORSDOF 7
ENDMDL
