MODEL 1
REMARK VINA RESULT:      57.6      0.000      0.000
REMARK  5 active torsions:
REMARK  status: ('A' for Active; 'I' for Inactive)
REMARK    1  A    between atoms: C_10  and  C_3 
REMARK    2  A    between atoms: N_13  and  C_4 
REMARK    3  A    between atoms: N_12  and  C_17 
REMARK    4  A    between atoms: C_16  and  N_13 
REMARK    5  A    between atoms: C_17  and  C_16 
ROOT
ATOM      1  C   UNL d   1     -50.781  24.940  33.310  0.00  0.00     0.150 A 
ATOM      2  N   UNL d   1     -50.760  25.769  33.311  0.00  0.00    -0.275 N 
ATOM      3  C   UNL d   1     -50.078  24.510  33.309  0.00  0.00     0.056 A 
ATOM      4  C   UNL d   1     -50.036  26.172  33.312  0.00  0.00     0.149 A 
ATOM      5  N   UNL d   1     -51.510  24.546  33.309  0.00  0.00    -0.227 NA
ATOM      6  C   UNL d   1     -49.352  24.904  33.310  0.00  0.00     0.007 A 
ATOM      7  C   UNL d   1     -49.331  25.732  33.311  0.00  0.00     0.038 A 
ATOM      8  C   UNL d   1     -52.203  25.805  33.311  0.00  0.00     0.084 A 
ATOM      9  C   UNL d   1     -52.223  24.976  33.310  0.00  0.00     0.099 A 
ATOM     10  C   UNL d   1     -48.639  24.474  33.309  0.00  0.00     0.000 C 
ATOM     11  C   UNL d   1     -52.907  26.245  33.311  0.00  0.00     0.019 A 
ATOM     12  C   UNL d   1     -52.949  24.582  33.309  0.00  0.00     0.021 A 
ATOM     13  C   UNL d   1     -53.631  25.841  33.311  0.00  0.00     0.002 A 
ATOM     14  C   UNL d   1     -53.652  25.012  33.309  0.00  0.00     0.002 A 
ENDROOT
BRANCH   4  15
ATOM     15  N   UNL d   1     -50.015  26.996  33.313  0.00  0.00    -0.225 NA
BRANCH  15  16
ATOM     16  C   UNL d   1     -49.413  27.393  33.713  0.00  0.00     0.120 C 
BRANCH  16  17
ATOM     17  C   UNL d   1     -49.594  28.019  34.204  0.00  0.00     0.101 C 
BRANCH  17  18
ATOM     18  N   UNL d   1     -49.004  28.392  34.629  0.00  0.00    -0.298 N 
ATOM     19  C   UNL d   1     -48.787  29.164  34.438  0.00  0.00     0.107 A 
ATOM     20  C   UNL d   1     -48.192  29.544  34.865  0.00  0.00     0.142 A 
ATOM     21  O   UNL d   1     -47.809  29.159  35.486  0.00  0.00    -0.300 OA
ATOM     22  C   UNL d   1     -48.031  28.379  35.676  0.00  0.00     0.142 A 
ATOM     23  C   UNL d   1     -48.626  27.999  35.249  0.00  0.00     0.107 A 
ENDBRANCH  17  18
ENDBRANCH  16  17
ENDBRANCH  15  16
ENDBRANCH   4  15
BRANCH   3  24
ATOM     24  C   UNL d   1     -50.098  23.685  33.308  0.00  0.00     0.125 C 
ATOM     25  N   UNL d   1     -50.537  23.297  33.827  0.00  0.00    -0.146 N 
ENDBRANCH   3  24
TORSDOF 5
ENDMDL
