MODEL 1
REMARK VINA RESULT:      -3.7      0.000      0.000
REMARK  3 active torsions:
REMARK  status: ('A' for Active; 'I' for Inactive)
REMARK    1  A    between atoms: C_10  and  N_1 
REMARK    2  A    between atoms: C_11  and  C_14 
REMARK    3  A    between atoms: O_20  and  C_11 
ROOT
ATOM      1  N   UNL d   1     -41.802-122.511 -51.493  0.00  0.00    -0.242 N 
ATOM      2  C   UNL d   1     -42.061-121.880 -51.927  0.00  0.00     0.267 A 
ATOM      3  C   UNL d   1     -41.460-123.080 -51.981  0.00  0.00     0.267 A 
ATOM      4  C   UNL d   1     -41.879-122.050 -52.724  0.00  0.00     0.061 A 
ATOM      5  C   UNL d   1     -41.514-122.778 -52.757  0.00  0.00     0.061 A 
ATOM      6  C   UNL d   1     -41.267-123.095 -53.483  0.00  0.00     0.005 A 
ATOM      7  C   UNL d   1     -42.008-121.615 -53.415  0.00  0.00     0.005 A 
ATOM      8  C   UNL d   1     -41.400-122.657 -54.165  0.00  0.00     0.000 A 
ATOM      9  C   UNL d   1     -41.765-121.929 -54.131  0.00  0.00     0.000 A 
ATOM     10  O   UNL d   1     -42.431-121.213 -51.607  0.00  0.00    -0.267 OA
ATOM     11  O   UNL d   1     -41.123-123.817 -51.754  0.00  0.00    -0.267 OA
ATOM     12  C   UNL d   1     -41.144-122.988 -54.908  0.00  0.00     0.000 C 
ATOM     13  C   UNL d   1     -41.903-121.472 -54.839  0.00  0.00     0.000 C 
ENDROOT
BRANCH   1  14
ATOM     14  C   UNL d   1     -41.837-122.643 -50.682  0.00  0.00     0.070 A 
ATOM     15  C   UNL d   1     -41.153-122.569 -50.219  0.00  0.00     0.018 A 
ATOM     16  C   UNL d   1     -41.174-122.698 -49.411  0.00  0.00     0.007 A 
ATOM     17  C   UNL d   1     -41.892-122.902 -49.068  0.00  0.00     0.063 A 
ATOM     18  C   UNL d   1     -42.582-122.977 -49.527  0.00  0.00     0.007 A 
ATOM     19  C   UNL d   1     -42.538-122.844 -50.332  0.00  0.00     0.018 A 
BRANCH  17  20
ATOM     20  C   UNL d   1     -41.930-123.038 -48.235  0.00  0.00     0.296 C 
ATOM     21  O   UNL d   1     -42.486-122.659 -47.783  0.00  0.00    -0.259 OA
BRANCH  20  22
ATOM     22  O   UNL d   1     -41.393-123.558 -47.898  0.00  0.00    -0.296 OA
ATOM     23  C   UNL d   1     -41.286-123.561 -47.087  0.00  0.00     0.185 C 
ENDBRANCH  20  22
ENDBRANCH  17  20
ENDBRANCH   1  14
TORSDOF 3
ENDMDL
MODEL 2
REMARK VINA RESULT:      -3.3      1.327      4.880
REMARK  3 active torsions:
REMARK  status: ('A' for Active; 'I' for Inactive)
REMARK    1  A    between atoms: C_10  and  N_1 
REMARK    2  A    between atoms: C_11  and  C_14 
REMARK    3  A    between atoms: O_20  and  C_11 
ROOT
ATOM      1  N   UNL d   1     -42.245-122.927 -50.179  0.00  0.00    -0.242 N 
ATOM      2  C   UNL d   1     -42.822-123.380 -49.839  0.00  0.00     0.267 A 
ATOM      3  C   UNL d   1     -41.780-122.567 -49.601  0.00  0.00     0.267 A 
ATOM      4  C   UNL d   1     -42.724-123.308 -49.012  0.00  0.00     0.061 A 
ATOM      5  C   UNL d   1     -42.092-122.814 -48.868  0.00  0.00     0.061 A 
ATOM      6  C   UNL d   1     -41.862-122.638 -48.092  0.00  0.00     0.005 A 
ATOM      7  C   UNL d   1     -43.146-123.641 -48.385  0.00  0.00     0.005 A 
ATOM      8  C   UNL d   1     -42.286-122.973 -47.474  0.00  0.00     0.000 A 
ATOM      9  C   UNL d   1     -42.918-123.466 -47.618  0.00  0.00     0.000 A 
ATOM     10  O   UNL d   1     -43.383-123.817 -50.261  0.00  0.00    -0.267 OA
ATOM     11  O   UNL d   1     -41.123-122.052 -49.718  0.00  0.00    -0.267 OA
ATOM     12  C   UNL d   1     -42.044-122.787 -46.676  0.00  0.00     0.000 C 
ATOM     13  C   UNL d   1     -43.361-123.815 -46.976  0.00  0.00     0.000 C 
ENDROOT
BRANCH   1  14
ATOM     14  C   UNL d   1     -42.079-122.794 -50.972  0.00  0.00     0.070 A 
ATOM     15  C   UNL d   1     -42.406-122.138 -51.362  0.00  0.00     0.018 A 
ATOM     16  C   UNL d   1     -42.249-121.994 -52.152  0.00  0.00     0.007 A 
ATOM     17  C   UNL d   1     -41.758-122.516 -52.552  0.00  0.00     0.063 A 
ATOM     18  C   UNL d   1     -41.427-123.176 -52.168  0.00  0.00     0.007 A 
ATOM     19  C   UNL d   1     -41.597-123.301 -51.379  0.00  0.00     0.018 A 
BRANCH  17  20
ATOM     20  C   UNL d   1     -41.586-122.381 -53.368  0.00  0.00     0.296 C 
ATOM     21  O   UNL d   1     -41.126-121.752 -53.591  0.00  0.00    -0.259 OA
BRANCH  20  22
ATOM     22  O   UNL d   1     -41.895-122.898 -53.925  0.00  0.00    -0.296 OA
ATOM     23  C   UNL d   1     -41.606-122.889 -54.691  0.00  0.00     0.185 C 
ENDBRANCH  20  22
ENDBRANCH  17  20
ENDBRANCH   1  14
TORSDOF 3
ENDMDL
MODEL 3
REMARK VINA RESULT:      -3.1      1.438      4.767
REMARK  3 active torsions:
REMARK  status: ('A' for Active; 'I' for Inactive)
REMARK    1  A    between atoms: C_10  and  N_1 
REMARK    2  A    between atoms: C_11  and  C_14 
REMARK    3  A    between atoms: O_20  and  C_11 
ROOT
ATOM      1  N   UNL d   1     -41.631-122.409 -51.874  0.00  0.00    -0.242 N 
ATOM      2  C   UNL d   1     -41.376-121.880 -51.318  0.00  0.00     0.267 A 
ATOM      3  C   UNL d   1     -41.842-123.123 -51.520  0.00  0.00     0.267 A 
ATOM      4  C   UNL d   1     -41.425-122.268 -50.580  0.00  0.00     0.061 A 
ATOM      5  C   UNL d   1     -41.708-123.023 -50.703  0.00  0.00     0.061 A 
ATOM      6  C   UNL d   1     -41.816-123.543 -50.066  0.00  0.00     0.005 A 
ATOM      7  C   UNL d   1     -41.241-122.010 -49.817  0.00  0.00     0.005 A 
ATOM      8  C   UNL d   1     -41.631-123.278 -49.311  0.00  0.00     0.000 A 
ATOM      9  C   UNL d   1     -41.348-122.523 -49.189  0.00  0.00     0.000 A 
ATOM     10  O   UNL d   1     -41.123-121.111 -51.487  0.00  0.00    -0.267 OA
ATOM     11  O   UNL d   1     -42.134-123.817 -51.898  0.00  0.00    -0.267 OA
ATOM     12  C   UNL d   1     -41.744-123.817 -48.659  0.00  0.00     0.000 C 
ATOM     13  C   UNL d   1     -41.155-122.246 -48.404  0.00  0.00     0.000 C 
ENDROOT
BRANCH   1  14
ATOM     14  C   UNL d   1     -41.700-122.326 -52.688  0.00  0.00     0.070 A 
ATOM     15  C   UNL d   1     -41.150-122.690 -53.192  0.00  0.00     0.018 A 
ATOM     16  C   UNL d   1     -41.207-122.615 -54.005  0.00  0.00     0.007 A 
ATOM     17  C   UNL d   1     -41.824-122.168 -54.312  0.00  0.00     0.063 A 
ATOM     18  C   UNL d   1     -42.379-121.800 -53.813  0.00  0.00     0.007 A 
ATOM     19  C   UNL d   1     -42.303-121.888 -53.004  0.00  0.00     0.018 A 
BRANCH  17  20
ATOM     20  C   UNL d   1     -41.896-122.081 -55.149  0.00  0.00     0.296 C 
ATOM     21  O   UNL d   1     -41.255-121.868 -55.595  0.00  0.00    -0.259 OA
BRANCH  20  22
ATOM     22  O   UNL d   1     -42.627-122.216 -55.496  0.00  0.00    -0.296 OA
ATOM     23  C   UNL d   1     -42.778-121.932 -56.248  0.00  0.00     0.185 C 
ENDBRANCH  20  22
ENDBRANCH  17  20
ENDBRANCH   1  14
TORSDOF 3
ENDMDL
