MODEL 1
REMARK VINA RESULT:     112.9      0.000      0.000
REMARK  3 active torsions:
REMARK  status: ('A' for Active; 'I' for Inactive)
REMARK    1  A    between atoms: C_15  and  N_4 
REMARK    2  A    between atoms: C_11  and  N_10 
REMARK    3  A    between atoms: C_19  and  C_15 
ROOT
ATOM      1  C   UNL d   1      61.013  46.090  50.756  0.00  0.00     0.191 A 
ATOM      2  C   UNL d   1      61.468  46.337  50.107  0.00  0.00     0.173 A 
ATOM      3  C   UNL d   1      61.058  47.435  50.776  0.00  0.00     0.722 A 
ATOM      4  N   UNL d   1      61.681  44.976  49.709  0.00  0.00    -0.224 N 
ATOM      5  N   UNL d   1      60.755  46.756  51.175  0.00  0.00    -0.042 NA
ATOM      6  N   UNL d   1      61.493  47.179  50.126  0.00  0.00    -0.131 N 
ATOM      7  N   UNL d   1      60.884  45.266  50.890  0.00  0.00    -0.240 N 
ATOM      8  C   UNL d   1      61.230  44.702  50.349  0.00  0.00     0.343 A 
ATOM      9  C   UNL d   1      61.796  45.813  49.596  0.00  0.00     0.288 A 
ATOM     10  N   UNL d   1      61.084  48.255  50.792  0.00  0.00    -0.139 N 
ATOM     11  C   UNL d   1      61.788  47.844  49.738  0.00  0.00     0.118 A 
ATOM     12  C   UNL d   1      61.531  48.507  50.156  0.00  0.00     0.117 A 
ATOM     13  O   UNL d   1      61.122  43.868  50.453  0.00  0.00    -0.245 OA
ATOM     14  O   UNL d   1      62.260  46.067  48.936  0.00  0.00    -0.265 OA
ATOM     15  C   UNL d   1      60.426  45.003  51.541  0.00  0.00     0.105 C 
ENDROOT
BRANCH  10  16
ATOM     16  C   UNL d   1      60.720  48.741  51.353  0.00  0.00     0.082 A 
ATOM     17  C   UNL d   1      59.954  48.998  51.224  0.00  0.00     0.027 A 
ATOM     18  C   UNL d   1      59.594  49.478  51.777  0.00  0.00     0.059 A 
ATOM     19  C   UNL d   1      59.543  48.777  50.538  0.00  0.00     0.002 C 
ATOM     20 CL   UNL d   1      58.823  49.698  51.580  0.00  0.00    -0.082 Cl
ATOM     21  C   UNL d   1      59.998  49.703  52.464  0.00  0.00     0.011 A 
ATOM     22  C   UNL d   1      60.771  49.441  52.592  0.00  0.00     0.002 A 
ATOM     23  C   UNL d   1      61.131  48.957  52.031  0.00  0.00     0.018 A 
ENDBRANCH  10  16
BRANCH   4  24
ATOM     24  C   UNL d   1      61.804  44.193  49.480  0.00  0.00     0.087 C 
BRANCH  24  25
ATOM     25  C   UNL d   1      62.569  43.911  49.401  0.00  0.00     0.018 C 
ATOM     26  C   UNL d   1      63.154  44.403  49.091  0.00  0.00     0.002 C 
ATOM     27  C   UNL d   1      62.763  43.149  49.623  0.00  0.00     0.002 C 
ENDBRANCH  24  25
ENDBRANCH   4  24
TORSDOF 3
ENDMDL
