MODEL 1
REMARK VINA RESULT:      -6.7      0.000      0.000
REMARK  6 active torsions:
REMARK  status: ('A' for Active; 'I' for Inactive)
REMARK    1  A    between atoms: C_2  and  S_1 
REMARK    2  A    between atoms: N_5  and  S_1 
REMARK    3  A    between atoms: C_15  and  N_5 
REMARK    4  A    between atoms: C_7  and  C_6 
REMARK    5  A    between atoms: C_20  and  C_15 
REMARK    6  A    between atoms: O_19  and  C_20 
ROOT
ATOM      1  C   UNL d   1     -46.500  12.679  23.085  0.00  0.00     0.105 A 
ATOM      2  C   UNL d   1     -47.824  13.663  22.928  0.00  0.00     0.000 A 
ATOM      3  C   UNL d   1     -46.458  13.470  23.328  0.00  0.00     0.013 A 
ATOM      4  C   UNL d   1     -47.200  12.381  22.766  0.00  0.00     0.013 A 
ATOM      5  C   UNL d   1     -47.864  12.875  22.687  0.00  0.00     0.001 A 
ATOM      6  C   UNL d   1     -47.122  13.963  23.249  0.00  0.00     0.001 A 
ENDROOT
BRANCH   1   7
ATOM      7  S   UNL d   1     -45.844  12.182  23.161  0.00  0.00     0.285 S 
ATOM      8  O   UNL d   1     -45.187  11.692  23.231  0.00  0.00    -0.198 OA
ATOM      9  O   UNL d   1     -46.250  11.714  23.697  0.00  0.00    -0.198 OA
BRANCH   7  10
ATOM     10  N   UNL d   1     -45.428  12.649  22.621  0.00  0.00    -0.155 NA
BRANCH  10  11
ATOM     11  C   UNL d   1     -44.674  12.423  22.370  0.00  0.00     0.138 C 
BRANCH  11  12
ATOM     12  C   UNL d   1     -44.266  12.894  21.828  0.00  0.00     0.138 C 
BRANCH  12  13
ATOM     13  O   UNL d   1     -43.582  12.595  21.453  0.00  0.00    -0.325 OA
ATOM     14  C   UNL d   1     -43.032  13.113  21.154  0.00  0.00     0.182 C 
ENDBRANCH  12  13
ENDBRANCH  11  12
ENDBRANCH  10  11
ENDBRANCH   7  10
ENDBRANCH   1   7
BRANCH   2  15
ATOM     15  C   UNL d   1     -48.485  14.145  22.846  0.00  0.00     0.000 A 
ATOM     16  C   UNL d   1     -49.194  13.926  23.205  0.00  0.00     0.001 A 
ATOM     17  C   UNL d   1     -49.861  14.395  23.133  0.00  0.00     0.011 A 
ATOM     18  C   UNL d   1     -49.822  15.104  22.692  0.00  0.00     0.058 A 
ATOM     19  C   UNL d   1     -49.113  15.323  22.333  0.00  0.00     0.011 A 
ATOM     20 CL   UNL d   1     -50.484  15.578  22.615  0.00  0.00    -0.082 Cl
ATOM     21  C   UNL d   1     -48.444  14.844  22.410  0.00  0.00     0.001 A 
ENDBRANCH   2  15
TORSDOF 6
ENDMDL
MODEL 2
REMARK VINA RESULT:      -6.6      1.132      1.707
REMARK  6 active torsions:
REMARK  status: ('A' for Active; 'I' for Inactive)
REMARK    1  A    between atoms: C_2  and  S_1 
REMARK    2  A    between atoms: N_5  and  S_1 
REMARK    3  A    between atoms: C_15  and  N_5 
REMARK    4  A    between atoms: C_7  and  C_6 
REMARK    5  A    between atoms: C_20  and  C_15 
REMARK    6  A    between atoms: O_19  and  C_20 
ROOT
ATOM      1  C   UNL d   1     -45.987  13.278  22.404  0.00  0.00     0.105 A 
ATOM      2  C   UNL d   1     -47.497  13.926  22.615  0.00  0.00     0.000 A 
ATOM      3  C   UNL d   1     -46.635  12.955  22.002  0.00  0.00     0.013 A 
ATOM      4  C   UNL d   1     -46.094  13.922  22.909  0.00  0.00     0.013 A 
ATOM      5  C   UNL d   1     -46.851  14.247  23.015  0.00  0.00     0.001 A 
ATOM      6  C   UNL d   1     -47.392  13.280  22.107  0.00  0.00     0.001 A 
ENDROOT
BRANCH   1   7
ATOM      7  S   UNL d   1     -45.231  12.961  22.304  0.00  0.00     0.285 S 
ATOM      8  O   UNL d   1     -44.481  12.638  22.209  0.00  0.00    -0.198 OA
ATOM      9  O   UNL d   1     -45.004  13.617  21.870  0.00  0.00    -0.198 OA
BRANCH   7  10
ATOM     10  N   UNL d   1     -45.453  12.295  22.741  0.00  0.00    -0.155 NA
BRANCH  10  11
ATOM     11  C   UNL d   1     -44.886  11.739  22.967  0.00  0.00     0.138 C 
BRANCH  11  12
ATOM     12  C   UNL d   1     -45.119  11.063  23.381  0.00  0.00     0.138 C 
BRANCH  12  13
ATOM     13  O   UNL d   1     -44.540  10.550  23.695  0.00  0.00    -0.325 OA
ATOM     14  C   UNL d   1     -44.469   9.798  23.395  0.00  0.00     0.182 C 
ENDBRANCH  12  13
ENDBRANCH  11  12
ENDBRANCH  10  11
ENDBRANCH   7  10
ENDBRANCH   1   7
BRANCH   2  15
ATOM     15  C   UNL d   1     -48.245  14.253  22.724  0.00  0.00     0.000 A 
ATOM     16  C   UNL d   1     -48.803  13.849  23.176  0.00  0.00     0.001 A 
ATOM     17  C   UNL d   1     -49.550  14.161  23.295  0.00  0.00     0.011 A 
ATOM     18  C   UNL d   1     -49.749  14.897  22.953  0.00  0.00     0.058 A 
ATOM     19  C   UNL d   1     -49.190  15.302  22.501  0.00  0.00     0.011 A 
ATOM     20 CL   UNL d   1     -50.493  15.216  23.067  0.00  0.00    -0.082 Cl
ATOM     21  C   UNL d   1     -48.438  14.980  22.386  0.00  0.00     0.001 A 
ENDBRANCH   2  15
TORSDOF 6
ENDMDL
MODEL 3
REMARK VINA RESULT:      -5.6      1.767      2.159
REMARK  6 active torsions:
REMARK  status: ('A' for Active; 'I' for Inactive)
REMARK    1  A    between atoms: C_2  and  S_1 
REMARK    2  A    between atoms: N_5  and  S_1 
REMARK    3  A    between atoms: C_15  and  N_5 
REMARK    4  A    between atoms: C_7  and  C_6 
REMARK    5  A    between atoms: C_20  and  C_15 
REMARK    6  A    between atoms: O_19  and  C_20 
ROOT
ATOM      1  C   UNL d   1     -46.712  13.610  22.729  0.00  0.00     0.105 A 
ATOM      2  C   UNL d   1     -48.173  12.893  23.043  0.00  0.00     0.000 A 
ATOM      3  C   UNL d   1     -47.178  13.333  22.103  0.00  0.00     0.013 A 
ATOM      4  C   UNL d   1     -46.974  13.529  23.507  0.00  0.00     0.013 A 
ATOM      5  C   UNL d   1     -47.706  13.170  23.664  0.00  0.00     0.001 A 
ATOM      6  C   UNL d   1     -47.911  12.973  22.261  0.00  0.00     0.001 A 
ENDROOT
BRANCH   1   7
ATOM      7  S   UNL d   1     -45.982  13.968  22.581  0.00  0.00     0.285 S 
ATOM      8  O   UNL d   1     -45.253  14.317  22.432  0.00  0.00    -0.198 OA
ATOM      9  O   UNL d   1     -46.305  14.706  22.730  0.00  0.00    -0.198 OA
BRANCH   7  10
ATOM     10  N   UNL d   1     -45.650  13.228  22.428  0.00  0.00    -0.155 NA
BRANCH  10  11
ATOM     11  C   UNL d   1     -44.830  13.146  22.357  0.00  0.00     0.138 C 
BRANCH  11  12
ATOM     12  C   UNL d   1     -44.507  12.408  22.181  0.00  0.00     0.138 C 
BRANCH  12  13
ATOM     13  O   UNL d   1     -43.729  12.358  21.879  0.00  0.00    -0.325 OA
ATOM     14  C   UNL d   1     -43.253  11.739  22.105  0.00  0.00     0.182 C 
ENDBRANCH  12  13
ENDBRANCH  11  12
ENDBRANCH  10  11
ENDBRANCH   7  10
ENDBRANCH   1   7
BRANCH   2  15
ATOM     15  C   UNL d   1     -48.897  12.539  23.206  0.00  0.00     0.000 A 
ATOM     16  C   UNL d   1     -48.947  11.717  23.246  0.00  0.00     0.001 A 
ATOM     17  C   UNL d   1     -49.660  11.349  23.407  0.00  0.00     0.011 A 
ATOM     18  C   UNL d   1     -50.344  11.812  23.533  0.00  0.00     0.058 A 
ATOM     19  C   UNL d   1     -50.295  12.634  23.493  0.00  0.00     0.011 A 
ATOM     20 CL   UNL d   1     -51.061  11.452  23.695  0.00  0.00    -0.082 Cl
ATOM     21  C   UNL d   1     -49.571  12.998  23.330  0.00  0.00     0.001 A 
ENDBRANCH   2  15
TORSDOF 6
ENDMDL
MODEL 4
REMARK VINA RESULT:      -5.4      8.014      8.903
REMARK  6 active torsions:
REMARK  status: ('A' for Active; 'I' for Inactive)
REMARK    1  A    between atoms: C_2  and  S_1 
REMARK    2  A    between atoms: N_5  and  S_1 
REMARK    3  A    between atoms: C_15  and  N_5 
REMARK    4  A    between atoms: C_7  and  C_6 
REMARK    5  A    between atoms: C_20  and  C_15 
REMARK    6  A    between atoms: O_19  and  C_20 
ROOT
ATOM      1  C   UNL d   1     -40.167  14.632  18.747  0.00  0.00     0.105 A 
ATOM      2  C   UNL d   1     -39.677  14.751  20.326  0.00  0.00     0.000 A 
ATOM      3  C   UNL d   1     -40.552  15.155  19.260  0.00  0.00     0.013 A 
ATOM      4  C   UNL d   1     -39.540  14.171  19.021  0.00  0.00     0.013 A 
ATOM      5  C   UNL d   1     -39.295  14.231  19.813  0.00  0.00     0.001 A 
ATOM      6  C   UNL d   1     -40.307  15.215  20.052  0.00  0.00     0.001 A 
ENDROOT
BRANCH   1   7
ATOM      7  S   UNL d   1     -40.405  14.567  17.959  0.00  0.00     0.285 S 
ATOM      8  O   UNL d   1     -40.636  14.507  17.172  0.00  0.00    -0.198 OA
ATOM      9  O   UNL d   1     -40.993  14.038  18.172  0.00  0.00    -0.198 OA
BRANCH   7  10
ATOM     10  N   UNL d   1     -39.814  15.100  17.736  0.00  0.00    -0.155 NA
BRANCH  10  11
ATOM     11  C   UNL d   1     -39.665  15.245  16.937  0.00  0.00     0.138 C 
BRANCH  11  12
ATOM     12  C   UNL d   1     -39.148  15.852  16.721  0.00  0.00     0.138 C 
BRANCH  12  13
ATOM     13  O   UNL d   1     -38.899  15.921  15.927  0.00  0.00    -0.325 OA
ATOM     14  C   UNL d   1     -38.105  15.922  15.756  0.00  0.00     0.182 C 
ENDBRANCH  12  13
ENDBRANCH  11  12
ENDBRANCH  10  11
ENDBRANCH   7  10
ENDBRANCH   1   7
BRANCH   2  15
ATOM     15  C   UNL d   1     -39.429  14.805  21.108  0.00  0.00     0.000 A 
ATOM     16  C   UNL d   1     -39.277  15.546  21.436  0.00  0.00     0.001 A 
ATOM     17  C   UNL d   1     -39.029  15.616  22.213  0.00  0.00     0.011 A 
ATOM     18  C   UNL d   1     -38.929  14.929  22.678  0.00  0.00     0.058 A 
ATOM     19  C   UNL d   1     -39.081  14.188  22.350  0.00  0.00     0.011 A 
ATOM     20 CL   UNL d   1     -38.682  14.991  23.455  0.00  0.00    -0.082 Cl
ATOM     21  C   UNL d   1     -39.330  14.126  21.565  0.00  0.00     0.001 A 
ENDBRANCH   2  15
TORSDOF 6
ENDMDL
MODEL 5
REMARK VINA RESULT:      -5.4      8.021      9.426
REMARK  6 active torsions:
REMARK  status: ('A' for Active; 'I' for Inactive)
REMARK    1  A    between atoms: C_2  and  S_1 
REMARK    2  A    between atoms: N_5  and  S_1 
REMARK    3  A    between atoms: C_15  and  N_5 
REMARK    4  A    between atoms: C_7  and  C_6 
REMARK    5  A    between atoms: C_20  and  C_15 
REMARK    6  A    between atoms: O_19  and  C_20 
ROOT
ATOM      1  C   UNL d   1     -40.020  14.809  19.500  0.00  0.00     0.105 A 
ATOM      2  C   UNL d   1     -39.335  14.401  18.047  0.00  0.00     0.000 A 
ATOM      3  C   UNL d   1     -40.395  14.260  19.006  0.00  0.00     0.013 A 
ATOM      4  C   UNL d   1     -39.306  15.152  19.269  0.00  0.00     0.013 A 
ATOM      5  C   UNL d   1     -38.963  14.948  18.541  0.00  0.00     0.001 A 
ATOM      6  C   UNL d   1     -40.051  14.056  18.277  0.00  0.00     0.001 A 
ENDROOT
BRANCH   1   7
ATOM      7  S   UNL d   1     -40.356  15.017  20.226  0.00  0.00     0.285 S 
ATOM      8  O   UNL d   1     -40.685  15.218  20.951  0.00  0.00    -0.198 OA
ATOM      9  O   UNL d   1     -40.850  15.552  19.852  0.00  0.00    -0.198 OA
BRANCH   7  10
ATOM     10  N   UNL d   1     -39.860  14.479  20.609  0.00  0.00    -0.155 NA
BRANCH  10  11
ATOM     11  C   UNL d   1     -39.853  14.435  21.434  0.00  0.00     0.138 C 
BRANCH  11  12
ATOM     12  C   UNL d   1     -39.420  13.840  21.808  0.00  0.00     0.138 C 
BRANCH  12  13
ATOM     13  O   UNL d   1     -39.156  13.950  22.593  0.00  0.00    -0.325 OA
ATOM     14  C   UNL d   1     -38.715  13.370  22.951  0.00  0.00     0.182 C 
ENDBRANCH  12  13
ENDBRANCH  11  12
ENDBRANCH  10  11
ENDBRANCH   7  10
ENDBRANCH   1   7
BRANCH   2  15
ATOM     15  C   UNL d   1     -38.988  14.204  17.328  0.00  0.00     0.000 A 
ATOM     16  C   UNL d   1     -38.568  13.498  17.259  0.00  0.00     0.001 A 
ATOM     17  C   UNL d   1     -38.218  13.288  16.550  0.00  0.00     0.011 A 
ATOM     18  C   UNL d   1     -38.287  13.795  15.889  0.00  0.00     0.058 A 
ATOM     19  C   UNL d   1     -38.707  14.501  15.957  0.00  0.00     0.011 A 
ATOM     20 CL   UNL d   1     -37.940  13.592  15.177  0.00  0.00    -0.082 Cl
ATOM     21  C   UNL d   1     -39.058  14.706  16.677  0.00  0.00     0.001 A 
ENDBRANCH   2  15
TORSDOF 6
ENDMDL
MODEL 6
REMARK VINA RESULT:      -5.3      2.944      4.848
REMARK  6 active torsions:
REMARK  status: ('A' for Active; 'I' for Inactive)
REMARK    1  A    between atoms: C_2  and  S_1 
REMARK    2  A    between atoms: N_5  and  S_1 
REMARK    3  A    between atoms: C_15  and  N_5 
REMARK    4  A    between atoms: C_7  and  C_6 
REMARK    5  A    between atoms: C_20  and  C_15 
REMARK    6  A    between atoms: O_19  and  C_20 
ROOT
ATOM      1  C   UNL d   1     -48.286  14.061  22.603  0.00  0.00     0.105 A 
ATOM      2  C   UNL d   1     -46.815  13.300  22.549  0.00  0.00     0.000 A 
ATOM      3  C   UNL d   1     -48.052  13.662  21.916  0.00  0.00     0.013 A 
ATOM      4  C   UNL d   1     -47.787  14.079  23.260  0.00  0.00     0.013 A 
ATOM      5  C   UNL d   1     -47.049  13.698  23.232  0.00  0.00     0.001 A 
ATOM      6  C   UNL d   1     -47.315  13.280  21.888  0.00  0.00     0.001 A 
ENDROOT
BRANCH   1   7
ATOM      7  S   UNL d   1     -49.018  14.442  22.638  0.00  0.00     0.285 S 
ATOM      8  O   UNL d   1     -49.749  14.815  22.674  0.00  0.00    -0.198 OA
ATOM      9  O   UNL d   1     -48.657  15.164  22.494  0.00  0.00    -0.198 OA
BRANCH   7  10
ATOM     10  N   UNL d   1     -49.388  13.719  22.784  0.00  0.00    -0.155 NA
BRANCH  10  11
ATOM     11  C   UNL d   1     -50.188  13.695  22.990  0.00  0.00     0.138 C 
BRANCH  11  12
ATOM     12  C   UNL d   1     -50.603  12.984  22.936  0.00  0.00     0.138 C 
BRANCH  12  13
ATOM     13  O   UNL d   1     -50.978  12.670  23.613  0.00  0.00    -0.325 OA
ATOM     14  C   UNL d   1     -51.054  11.864  23.690  0.00  0.00     0.182 C 
ENDBRANCH  12  13
ENDBRANCH  11  12
ENDBRANCH  10  11
ENDBRANCH   7  10
ENDBRANCH   1   7
BRANCH   2  15
ATOM     15  C   UNL d   1     -46.083  12.924  22.529  0.00  0.00     0.000 A 
ATOM     16  C   UNL d   1     -45.454  13.281  22.133  0.00  0.00     0.001 A 
ATOM     17  C   UNL d   1     -44.720  12.920  22.104  0.00  0.00     0.011 A 
ATOM     18  C   UNL d   1     -44.607  12.183  22.481  0.00  0.00     0.058 A 
ATOM     19  C   UNL d   1     -45.236  11.826  22.877  0.00  0.00     0.011 A 
ATOM     20 CL   UNL d   1     -43.877  11.815  22.457  0.00  0.00    -0.082 Cl
ATOM     21  C   UNL d   1     -45.974  12.197  22.902  0.00  0.00     0.001 A 
ENDBRANCH   2  15
TORSDOF 6
ENDMDL
MODEL 7
REMARK VINA RESULT:      -4.2      3.281      4.991
REMARK  6 active torsions:
REMARK  status: ('A' for Active; 'I' for Inactive)
REMARK    1  A    between atoms: C_2  and  S_1 
REMARK    2  A    between atoms: N_5  and  S_1 
REMARK    3  A    between atoms: C_15  and  N_5 
REMARK    4  A    between atoms: C_7  and  C_6 
REMARK    5  A    between atoms: C_20  and  C_15 
REMARK    6  A    between atoms: O_19  and  C_20 
ROOT
ATOM      1  C   UNL d   1     -49.097  12.023  23.068  0.00  0.00     0.105 A 
ATOM      2  C   UNL d   1     -47.530  11.525  23.271  0.00  0.00     0.000 A 
ATOM      3  C   UNL d   1     -48.811  11.375  22.638  0.00  0.00     0.013 A 
ATOM      4  C   UNL d   1     -48.603  12.419  23.596  0.00  0.00     0.013 A 
ATOM      5  C   UNL d   1     -47.817  12.169  23.698  0.00  0.00     0.001 A 
ATOM      6  C   UNL d   1     -48.025  11.125  22.740  0.00  0.00     0.001 A 
ENDROOT
BRANCH   1   7
ATOM      7  S   UNL d   1     -49.877  12.277  22.972  0.00  0.00     0.285 S 
ATOM      8  O   UNL d   1     -50.651  12.538  22.878  0.00  0.00    -0.198 OA
ATOM      9  O   UNL d   1     -50.127  11.502  22.881  0.00  0.00    -0.198 OA
BRANCH   7  10
ATOM     10  N   UNL d   1     -49.633  13.061  23.063  0.00  0.00    -0.155 NA
BRANCH  10  11
ATOM     11  C   UNL d   1     -50.192  13.663  23.154  0.00  0.00     0.138 C 
BRANCH  11  12
ATOM     12  C   UNL d   1     -49.940  14.432  23.316  0.00  0.00     0.138 C 
BRANCH  12  13
ATOM     13  O   UNL d   1     -50.429  15.079  23.112  0.00  0.00    -0.325 OA
ATOM     14  C   UNL d   1     -50.140  15.835  23.181  0.00  0.00     0.182 C 
ENDBRANCH  12  13
ENDBRANCH  11  12
ENDBRANCH  10  11
ENDBRANCH   7  10
ENDBRANCH   1   7
BRANCH   2  15
ATOM     15  C   UNL d   1     -46.750  11.283  23.377  0.00  0.00     0.000 A 
ATOM     16  C   UNL d   1     -46.139  11.824  23.265  0.00  0.00     0.001 A 
ATOM     17  C   UNL d   1     -45.359  11.599  23.367  0.00  0.00     0.011 A 
ATOM     18  C   UNL d   1     -45.181  10.813  23.586  0.00  0.00     0.058 A 
ATOM     19  C   UNL d   1     -45.792  10.271  23.698  0.00  0.00     0.011 A 
ATOM     20 CL   UNL d   1     -44.403  10.580  23.690  0.00  0.00    -0.082 Cl
ATOM     21  C   UNL d   1     -46.577  10.506  23.593  0.00  0.00     0.001 A 
ENDBRANCH   2  15
TORSDOF 6
ENDMDL
MODEL 8
REMARK VINA RESULT:      -3.9      1.174      1.932
REMARK  6 active torsions:
REMARK  status: ('A' for Active; 'I' for Inactive)
REMARK    1  A    between atoms: C_2  and  S_1 
REMARK    2  A    between atoms: N_5  and  S_1 
REMARK    3  A    between atoms: C_15  and  N_5 
REMARK    4  A    between atoms: C_7  and  C_6 
REMARK    5  A    between atoms: C_20  and  C_15 
REMARK    6  A    between atoms: O_19  and  C_20 
ROOT
ATOM      1  C   UNL d   1     -44.755  12.474  22.369  0.00  0.00     0.105 A 
ATOM      2  C   UNL d   1     -46.210  13.252  22.525  0.00  0.00     0.000 A 
ATOM      3  C   UNL d   1     -44.907  13.158  21.927  0.00  0.00     0.013 A 
ATOM      4  C   UNL d   1     -45.327  12.181  22.886  0.00  0.00     0.013 A 
ATOM      5  C   UNL d   1     -46.057  12.571  22.964  0.00  0.00     0.001 A 
ATOM      6  C   UNL d   1     -45.637  13.549  22.005  0.00  0.00     0.001 A 
ENDROOT
BRANCH   1   7
ATOM      7  S   UNL d   1     -44.033  12.081  22.296  0.00  0.00     0.285 S 
ATOM      8  O   UNL d   1     -43.311  11.696  22.219  0.00  0.00    -0.198 OA
ATOM      9  O   UNL d   1     -44.310  11.469  22.764  0.00  0.00    -0.198 OA
BRANCH   7  10
ATOM     10  N   UNL d   1     -43.746  12.695  21.823  0.00  0.00    -0.155 NA
BRANCH  10  11
ATOM     11  C   UNL d   1     -42.939  12.749  21.657  0.00  0.00     0.138 C 
BRANCH  11  12
ATOM     12  C   UNL d   1     -42.649  13.406  21.249  0.00  0.00     0.138 C 
BRANCH  12  13
ATOM     13  O   UNL d   1     -41.831  13.469  21.093  0.00  0.00    -0.325 OA
ATOM     14  C   UNL d   1     -41.537  14.154  20.769  0.00  0.00     0.182 C 
ENDBRANCH  12  13
ENDBRANCH  11  12
ENDBRANCH  10  11
ENDBRANCH   7  10
ENDBRANCH   1   7
BRANCH   2  15
ATOM     15  C   UNL d   1     -46.935  13.633  22.608  0.00  0.00     0.000 A 
ATOM     16  C   UNL d   1     -46.953  14.446  22.746  0.00  0.00     0.001 A 
ATOM     17  C   UNL d   1     -47.665  14.839  22.831  0.00  0.00     0.011 A 
ATOM     18  C   UNL d   1     -48.382  14.412  22.777  0.00  0.00     0.058 A 
ATOM     19  C   UNL d   1     -48.364  13.599  22.639  0.00  0.00     0.011 A 
ATOM     20 CL   UNL d   1     -49.098  14.798  22.861  0.00  0.00    -0.082 Cl
ATOM     21  C   UNL d   1     -47.640  13.210  22.555  0.00  0.00     0.001 A 
ENDBRANCH   2  15
TORSDOF 6
ENDMDL
