MODEL 1
REMARK VINA RESULT:      -5.8      0.000      0.000
REMARK  4 active torsions:
REMARK  status: ('A' for Active; 'I' for Inactive)
REMARK    1  A    between atoms: C_8  and  C_4 
REMARK       I    between atoms: C_7  and  N_10 
REMARK    2  A    between atoms: C_16  and  C_7 
REMARK    3  A    between atoms: N_10  and  C_13 
REMARK    4  A    between atoms: C_17  and  C_16 
ROOT
ATOM      1  C   UNL d   1     -41.628-122.164 -51.120  0.00  0.00     0.021 A 
ATOM      2  C   UNL d   1     -41.626-122.565 -51.844  0.00  0.00     0.021 A 
ATOM      3  C   UNL d   1     -41.375-122.182 -52.525  0.00  0.00     0.085 A 
ATOM      4  C   UNL d   1     -41.377-121.380 -51.081  0.00  0.00     0.002 A 
ATOM      5  C   UNL d   1     -41.123-120.990 -51.762  0.00  0.00     0.002 A 
ATOM      6  C   UNL d   1     -41.123-121.396 -52.490  0.00  0.00     0.019 A 
ENDROOT
BRANCH   1   7
ATOM      7  C   UNL d   1     -41.881-122.549 -50.435  0.00  0.00     0.118 A 
ATOM      8  N   UNL d   1     -42.651-122.768 -50.263  0.00  0.00    -0.059 NA
ATOM      9  C   UNL d   1     -42.648-123.135 -49.527  0.00  0.00     0.735 A 
ATOM     10  N   UNL d   1     -41.880-123.144 -49.242  0.00  0.00    -0.136 N 
ATOM     11  N   UNL d   1     -43.268-123.463 -49.083  0.00  0.00    -0.059 NA
ATOM     12  C   UNL d   1     -41.401-122.781 -49.804  0.00  0.00     0.118 A 
ATOM     13  C   UNL d   1     -41.717-123.481 -48.509  0.00  0.00     0.100 A 
ATOM     14  C   UNL d   1     -42.323-123.808 -48.065  0.00  0.00     0.041 A 
ATOM     15  C   UNL d   1     -43.092-123.798 -48.350  0.00  0.00     0.119 A 
ENDBRANCH   1   7
BRANCH   3  16
ATOM     16  N   UNL d   1     -41.375-122.584 -53.245  0.00  0.00    -0.208 NA
ATOM     17  C   UNL d   1     -41.833-122.306 -53.875  0.00  0.00     0.275 C 
ATOM     18  O   UNL d   1     -42.289-121.630 -53.785  0.00  0.00    -0.266 OA
BRANCH  17  19
ATOM     19  C   UNL d   1     -41.834-122.705 -54.591  0.00  0.00     0.036 C 
BRANCH  19  20
ATOM     20  C   UNL d   1     -42.063-122.309 -55.273  0.00  0.00     0.023 C 
ATOM     21  C   UNL d   1     -41.366-121.944 -55.554  0.00  0.00     0.004 C 
ATOM     22  C   UNL d   1     -42.860-122.456 -55.356  0.00  0.00     0.004 C 
ATOM     23  C   UNL d   1     -42.290-121.907 -55.962  0.00  0.00     0.004 C 
ENDBRANCH  19  20
ENDBRANCH  17  19
ENDBRANCH   3  16
TORSDOF 4
ENDMDL
MODEL 2
REMARK VINA RESULT:      -5.5      1.202      5.027
REMARK  4 active torsions:
REMARK  status: ('A' for Active; 'I' for Inactive)
REMARK    1  A    between atoms: C_8  and  C_4 
REMARK       I    between atoms: C_7  and  N_10 
REMARK    2  A    between atoms: C_16  and  C_7 
REMARK    3  A    between atoms: N_10  and  C_13 
REMARK    4  A    between atoms: C_17  and  C_16 
ROOT
ATOM      1  C   UNL d   1     -41.476-121.952 -52.236  0.00  0.00     0.021 A 
ATOM      2  C   UNL d   1     -41.521-122.605 -51.729  0.00  0.00     0.021 A 
ATOM      3  C   UNL d   1     -41.369-122.513 -50.927  0.00  0.00     0.085 A 
ATOM      4  C   UNL d   1     -41.278-121.210 -51.938  0.00  0.00     0.002 A 
ATOM      5  C   UNL d   1     -41.123-121.112 -51.133  0.00  0.00     0.002 A 
ATOM      6  C   UNL d   1     -41.170-121.771 -50.625  0.00  0.00     0.019 A 
ENDROOT
BRANCH   1   7
ATOM      7  C   UNL d   1     -41.630-122.044 -53.042  0.00  0.00     0.118 A 
ATOM      8  N   UNL d   1     -42.255-121.712 -53.453  0.00  0.00    -0.059 NA
ATOM      9  C   UNL d   1     -42.192-121.948 -54.238  0.00  0.00     0.735 A 
ATOM     10  N   UNL d   1     -41.530-122.426 -54.315  0.00  0.00    -0.136 N 
ATOM     11  N   UNL d   1     -42.670-121.779 -54.894  0.00  0.00    -0.059 NA
ATOM     12  C   UNL d   1     -41.179-122.486 -53.574  0.00  0.00     0.118 A 
ATOM     13  C   UNL d   1     -41.334-122.741 -55.050  0.00  0.00     0.100 A 
ATOM     14  C   UNL d   1     -41.801-122.578 -55.703  0.00  0.00     0.041 A 
ATOM     15  C   UNL d   1     -42.464-122.101 -55.626  0.00  0.00     0.119 A 
ENDBRANCH   1   7
BRANCH   3  16
ATOM     16  N   UNL d   1     -41.414-123.165 -50.424  0.00  0.00    -0.208 NA
ATOM     17  C   UNL d   1     -41.951-123.168 -49.795  0.00  0.00     0.275 C 
ATOM     18  O   UNL d   1     -42.439-122.520 -49.670  0.00  0.00    -0.266 OA
BRANCH  17  19
ATOM     19  C   UNL d   1     -41.998-123.815 -49.295  0.00  0.00     0.036 C 
BRANCH  19  20
ATOM     20  C   UNL d   1     -42.444-123.762 -48.609  0.00  0.00     0.023 C 
ATOM     21  C   UNL d   1     -41.885-123.683 -47.993  0.00  0.00     0.004 C 
ATOM     22  C   UNL d   1     -43.222-123.812 -48.847  0.00  0.00     0.004 C 
ATOM     23  C   UNL d   1     -42.891-123.709 -47.912  0.00  0.00     0.004 C 
ENDBRANCH  19  20
ENDBRANCH  17  19
ENDBRANCH   3  16
TORSDOF 4
ENDMDL
