MODEL 1
REMARK VINA RESULT:      -7.6      0.000      0.000
REMARK  4 active torsions:
REMARK  status: ('A' for Active; 'I' for Inactive)
REMARK       I    between atoms: N_2  and  C_1 
REMARK    1  A    between atoms: O_3  and  C_1 
REMARK    2  A    between atoms: C_5  and  O_3 
REMARK    3  A    between atoms: O_8  and  C_7 
REMARK    4  A    between atoms: C_10  and  O_8 
ROOT
ATOM      1  C   UNL d   1     -49.011  12.363  23.359  0.00  0.00     0.107 A 
ATOM      2  C   UNL d   1     -48.252  12.612  23.567  0.00  0.00     0.050 A 
ATOM      3  C   UNL d   1     -47.610  12.096  23.490  0.00  0.00     0.102 A 
ATOM      4  C   UNL d   1     -48.485  11.081  22.997  0.00  0.00     0.004 A 
ATOM      5  C   UNL d   1     -49.127  11.597  23.074  0.00  0.00     0.025 A 
ATOM      6  C   UNL d   1     -47.727  11.331  23.205  0.00  0.00     0.025 A 
ENDROOT
BRANCH   1   7
ATOM      7  O   UNL d   1     -49.652  12.878  23.436  0.00  0.00    -0.259 OA
BRANCH   7   8
ATOM      8  C   UNL d   1     -49.981  13.249  22.782  0.00  0.00     0.378 C 
ATOM      9  N   UNL d   1     -50.344  13.998  22.846  0.00  0.00    -0.247 N 
ATOM     10  C   UNL d   1     -50.371  14.373  23.588  0.00  0.00     0.112 A 
ATOM     11  C   UNL d   1     -50.673  14.361  22.179  0.00  0.00     0.112 A 
ATOM     12  C   UNL d   1     -50.729  15.115  23.660  0.00  0.00     0.142 A 
ATOM     13  O   UNL d   1     -51.061  15.486  22.998  0.00  0.00    -0.300 OA
ATOM     14  C   UNL d   1     -51.031  15.103  22.251  0.00  0.00     0.142 A 
ATOM     15  O   UNL d   1     -49.948  12.855  22.026  0.00  0.00    -0.237 OA
ENDBRANCH   7   8
ENDBRANCH   1   7
BRANCH   3  16
ATOM     16  O   UNL d   1     -46.852  12.346  23.698  0.00  0.00    -0.307 OA
BRANCH  16  17
ATOM     17  C   UNL d   1     -46.431  12.853  23.198  0.00  0.00     0.100 A 
ATOM     18  C   UNL d   1     -46.531  13.669  23.258  0.00  0.00     0.025 A 
ATOM     19  C   UNL d   1     -46.111  14.176  22.758  0.00  0.00     0.002 A 
ATOM     20  C   UNL d   1     -45.590  13.866  22.198  0.00  0.00     0.000 A 
ATOM     21  C   UNL d   1     -45.495  13.044  22.144  0.00  0.00     0.002 A 
ATOM     22  C   UNL d   1     -45.911  12.543  22.638  0.00  0.00     0.025 A 
ENDBRANCH  16  17
ENDBRANCH   3  16
TORSDOF 4
ENDMDL
MODEL 2
REMARK VINA RESULT:      -7.1      1.521      4.349
REMARK  4 active torsions:
REMARK  status: ('A' for Active; 'I' for Inactive)
REMARK       I    between atoms: N_2  and  C_1 
REMARK    1  A    between atoms: O_3  and  C_1 
REMARK    2  A    between atoms: C_5  and  O_3 
REMARK    3  A    between atoms: O_8  and  C_7 
REMARK    4  A    between atoms: C_10  and  O_8 
ROOT
ATOM      1  C   UNL d   1     -48.343  12.050  23.239  0.00  0.00     0.107 A 
ATOM      2  C   UNL d   1     -48.831  12.597  23.620  0.00  0.00     0.050 A 
ATOM      3  C   UNL d   1     -49.581  12.766  23.316  0.00  0.00     0.102 A 
ATOM      4  C   UNL d   1     -49.357  11.843  22.250  0.00  0.00     0.004 A 
ATOM      5  C   UNL d   1     -48.607  11.674  22.554  0.00  0.00     0.025 A 
ATOM      6  C   UNL d   1     -49.844  12.389  22.631  0.00  0.00     0.025 A 
ENDROOT
BRANCH   1   7
ATOM      7  O   UNL d   1     -47.594  11.882  23.543  0.00  0.00    -0.259 OA
BRANCH   7   8
ATOM      8  C   UNL d   1     -46.918  12.216  23.219  0.00  0.00     0.378 C 
ATOM      9  N   UNL d   1     -46.178  11.831  23.265  0.00  0.00    -0.247 N 
ATOM     10  C   UNL d   1     -46.130  11.093  23.648  0.00  0.00     0.112 A 
ATOM     11  C   UNL d   1     -45.504  12.178  22.935  0.00  0.00     0.112 A 
ATOM     12  C   UNL d   1     -45.401  10.705  23.698  0.00  0.00     0.142 A 
ATOM     13  O   UNL d   1     -44.722  11.045  23.370  0.00  0.00    -0.300 OA
ATOM     14  C   UNL d   1     -44.777  11.790  22.985  0.00  0.00     0.142 A 
ATOM     15  O   UNL d   1     -46.980  12.972  22.829  0.00  0.00    -0.237 OA
ENDBRANCH   7   8
ENDBRANCH   1   7
BRANCH   3  16
ATOM     16  O   UNL d   1     -50.068  13.312  23.698  0.00  0.00    -0.307 OA
BRANCH  16  17
ATOM     17  C   UNL d   1     -50.133  14.083  23.406  0.00  0.00     0.100 A 
ATOM     18  C   UNL d   1     -49.588  14.658  23.634  0.00  0.00     0.025 A 
ATOM     19  C   UNL d   1     -49.653  15.429  23.342  0.00  0.00     0.002 A 
ATOM     20  C   UNL d   1     -50.264  15.624  22.824  0.00  0.00     0.000 A 
ATOM     21  C   UNL d   1     -50.809  15.040  22.599  0.00  0.00     0.002 A 
ATOM     22  C   UNL d   1     -50.744  14.278  22.888  0.00  0.00     0.025 A 
ENDBRANCH  16  17
ENDBRANCH   3  16
TORSDOF 4
ENDMDL
MODEL 3
REMARK VINA RESULT:      -6.3      1.668      4.554
REMARK  4 active torsions:
REMARK  status: ('A' for Active; 'I' for Inactive)
REMARK       I    between atoms: N_2  and  C_1 
REMARK    1  A    between atoms: O_3  and  C_1 
REMARK    2  A    between atoms: C_5  and  O_3 
REMARK    3  A    between atoms: O_8  and  C_7 
REMARK    4  A    between atoms: C_10  and  O_8 
ROOT
ATOM      1  C   UNL d   1     -47.808  14.257  23.032  0.00  0.00     0.107 A 
ATOM      2  C   UNL d   1     -48.620  14.138  23.123  0.00  0.00     0.050 A 
ATOM      3  C   UNL d   1     -49.157  14.669  22.788  0.00  0.00     0.102 A 
ATOM      4  C   UNL d   1     -48.073  15.440  22.270  0.00  0.00     0.004 A 
ATOM      5  C   UNL d   1     -47.535  14.909  22.606  0.00  0.00     0.025 A 
ATOM      6  C   UNL d   1     -48.884  15.320  22.362  0.00  0.00     0.025 A 
ENDROOT
BRANCH   1   7
ATOM      7  O   UNL d   1     -47.271  13.727  23.367  0.00  0.00    -0.259 OA
BRANCH   7   8
ATOM      8  C   UNL d   1     -46.565  13.541  22.992  0.00  0.00     0.378 C 
ATOM      9  N   UNL d   1     -46.201  12.797  23.096  0.00  0.00    -0.247 N 
ATOM     10  C   UNL d   1     -46.564  12.234  23.590  0.00  0.00     0.112 A 
ATOM     11  C   UNL d   1     -45.490  12.622  22.712  0.00  0.00     0.112 A 
ATOM     12  C   UNL d   1     -46.210  11.495  23.698  0.00  0.00     0.142 A 
ATOM     13  O   UNL d   1     -45.499  11.311  23.318  0.00  0.00    -0.300 OA
ATOM     14  C   UNL d   1     -45.137  11.883  22.820  0.00  0.00     0.142 A 
ATOM     15  O   UNL d   1     -46.202  14.126  22.488  0.00  0.00    -0.237 OA
ENDBRANCH   7   8
ENDBRANCH   1   7
BRANCH   3  16
ATOM     16  O   UNL d   1     -49.968  14.549  22.879  0.00  0.00    -0.307 OA
BRANCH  16  17
ATOM     17  C   UNL d   1     -50.330  13.887  22.539  0.00  0.00     0.100 A 
ATOM     18  C   UNL d   1     -50.489  13.221  22.999  0.00  0.00     0.025 A 
ATOM     19  C   UNL d   1     -50.850  12.560  22.659  0.00  0.00     0.002 A 
ATOM     20  C   UNL d   1     -51.052  12.565  21.860  0.00  0.00     0.000 A 
ATOM     21  C   UNL d   1     -50.890  13.238  21.403  0.00  0.00     0.002 A 
ATOM     22  C   UNL d   1     -50.532  13.893  21.740  0.00  0.00     0.025 A 
ENDBRANCH  16  17
ENDBRANCH   3  16
TORSDOF 4
ENDMDL
MODEL 4
REMARK VINA RESULT:      -6.0      8.761     10.225
REMARK  4 active torsions:
REMARK  status: ('A' for Active; 'I' for Inactive)
REMARK       I    between atoms: N_2  and  C_1 
REMARK    1  A    between atoms: O_3  and  C_1 
REMARK    2  A    between atoms: C_5  and  O_3 
REMARK    3  A    between atoms: O_8  and  C_7 
REMARK    4  A    between atoms: C_10  and  O_8 
ROOT
ATOM      1  C   UNL d   1     -40.230  15.875  19.675  0.00  0.00     0.107 A 
ATOM      2  C   UNL d   1     -39.615  15.780  20.218  0.00  0.00     0.050 A 
ATOM      3  C   UNL d   1     -39.779  15.733  21.027  0.00  0.00     0.102 A 
ATOM      4  C   UNL d   1     -41.174  15.874  20.752  0.00  0.00     0.004 A 
ATOM      5  C   UNL d   1     -41.010  15.921  19.943  0.00  0.00     0.025 A 
ATOM      6  C   UNL d   1     -40.559  15.780  21.294  0.00  0.00     0.025 A 
ENDROOT
BRANCH   1   7
ATOM      7  O   UNL d   1     -40.066  15.922  18.867  0.00  0.00    -0.259 OA
BRANCH   7   8
ATOM      8  C   UNL d   1     -40.092  15.256  18.387  0.00  0.00     0.378 C 
ATOM      9  N   UNL d   1     -39.692  15.234  17.655  0.00  0.00    -0.247 N 
ATOM     10  C   UNL d   1     -39.260  15.901  17.409  0.00  0.00     0.112 A 
ATOM     11  C   UNL d   1     -39.726  14.557  17.180  0.00  0.00     0.112 A 
ATOM     12  C   UNL d   1     -38.862  15.887  16.684  0.00  0.00     0.142 A 
ATOM     13  O   UNL d   1     -38.890  15.215  16.204  0.00  0.00    -0.300 OA
ATOM     14  C   UNL d   1     -39.328  14.544  16.457  0.00  0.00     0.142 A 
ATOM     15  O   UNL d   1     -40.538  14.578  18.650  0.00  0.00    -0.237 OA
ENDBRANCH   7   8
ENDBRANCH   1   7
BRANCH   3  16
ATOM     16  O   UNL d   1     -39.164  15.639  21.568  0.00  0.00    -0.307 OA
BRANCH  16  17
ATOM     17  C   UNL d   1     -38.914  14.881  21.783  0.00  0.00     0.100 A 
ATOM     18  C   UNL d   1     -38.266  14.537  21.406  0.00  0.00     0.025 A 
ATOM     19  C   UNL d   1     -38.016  13.778  21.621  0.00  0.00     0.002 A 
ATOM     20  C   UNL d   1     -38.415  13.365  22.213  0.00  0.00     0.000 A 
ATOM     21  C   UNL d   1     -39.065  13.717  22.588  0.00  0.00     0.002 A 
ATOM     22  C   UNL d   1     -39.312  14.467  22.376  0.00  0.00     0.025 A 
ENDBRANCH  16  17
ENDBRANCH   3  16
TORSDOF 4
ENDMDL
MODEL 5
REMARK VINA RESULT:      -6.0      9.376     10.516
REMARK  4 active torsions:
REMARK  status: ('A' for Active; 'I' for Inactive)
REMARK       I    between atoms: N_2  and  C_1 
REMARK    1  A    between atoms: O_3  and  C_1 
REMARK    2  A    between atoms: C_5  and  O_3 
REMARK    3  A    between atoms: O_8  and  C_7 
REMARK    4  A    between atoms: C_10  and  O_8 
ROOT
ATOM      1  C   UNL d   1     -39.774  15.275  19.327  0.00  0.00     0.107 A 
ATOM      2  C   UNL d   1     -39.663  14.558  18.933  0.00  0.00     0.050 A 
ATOM      3  C   UNL d   1     -40.106  14.384  18.257  0.00  0.00     0.102 A 
ATOM      4  C   UNL d   1     -40.769  15.644  18.366  0.00  0.00     0.004 A 
ATOM      5  C   UNL d   1     -40.327  15.818  19.043  0.00  0.00     0.025 A 
ATOM      6  C   UNL d   1     -40.659  14.927  17.974  0.00  0.00     0.025 A 
ENDROOT
BRANCH   1   7
ATOM      7  O   UNL d   1     -39.332  15.449  20.003  0.00  0.00    -0.259 OA
BRANCH   7   8
ATOM      8  C   UNL d   1     -39.618  15.282  20.754  0.00  0.00     0.378 C 
ATOM      9  N   UNL d   1     -39.162  15.436  21.436  0.00  0.00    -0.247 N 
ATOM     10  C   UNL d   1     -38.403  15.766  21.349  0.00  0.00     0.112 A 
ATOM     11  C   UNL d   1     -39.461  15.263  22.187  0.00  0.00     0.112 A 
ATOM     12  C   UNL d   1     -37.945  15.921  22.020  0.00  0.00     0.142 A 
ATOM     13  O   UNL d   1     -38.236  15.751  22.775  0.00  0.00    -0.300 OA
ATOM     14  C   UNL d   1     -39.003  15.418  22.857  0.00  0.00     0.142 A 
ATOM     15  O   UNL d   1     -40.397  14.944  20.830  0.00  0.00    -0.237 OA
ENDBRANCH   7   8
ENDBRANCH   1   7
BRANCH   3  16
ATOM     16  O   UNL d   1     -39.995  13.667  17.864  0.00  0.00    -0.307 OA
BRANCH  16  17
ATOM     17  C   UNL d   1     -39.318  13.547  17.404  0.00  0.00     0.100 A 
ATOM     18  C   UNL d   1     -39.238  13.931  16.679  0.00  0.00     0.025 A 
ATOM     19  C   UNL d   1     -38.562  13.811  16.219  0.00  0.00     0.002 A 
ATOM     20  C   UNL d   1     -37.965  13.307  16.486  0.00  0.00     0.000 A 
ATOM     21  C   UNL d   1     -38.052  12.925  17.216  0.00  0.00     0.002 A 
ATOM     22  C   UNL d   1     -38.722  13.043  17.671  0.00  0.00     0.025 A 
ENDBRANCH  16  17
ENDBRANCH   3  16
TORSDOF 4
ENDMDL
MODEL 6
REMARK VINA RESULT:      -5.9      1.518      2.348
REMARK  4 active torsions:
REMARK  status: ('A' for Active; 'I' for Inactive)
REMARK       I    between atoms: N_2  and  C_1 
REMARK    1  A    between atoms: O_3  and  C_1 
REMARK    2  A    between atoms: C_5  and  O_3 
REMARK    3  A    between atoms: O_8  and  C_7 
REMARK    4  A    between atoms: C_10  and  O_8 
ROOT
ATOM      1  C   UNL d   1     -48.376  14.508  22.738  0.00  0.00     0.107 A 
ATOM      2  C   UNL d   1     -47.716  14.162  23.094  0.00  0.00     0.050 A 
ATOM      3  C   UNL d   1     -46.964  14.485  22.974  0.00  0.00     0.102 A 
ATOM      4  C   UNL d   1     -47.531  15.499  22.143  0.00  0.00     0.004 A 
ATOM      5  C   UNL d   1     -48.283  15.176  22.263  0.00  0.00     0.025 A 
ATOM      6  C   UNL d   1     -46.872  15.153  22.499  0.00  0.00     0.025 A 
ENDROOT
BRANCH   1   7
ATOM      7  O   UNL d   1     -49.127  14.186  22.858  0.00  0.00    -0.259 OA
BRANCH   7   8
ATOM      8  C   UNL d   1     -49.430  13.612  22.355  0.00  0.00     0.378 C 
ATOM      9  N   UNL d   1     -49.978  13.043  22.626  0.00  0.00    -0.247 N 
ATOM     10  C   UNL d   1     -50.219  13.061  23.422  0.00  0.00     0.112 A 
ATOM     11  C   UNL d   1     -50.275  12.470  22.109  0.00  0.00     0.112 A 
ATOM     12  C   UNL d   1     -50.762  12.501  23.698  0.00  0.00     0.142 A 
ATOM     13  O   UNL d   1     -51.064  11.924  23.188  0.00  0.00    -0.300 OA
ATOM     14  C   UNL d   1     -50.817  11.911  22.385  0.00  0.00     0.142 A 
ATOM     15  O   UNL d   1     -49.175  13.604  21.541  0.00  0.00    -0.237 OA
ENDBRANCH   7   8
ENDBRANCH   1   7
BRANCH   3  16
ATOM     16  O   UNL d   1     -46.305  14.139  23.329  0.00  0.00    -0.307 OA
BRANCH  16  17
ATOM     17  C   UNL d   1     -45.948  13.477  22.984  0.00  0.00     0.100 A 
ATOM     18  C   UNL d   1     -46.083  12.726  23.295  0.00  0.00     0.025 A 
ATOM     19  C   UNL d   1     -45.725  12.064  22.950  0.00  0.00     0.002 A 
ATOM     20  C   UNL d   1     -45.234  12.156  22.294  0.00  0.00     0.000 A 
ATOM     21  C   UNL d   1     -45.103  12.915  21.986  0.00  0.00     0.002 A 
ATOM     22  C   UNL d   1     -45.456  13.569  22.327  0.00  0.00     0.025 A 
ENDBRANCH  16  17
ENDBRANCH   3  16
TORSDOF 4
ENDMDL
MODEL 7
REMARK VINA RESULT:      -5.8      8.823     10.528
REMARK  4 active torsions:
REMARK  status: ('A' for Active; 'I' for Inactive)
REMARK       I    between atoms: N_2  and  C_1 
REMARK    1  A    between atoms: O_3  and  C_1 
REMARK    2  A    between atoms: C_5  and  O_3 
REMARK    3  A    between atoms: O_8  and  C_7 
REMARK    4  A    between atoms: C_10  and  O_8 
ROOT
ATOM      1  C   UNL d   1     -40.431  15.672  18.204  0.00  0.00     0.107 A 
ATOM      2  C   UNL d   1     -39.665  15.604  17.903  0.00  0.00     0.050 A 
ATOM      3  C   UNL d   1     -39.543  15.553  17.086  0.00  0.00     0.102 A 
ATOM      4  C   UNL d   1     -40.953  15.637  16.871  0.00  0.00     0.004 A 
ATOM      5  C   UNL d   1     -41.074  15.688  17.687  0.00  0.00     0.025 A 
ATOM      6  C   UNL d   1     -40.187  15.569  16.571  0.00  0.00     0.025 A 
ENDROOT
BRANCH   1   7
ATOM      7  O   UNL d   1     -40.552  15.724  19.019  0.00  0.00    -0.259 OA
BRANCH   7   8
ATOM      8  C   UNL d   1     -40.564  15.052  19.491  0.00  0.00     0.378 C 
ATOM      9  N   UNL d   1     -40.361  15.088  20.301  0.00  0.00    -0.247 N 
ATOM     10  C   UNL d   1     -40.145  15.820  20.632  0.00  0.00     0.112 A 
ATOM     11  C   UNL d   1     -40.377  14.404  20.766  0.00  0.00     0.112 A 
ATOM     12  C   UNL d   1     -39.943  15.864  21.433  0.00  0.00     0.142 A 
ATOM     13  O   UNL d   1     -39.956  15.185  21.906  0.00  0.00    -0.300 OA
ATOM     14  C   UNL d   1     -40.175  14.449  21.566  0.00  0.00     0.142 A 
ATOM     15  O   UNL d   1     -40.787  14.307  19.141  0.00  0.00    -0.237 OA
ENDBRANCH   7   8
ENDBRANCH   1   7
BRANCH   3  16
ATOM     16  O   UNL d   1     -38.778  15.485  16.786  0.00  0.00    -0.307 OA
BRANCH  16  17
ATOM     17  C   UNL d   1     -38.500  14.753  16.522  0.00  0.00     0.100 A 
ATOM     18  C   UNL d   1     -38.218  14.198  17.063  0.00  0.00     0.025 A 
ATOM     19  C   UNL d   1     -37.941  13.465  16.799  0.00  0.00     0.002 A 
ATOM     20  C   UNL d   1     -37.945  13.288  15.993  0.00  0.00     0.000 A 
ATOM     21  C   UNL d   1     -38.230  13.851  15.454  0.00  0.00     0.002 A 
ATOM     22  C   UNL d   1     -38.505  14.576  15.716  0.00  0.00     0.025 A 
ENDBRANCH  16  17
ENDBRANCH   3  16
TORSDOF 4
ENDMDL
MODEL 8
REMARK VINA RESULT:      -4.8      8.483     10.874
REMARK  4 active torsions:
REMARK  status: ('A' for Active; 'I' for Inactive)
REMARK       I    between atoms: N_2  and  C_1 
REMARK    1  A    between atoms: O_3  and  C_1 
REMARK    2  A    between atoms: C_5  and  O_3 
REMARK    3  A    between atoms: O_8  and  C_7 
REMARK    4  A    between atoms: C_10  and  O_8 
ROOT
ATOM      1  C   UNL d   1     -38.260  14.247  19.301  0.00  0.00     0.107 A 
ATOM      2  C   UNL d   1     -38.695  14.715  19.823  0.00  0.00     0.050 A 
ATOM      3  C   UNL d   1     -38.820  14.463  20.601  0.00  0.00     0.102 A 
ATOM      4  C   UNL d   1     -38.074  13.275  20.336  0.00  0.00     0.004 A 
ATOM      5  C   UNL d   1     -37.949  13.527  19.558  0.00  0.00     0.025 A 
ATOM      6  C   UNL d   1     -38.509  13.743  20.857  0.00  0.00     0.025 A 
ENDROOT
BRANCH   1   7
ATOM      7  O   UNL d   1     -38.135  14.499  18.524  0.00  0.00    -0.259 OA
BRANCH   7   8
ATOM      8  C   UNL d   1     -38.505  14.128  17.892  0.00  0.00     0.378 C 
ATOM      9  N   UNL d   1     -38.446  14.432  17.116  0.00  0.00    -0.247 N 
ATOM     10  C   UNL d   1     -38.003  15.124  16.986  0.00  0.00     0.112 A 
ATOM     11  C   UNL d   1     -38.823  14.049  16.487  0.00  0.00     0.112 A 
ATOM     12  C   UNL d   1     -37.940  15.431  16.220  0.00  0.00     0.142 A 
ATOM     13  O   UNL d   1     -38.313  15.055  15.585  0.00  0.00    -0.300 OA
ATOM     14  C   UNL d   1     -38.759  14.356  15.723  0.00  0.00     0.142 A 
ATOM     15  O   UNL d   1     -38.956  13.419  18.038  0.00  0.00    -0.237 OA
ENDBRANCH   7   8
ENDBRANCH   1   7
BRANCH   3  16
ATOM     16  O   UNL d   1     -39.255  14.932  21.122  0.00  0.00    -0.307 OA
BRANCH  16  17
ATOM     17  C   UNL d   1     -40.058  15.071  20.981  0.00  0.00     0.100 A 
ATOM     18  C   UNL d   1     -40.301  15.783  20.642  0.00  0.00     0.025 A 
ATOM     19  C   UNL d   1     -41.104  15.922  20.501  0.00  0.00     0.002 A 
ATOM     20  C   UNL d   1     -41.663  15.350  20.701  0.00  0.00     0.000 A 
ATOM     21  C   UNL d   1     -41.412  14.637  21.042  0.00  0.00     0.002 A 
ATOM     22  C   UNL d   1     -40.618  14.499  21.181  0.00  0.00     0.025 A 
ENDBRANCH  16  17
ENDBRANCH   3  16
TORSDOF 4
ENDMDL
