MODEL 1
REMARK VINA RESULT:      41.3      0.000      0.000
REMARK  9 active torsions:
REMARK  status: ('A' for Active; 'I' for Inactive)
REMARK       I    between atoms: C_9  and  N_1 
REMARK       I    between atoms: N_2  and  C_10 
REMARK    1  A    between atoms: C_17  and  C_9 
REMARK    2  A    between atoms: C_10  and  C_18 
REMARK    3  A    between atoms: C_21  and  C_17 
REMARK    4  A    between atoms: C_18  and  C_22 
REMARK    5  A    between atoms: C_24  and  C_21 
REMARK    6  A    between atoms: C_22  and  C_23 
REMARK    7  A    between atoms: C_23  and  C_26 
REMARK    8  A    between atoms: C_25  and  C_24 
REMARK    9  A    between atoms: C_26  and  C_25 
ROOT
ATOM      1  C   UNL d   1      14.210  15.945  -5.859  0.00  0.00     0.000 C 
ENDROOT
BRANCH   1   2
ATOM      2  C   UNL d   1      14.041  16.699  -6.169  0.00  0.00     0.000 C 
BRANCH   2   3
ATOM      3  C   UNL d   1      14.158  17.368  -5.704  0.00  0.00     0.005 C 
BRANCH   3   4
ATOM      4  C   UNL d   1      14.104  18.120  -6.038  0.00  0.00     0.063 C 
BRANCH   4   5
ATOM      5  C   UNL d   1      14.631  18.711  -5.809  0.00  0.00     0.280 C 
ATOM      6  N   UNL d   1      14.412  19.503  -5.859  0.00  0.00    -0.195 N 
ATOM      7  N   UNL d   1      14.936  20.095  -5.631  0.00  0.00    -0.163 NA
ATOM      8  C   UNL d   1      13.718  19.870  -6.110  0.00  0.00     0.088 A 
ATOM      9  C   UNL d   1      14.570  20.823  -5.740  0.00  0.00     0.103 A 
ATOM     10  C   UNL d   1      14.902  21.565  -5.579  0.00  0.00     0.022 C 
ATOM     11  C   UNL d   1      13.815  20.679  -6.037  0.00  0.00     0.040 A 
ATOM     12  C   UNL d   1      13.042  19.485  -6.388  0.00  0.00     0.021 C 
ATOM     13  O   UNL d   1      15.385  18.518  -5.527  0.00  0.00    -0.265 OA
ENDBRANCH   4   5
ENDBRANCH   3   4
ENDBRANCH   2   3
ENDBRANCH   1   2
BRANCH   1  14
ATOM     14  C   UNL d   1      13.765  15.656  -5.228  0.00  0.00     0.000 C 
BRANCH  14  15
ATOM     15  C   UNL d   1      13.799  14.849  -5.027  0.00  0.00     0.000 C 
BRANCH  15  16
ATOM     16  C   UNL d   1      13.114  14.439  -4.831  0.00  0.00     0.005 C 
BRANCH  16  17
ATOM     17  C   UNL d   1      13.159  13.748  -4.382  0.00  0.00     0.063 C 
BRANCH  17  18
ATOM     18  C   UNL d   1      13.560  13.745  -3.666  0.00  0.00     0.280 C 
ATOM     19  N   UNL d   1      13.611  13.053  -3.220  0.00  0.00    -0.195 N 
ATOM     20  N   UNL d   1      13.992  12.963  -2.495  0.00  0.00    -0.163 NA
ATOM     21  C   UNL d   1      13.287  12.314  -3.421  0.00  0.00     0.088 A 
ATOM     22  C   UNL d   1      13.905  12.180  -2.248  0.00  0.00     0.103 A 
ATOM     23  C   UNL d   1      14.205  11.858  -1.549  0.00  0.00     0.022 C 
ATOM     24  C   UNL d   1      13.467  11.781  -2.825  0.00  0.00     0.040 A 
ATOM     25  C   UNL d   1      12.853  12.150  -4.111  0.00  0.00     0.021 C 
ATOM     26  O   UNL d   1      13.914  14.439  -3.389  0.00  0.00    -0.265 OA
ENDBRANCH  17  18
ENDBRANCH  16  17
ENDBRANCH  15  16
ENDBRANCH  14  15
ENDBRANCH   1  14
TORSDOF 9
ENDMDL
MODEL 2
REMARK VINA RESULT:      43.8      1.198      2.112
REMARK  9 active torsions:
REMARK  status: ('A' for Active; 'I' for Inactive)
REMARK       I    between atoms: C_9  and  N_1 
REMARK       I    between atoms: N_2  and  C_10 
REMARK    1  A    between atoms: C_17  and  C_9 
REMARK    2  A    between atoms: C_10  and  C_18 
REMARK    3  A    between atoms: C_21  and  C_17 
REMARK    4  A    between atoms: C_18  and  C_22 
REMARK    5  A    between atoms: C_24  and  C_21 
REMARK    6  A    between atoms: C_22  and  C_23 
REMARK    7  A    between atoms: C_23  and  C_26 
REMARK    8  A    between atoms: C_25  and  C_24 
REMARK    9  A    between atoms: C_26  and  C_25 
ROOT
ATOM      1  C   UNL d   1      13.071  14.008  -5.108  0.00  0.00     0.000 C 
ENDROOT
BRANCH   1   2
ATOM      2  C   UNL d   1      13.001  14.788  -5.390  0.00  0.00     0.000 C 
BRANCH   2   3
ATOM      3  C   UNL d   1      13.564  15.350  -5.181  0.00  0.00     0.005 C 
BRANCH   3   4
ATOM      4  C   UNL d   1      13.557  16.095  -5.535  0.00  0.00     0.063 C 
BRANCH   4   5
ATOM      5  C   UNL d   1      14.134  16.650  -5.337  0.00  0.00     0.280 C 
ATOM      6  N   UNL d   1      14.071  17.426  -5.604  0.00  0.00    -0.195 N 
ATOM      7  N   UNL d   1      14.645  17.982  -5.409  0.00  0.00    -0.163 NA
ATOM      8  C   UNL d   1      13.505  17.806  -6.069  0.00  0.00     0.088 A 
ATOM      9  C   UNL d   1      14.438  18.701  -5.749  0.00  0.00     0.103 A 
ATOM     10  C   UNL d   1      14.864  19.410  -5.691  0.00  0.00     0.022 C 
ATOM     11  C   UNL d   1      13.731  18.588  -6.158  0.00  0.00     0.040 A 
ATOM     12  C   UNL d   1      12.830  17.457  -6.389  0.00  0.00     0.021 C 
ATOM     13  O   UNL d   1      14.782  16.437  -4.869  0.00  0.00    -0.265 OA
ENDBRANCH   4   5
ENDBRANCH   3   4
ENDBRANCH   2   3
ENDBRANCH   1   2
BRANCH   1  14
ATOM     14  C   UNL d   1      13.154  13.873  -4.299  0.00  0.00     0.000 C 
BRANCH  14  15
ATOM     15  C   UNL d   1      12.786  13.217  -3.944  0.00  0.00     0.000 C 
BRANCH  15  16
ATOM     16  C   UNL d   1      13.232  12.567  -3.707  0.00  0.00     0.005 C 
BRANCH  16  17
ATOM     17  C   UNL d   1      13.352  12.418  -2.904  0.00  0.00     0.063 C 
BRANCH  17  18
ATOM     18  C   UNL d   1      14.091  12.537  -2.567  0.00  0.00     0.280 C 
ATOM     19  N   UNL d   1      14.233  12.316  -1.785  0.00  0.00    -0.195 N 
ATOM     20  N   UNL d   1      14.940  12.399  -1.372  0.00  0.00    -0.163 NA
ATOM     21  C   UNL d   1      13.685  11.966  -1.267  0.00  0.00     0.088 A 
ATOM     22  C   UNL d   1      14.835  12.105  -0.608  0.00  0.00     0.103 A 
ATOM     23  C   UNL d   1      15.409  12.085  -0.014  0.00  0.00     0.022 C 
ATOM     24  C   UNL d   1      14.054  11.837  -0.547  0.00  0.00     0.040 A 
ATOM     25  C   UNL d   1      12.896  11.780  -1.453  0.00  0.00     0.021 C 
ATOM     26  O   UNL d   1      14.697  12.880  -3.013  0.00  0.00    -0.265 OA
ENDBRANCH  17  18
ENDBRANCH  16  17
ENDBRANCH  15  16
ENDBRANCH  14  15
ENDBRANCH   1  14
TORSDOF 9
ENDMDL
