MODEL 1
REMARK VINA RESULT:      -7.1      0.000      0.000
REMARK  3 active torsions:
REMARK  status: ('A' for Active; 'I' for Inactive)
REMARK       I    between atoms: N_2  and  C_1 
REMARK    1  A    between atoms: O_3  and  C_1 
REMARK    2  A    between atoms: C_9  and  O_3 
REMARK    3  A    between atoms: C_5  and  C_6 
ROOT
ATOM      1  C   UNL d   1     -46.246  13.188  22.573  0.00  0.00    -0.023 A 
ATOM      2  C   UNL d   1     -46.852  13.087  22.023  0.00  0.00    -0.002 A 
ATOM      3  C   UNL d   1     -46.338  13.726  23.192  0.00  0.00    -0.002 A 
ATOM      4  C   UNL d   1     -47.633  14.054  22.710  0.00  0.00     0.105 A 
ATOM      5  C   UNL d   1     -47.033  14.160  23.260  0.00  0.00     0.025 A 
ATOM      6  C   UNL d   1     -47.548  13.521  22.092  0.00  0.00     0.025 A 
ENDROOT
BRANCH   4   7
ATOM      7  O   UNL d   1     -48.331  14.490  22.779  0.00  0.00    -0.259 OA
BRANCH   7   8
ATOM      8  C   UNL d   1     -49.024  14.145  23.053  0.00  0.00     0.377 C 
ATOM      9  N   UNL d   1     -49.687  14.602  23.240  0.00  0.00    -0.252 N 
ATOM     10  C   UNL d   1     -49.644  15.426  23.146  0.00  0.00     0.085 A 
ATOM     11  C   UNL d   1     -50.370  14.247  23.512  0.00  0.00     0.085 A 
ATOM     12  C   UNL d   1     -50.299  15.888  23.330  0.00  0.00     0.019 A 
ATOM     13  C   UNL d   1     -50.995  15.537  23.606  0.00  0.00     0.003 A 
ATOM     14  C   UNL d   1     -51.031  14.708  23.698  0.00  0.00     0.019 A 
ATOM     15  O   UNL d   1     -49.047  13.305  23.141  0.00  0.00    -0.237 OA
ENDBRANCH   7   8
ENDBRANCH   4   7
BRANCH   1  16
ATOM     16  C   UNL d   1     -45.547  12.752  22.504  0.00  0.00     0.019 C 
ATOM     17  C   UNL d   1     -44.920  13.045  22.049  0.00  0.00     0.004 C 
ATOM     18  C   UNL d   1     -45.473  12.026  22.889  0.00  0.00     0.004 C 
ATOM     19  C   UNL d   1     -45.417  13.435  22.051  0.00  0.00     0.004 C 
ENDBRANCH   1  16
TORSDOF 3
ENDMDL
MODEL 2
REMARK VINA RESULT:      -6.3      2.051      4.701
REMARK  3 active torsions:
REMARK  status: ('A' for Active; 'I' for Inactive)
REMARK       I    between atoms: N_2  and  C_1 
REMARK    1  A    between atoms: O_3  and  C_1 
REMARK    2  A    between atoms: C_9  and  O_3 
REMARK    3  A    between atoms: C_5  and  C_6 
ROOT
ATOM      1  C   UNL d   1     -47.908  13.781  22.598  0.00  0.00    -0.023 A 
ATOM      2  C   UNL d   1     -47.751  13.111  22.142  0.00  0.00    -0.002 A 
ATOM      3  C   UNL d   1     -47.379  14.009  23.188  0.00  0.00    -0.002 A 
ATOM      4  C   UNL d   1     -46.546  12.905  22.865  0.00  0.00     0.105 A 
ATOM      5  C   UNL d   1     -46.696  13.570  23.322  0.00  0.00     0.025 A 
ATOM      6  C   UNL d   1     -47.068  12.672  22.276  0.00  0.00     0.025 A 
ENDROOT
BRANCH   4   7
ATOM      7  O   UNL d   1     -45.861  12.464  23.000  0.00  0.00    -0.259 OA
BRANCH   7   8
ATOM      8  C   UNL d   1     -45.895  11.716  23.337  0.00  0.00     0.377 C 
ATOM      9  N   UNL d   1     -45.232  11.221  23.349  0.00  0.00    -0.252 N 
ATOM     10  C   UNL d   1     -44.523  11.491  23.014  0.00  0.00     0.085 A 
ATOM     11  C   UNL d   1     -45.279  10.478  23.687  0.00  0.00     0.085 A 
ATOM     12  C   UNL d   1     -43.860  11.004  23.023  0.00  0.00     0.019 A 
ATOM     13  C   UNL d   1     -43.898  10.251  23.362  0.00  0.00     0.003 A 
ATOM     14  C   UNL d   1     -44.614   9.986  23.698  0.00  0.00     0.019 A 
ATOM     15  O   UNL d   1     -46.626  11.458  23.673  0.00  0.00    -0.237 OA
ENDBRANCH   7   8
ENDBRANCH   4   7
BRANCH   1  16
ATOM     16  C   UNL d   1     -48.594  14.222  22.463  0.00  0.00     0.019 C 
ATOM     17  C   UNL d   1     -48.546  14.953  22.076  0.00  0.00     0.004 C 
ATOM     18  C   UNL d   1     -49.326  13.934  22.712  0.00  0.00     0.004 C 
ATOM     19  C   UNL d   1     -47.980  14.679  22.141  0.00  0.00     0.004 C 
ENDBRANCH   1  16
TORSDOF 3
ENDMDL
MODEL 3
REMARK VINA RESULT:      -6.2      1.514      4.375
REMARK  3 active torsions:
REMARK  status: ('A' for Active; 'I' for Inactive)
REMARK       I    between atoms: N_2  and  C_1 
REMARK    1  A    between atoms: O_3  and  C_1 
REMARK    2  A    between atoms: C_9  and  O_3 
REMARK    3  A    between atoms: C_5  and  C_6 
ROOT
ATOM      1  C   UNL d   1     -49.808  13.586  22.297  0.00  0.00    -0.023 A 
ATOM      2  C   UNL d   1     -49.350  13.207  21.725  0.00  0.00    -0.002 A 
ATOM      3  C   UNL d   1     -49.442  13.978  22.924  0.00  0.00    -0.002 A 
ATOM      4  C   UNL d   1     -48.171  13.610  22.407  0.00  0.00     0.105 A 
ATOM      5  C   UNL d   1     -48.621  13.990  22.979  0.00  0.00     0.025 A 
ATOM      6  C   UNL d   1     -48.529  13.219  21.780  0.00  0.00     0.025 A 
ENDROOT
BRANCH   4   7
ATOM      7  O   UNL d   1     -47.347  13.622  22.462  0.00  0.00    -0.259 OA
BRANCH   7   8
ATOM      8  C   UNL d   1     -46.935  13.007  22.818  0.00  0.00     0.377 C 
ATOM      9  N   UNL d   1     -46.139  12.867  22.644  0.00  0.00    -0.252 N 
ATOM     10  C   UNL d   1     -45.755  13.360  22.098  0.00  0.00     0.085 A 
ATOM     11  C   UNL d   1     -45.739  12.252  23.005  0.00  0.00     0.085 A 
ATOM     12  C   UNL d   1     -44.963  13.226  21.919  0.00  0.00     0.019 A 
ATOM     13  C   UNL d   1     -44.551  12.606  22.280  0.00  0.00     0.003 A 
ATOM     14  C   UNL d   1     -44.943  12.114  22.828  0.00  0.00     0.019 A 
ATOM     15  O   UNL d   1     -47.343  12.516  23.372  0.00  0.00    -0.237 OA
ENDBRANCH   7   8
ENDBRANCH   4   7
BRANCH   1  16
ATOM     16  C   UNL d   1     -50.633  13.575  22.242  0.00  0.00     0.019 C 
ATOM     17  C   UNL d   1     -51.029  14.182  21.840  0.00  0.00     0.004 C 
ATOM     18  C   UNL d   1     -51.061  12.959  22.585  0.00  0.00     0.004 C 
ATOM     19  C   UNL d   1     -50.402  14.262  21.839  0.00  0.00     0.004 C 
ENDBRANCH   1  16
TORSDOF 3
ENDMDL
MODEL 4
REMARK VINA RESULT:      -5.9      8.803      9.693
REMARK  3 active torsions:
REMARK  status: ('A' for Active; 'I' for Inactive)
REMARK       I    between atoms: N_2  and  C_1 
REMARK    1  A    between atoms: O_3  and  C_1 
REMARK    2  A    between atoms: C_9  and  O_3 
REMARK    3  A    between atoms: C_5  and  C_6 
ROOT
ATOM      1  C   UNL d   1     -40.411  15.405  17.701  0.00  0.00    -0.023 A 
ATOM      2  C   UNL d   1     -40.248  15.921  18.323  0.00  0.00    -0.002 A 
ATOM      3  C   UNL d   1     -40.409  14.590  17.830  0.00  0.00    -0.002 A 
ATOM      4  C   UNL d   1     -40.083  14.811  19.195  0.00  0.00     0.105 A 
ATOM      5  C   UNL d   1     -40.244  14.293  18.580  0.00  0.00     0.025 A 
ATOM      6  C   UNL d   1     -40.084  15.623  19.073  0.00  0.00     0.025 A 
ENDROOT
BRANCH   4   7
ATOM      7  O   UNL d   1     -39.918  14.513  19.947  0.00  0.00    -0.259 OA
BRANCH   7   8
ATOM      8  C   UNL d   1     -39.172  14.230  20.139  0.00  0.00     0.377 C 
ATOM      9  N   UNL d   1     -39.001  13.950  20.898  0.00  0.00    -0.252 N 
ATOM     10  C   UNL d   1     -39.600  13.958  21.473  0.00  0.00     0.085 A 
ATOM     11  C   UNL d   1     -38.254  13.671  21.077  0.00  0.00     0.085 A 
ATOM     12  C   UNL d   1     -39.438  13.681  22.230  0.00  0.00     0.019 A 
ATOM     13  C   UNL d   1     -38.685  13.397  22.419  0.00  0.00     0.003 A 
ATOM     14  C   UNL d   1     -38.087  13.392  21.838  0.00  0.00     0.019 A 
ATOM     15  O   UNL d   1     -38.575  14.230  19.541  0.00  0.00    -0.237 OA
ENDBRANCH   7   8
ENDBRANCH   4   7
BRANCH   1  16
ATOM     16  C   UNL d   1     -40.576  15.704  16.947  0.00  0.00     0.019 C 
ATOM     17  C   UNL d   1     -41.358  15.875  16.733  0.00  0.00     0.004 C 
ATOM     18  C   UNL d   1     -39.964  15.831  16.410  0.00  0.00     0.004 C 
ATOM     19  C   UNL d   1     -41.315  15.651  17.322  0.00  0.00     0.004 C 
ENDBRANCH   1  16
TORSDOF 3
ENDMDL
MODEL 5
REMARK VINA RESULT:      -5.8      8.221     10.298
REMARK  3 active torsions:
REMARK  status: ('A' for Active; 'I' for Inactive)
REMARK       I    between atoms: N_2  and  C_1 
REMARK    1  A    between atoms: O_3  and  C_1 
REMARK    2  A    between atoms: C_9  and  O_3 
REMARK    3  A    between atoms: C_5  and  C_6 
ROOT
ATOM      1  C   UNL d   1     -40.335  15.175  20.146  0.00  0.00    -0.023 A 
ATOM      2  C   UNL d   1     -40.727  14.580  19.731  0.00  0.00    -0.002 A 
ATOM      3  C   UNL d   1     -39.718  15.588  19.786  0.00  0.00    -0.002 A 
ATOM      4  C   UNL d   1     -39.889  14.814  18.608  0.00  0.00     0.105 A 
ATOM      5  C   UNL d   1     -39.494  15.407  19.015  0.00  0.00     0.025 A 
ATOM      6  C   UNL d   1     -40.504  14.398  18.960  0.00  0.00     0.025 A 
ENDROOT
BRANCH   4   7
ATOM      7  O   UNL d   1     -39.665  14.632  17.834  0.00  0.00    -0.259 OA
BRANCH   7   8
ATOM      8  C   UNL d   1     -39.205  13.972  17.668  0.00  0.00     0.377 C 
ATOM      9  N   UNL d   1     -38.799  13.901  16.951  0.00  0.00    -0.252 N 
ATOM     10  C   UNL d   1     -38.861  14.513  16.393  0.00  0.00     0.085 A 
ATOM     11  C   UNL d   1     -38.345  13.240  16.797  0.00  0.00     0.085 A 
ATOM     12  C   UNL d   1     -38.460  14.450  15.678  0.00  0.00     0.019 A 
ATOM     13  C   UNL d   1     -37.998  13.784  15.514  0.00  0.00     0.003 A 
ATOM     14  C   UNL d   1     -37.940  13.173  16.079  0.00  0.00     0.019 A 
ATOM     15  O   UNL d   1     -39.154  13.360  18.248  0.00  0.00    -0.237 OA
ENDBRANCH   7   8
ENDBRANCH   4   7
BRANCH   1  16
ATOM     16  C   UNL d   1     -40.560  15.357  20.920  0.00  0.00     0.019 C 
ATOM     17  C   UNL d   1     -41.150  15.922  21.057  0.00  0.00     0.004 C 
ATOM     18  C   UNL d   1     -40.196  14.977  21.556  0.00  0.00     0.004 C 
ATOM     19  C   UNL d   1     -41.036  15.839  20.441  0.00  0.00     0.004 C 
ENDBRANCH   1  16
TORSDOF 3
ENDMDL
MODEL 6
REMARK VINA RESULT:      -5.6      8.513      9.201
REMARK  3 active torsions:
REMARK  status: ('A' for Active; 'I' for Inactive)
REMARK       I    between atoms: N_2  and  C_1 
REMARK    1  A    between atoms: O_3  and  C_1 
REMARK    2  A    between atoms: C_9  and  O_3 
REMARK    3  A    between atoms: C_5  and  C_6 
ROOT
ATOM      1  C   UNL d   1     -39.001  14.145  22.001  0.00  0.00    -0.023 A 
ATOM      2  C   UNL d   1     -39.808  14.222  21.851  0.00  0.00    -0.002 A 
ATOM      3  C   UNL d   1     -38.465  14.135  21.373  0.00  0.00    -0.002 A 
ATOM      4  C   UNL d   1     -39.541  14.277  20.457  0.00  0.00     0.105 A 
ATOM      5  C   UNL d   1     -38.736  14.201  20.599  0.00  0.00     0.025 A 
ATOM      6  C   UNL d   1     -40.079  14.288  21.076  0.00  0.00     0.025 A 
ENDROOT
BRANCH   4   7
ATOM      7  O   UNL d   1     -39.812  14.343  19.679  0.00  0.00    -0.259 OA
BRANCH   7   8
ATOM      8  C   UNL d   1     -40.060  15.064  19.375  0.00  0.00     0.377 C 
ATOM      9  N   UNL d   1     -40.318  15.134  18.592  0.00  0.00    -0.252 N 
ATOM     10  C   UNL d   1     -40.324  14.457  18.111  0.00  0.00     0.085 A 
ATOM     11  C   UNL d   1     -40.561  15.857  18.300  0.00  0.00     0.085 A 
ATOM     12  C   UNL d   1     -40.579  14.518  17.331  0.00  0.00     0.019 A 
ATOM     13  C   UNL d   1     -40.828  15.246  17.028  0.00  0.00     0.003 A 
ATOM     14  C   UNL d   1     -40.819  15.922  17.516  0.00  0.00     0.019 A 
ATOM     15  O   UNL d   1     -40.046  15.742  19.880  0.00  0.00    -0.237 OA
ENDBRANCH   7   8
ENDBRANCH   4   7
BRANCH   1  16
ATOM     16  C   UNL d   1     -38.728  14.079  22.779  0.00  0.00     0.019 C 
ATOM     17  C   UNL d   1     -38.616  13.330  23.114  0.00  0.00     0.004 C 
ATOM     18  C   UNL d   1     -38.569  14.758  23.220  0.00  0.00     0.004 C 
ATOM     19  C   UNL d   1     -38.824  13.297  22.519  0.00  0.00     0.004 C 
ENDBRANCH   1  16
TORSDOF 3
ENDMDL
MODEL 7
REMARK VINA RESULT:      -5.4      8.015      9.957
REMARK  3 active torsions:
REMARK  status: ('A' for Active; 'I' for Inactive)
REMARK       I    between atoms: N_2  and  C_1 
REMARK    1  A    between atoms: O_3  and  C_1 
REMARK    2  A    between atoms: C_9  and  O_3 
REMARK    3  A    between atoms: C_5  and  C_6 
ROOT
ATOM      1  C   UNL d   1     -38.636  14.341  16.563  0.00  0.00    -0.023 A 
ATOM      2  C   UNL d   1     -38.282  14.252  17.303  0.00  0.00    -0.002 A 
ATOM      3  C   UNL d   1     -39.447  14.480  16.509  0.00  0.00    -0.002 A 
ATOM      4  C   UNL d   1     -39.544  14.441  17.926  0.00  0.00     0.105 A 
ATOM      5  C   UNL d   1     -39.903  14.531  17.193  0.00  0.00     0.025 A 
ATOM      6  C   UNL d   1     -38.738  14.303  17.986  0.00  0.00     0.025 A 
ENDROOT
BRANCH   4   7
ATOM      7  O   UNL d   1     -40.002  14.492  18.612  0.00  0.00    -0.259 OA
BRANCH   7   8
ATOM      8  C   UNL d   1     -40.071  15.198  19.026  0.00  0.00     0.377 C 
ATOM      9  N   UNL d   1     -40.302  15.208  19.821  0.00  0.00    -0.252 N 
ATOM     10  C   UNL d   1     -40.464  14.487  20.200  0.00  0.00     0.085 A 
ATOM     11  C   UNL d   1     -40.368  15.916  20.223  0.00  0.00     0.085 A 
ATOM     12  C   UNL d   1     -40.694  14.489  20.990  0.00  0.00     0.019 A 
ATOM     13  C   UNL d   1     -40.763  15.202  21.404  0.00  0.00     0.003 A 
ATOM     14  C   UNL d   1     -40.598  15.922  21.017  0.00  0.00     0.019 A 
ATOM     15  O   UNL d   1     -39.902  15.921  18.623  0.00  0.00    -0.237 OA
ENDBRANCH   7   8
ENDBRANCH   4   7
BRANCH   1  16
ATOM     16  C   UNL d   1     -38.178  14.290  15.876  0.00  0.00     0.019 C 
ATOM     17  C   UNL d   1     -37.939  13.549  15.593  0.00  0.00     0.004 C 
ATOM     18  C   UNL d   1     -37.959  14.976  15.474  0.00  0.00     0.004 C 
ATOM     19  C   UNL d   1     -38.285  13.504  16.120  0.00  0.00     0.004 C 
ENDBRANCH   1  16
TORSDOF 3
ENDMDL
