MODEL 1
REMARK VINA RESULT:      -9.6      0.000      0.000
REMARK  4 active torsions:
REMARK  status: ('A' for Active; 'I' for Inactive)
REMARK       I    between atoms: N_3  and  C_1 
REMARK    1  A    between atoms: O_5  and  C_1 
REMARK    2  A    between atoms: C_2  and  O_8 
REMARK       I    between atoms: N_4  and  C_2 
REMARK    3  A    between atoms: C_6  and  O_5 
REMARK    4  A    between atoms: O_8  and  C_12 
ROOT
ATOM      1  C   UNL d   1      53.507  32.903  53.966  0.00  0.00     0.105 A 
ATOM      2  C   UNL d   1      53.090  33.579  53.750  0.00  0.00     0.025 A 
ATOM      3  C   UNL d   1      52.452  33.519  53.234  0.00  0.00     0.027 A 
ATOM      4  C   UNL d   1      52.020  34.204  53.007  0.00  0.00     0.105 A 
ATOM      5  C   UNL d   1      53.309  34.304  54.045  0.00  0.00     0.002 A 
ATOM      6  C   UNL d   1      52.895  34.988  53.832  0.00  0.00     0.002 A 
ATOM      7  C   UNL d   1      52.238  34.929  53.302  0.00  0.00     0.025 A 
ATOM      8  C   UNL d   1      54.145  32.963  54.482  0.00  0.00     0.025 A 
ATOM      9  C   UNL d   1      54.364  33.688  54.777  0.00  0.00     0.002 A 
ATOM     10  C   UNL d   1      53.950  34.371  54.564  0.00  0.00     0.000 A 
ENDROOT
BRANCH   1  11
ATOM     11  O   UNL d   1      53.285  32.167  53.667  0.00  0.00    -0.259 OA
BRANCH  11  12
ATOM     12  C   UNL d   1      53.434  31.481  54.104  0.00  0.00     0.378 C 
ATOM     13  N   UNL d   1      53.227  30.729  53.800  0.00  0.00    -0.247 N 
ATOM     14  C   UNL d   1      53.381  30.047  54.248  0.00  0.00     0.112 A 
ATOM     15  C   UNL d   1      52.872  30.675  53.059  0.00  0.00     0.112 A 
ATOM     16  C   UNL d   1      53.171  29.302  53.938  0.00  0.00     0.142 A 
ATOM     17  O   UNL d   1      52.811  29.250  53.185  0.00  0.00    -0.300 OA
ATOM     18  C   UNL d   1      52.664  29.938  52.752  0.00  0.00     0.142 A 
ATOM     19  O   UNL d   1      53.791  31.527  54.850  0.00  0.00    -0.237 OA
ENDBRANCH  11  12
ENDBRANCH   1  11
BRANCH   4  20
ATOM     20  O   UNL d   1      51.380  34.141  52.489  0.00  0.00    -0.259 OA
BRANCH  20  21
ATOM     21  C   UNL d   1      50.632  34.371  52.730  0.00  0.00     0.378 C 
ATOM     22  N   UNL d   1      50.018  34.445  52.180  0.00  0.00    -0.247 N 
ATOM     23  C   UNL d   1      49.270  34.678  52.442  0.00  0.00     0.112 A 
ATOM     24  C   UNL d   1      50.161  34.287  51.391  0.00  0.00     0.112 A 
ATOM     25  C   UNL d   1      48.660  34.751  51.894  0.00  0.00     0.142 A 
ATOM     26  O   UNL d   1      48.796  34.593  51.096  0.00  0.00    -0.300 OA
ATOM     27  C   UNL d   1      49.546  34.362  50.846  0.00  0.00     0.142 A 
ATOM     28  O   UNL d   1      50.499  34.528  53.529  0.00  0.00    -0.237 OA
ENDBRANCH  20  21
ENDBRANCH   4  20
TORSDOF 4
ENDMDL
MODEL 2
REMARK VINA RESULT:      -8.6      0.566      4.438
REMARK  4 active torsions:
REMARK  status: ('A' for Active; 'I' for Inactive)
REMARK       I    between atoms: N_3  and  C_1 
REMARK    1  A    between atoms: O_5  and  C_1 
REMARK    2  A    between atoms: C_2  and  O_8 
REMARK       I    between atoms: N_4  and  C_2 
REMARK    3  A    between atoms: C_6  and  O_5 
REMARK    4  A    between atoms: O_8  and  C_12 
ROOT
ATOM      1  C   UNL d   1      52.599  34.461  53.672  0.00  0.00     0.105 A 
ATOM      2  C   UNL d   1      53.189  33.940  53.912  0.00  0.00     0.025 A 
ATOM      3  C   UNL d   1      53.201  33.171  53.620  0.00  0.00     0.027 A 
ATOM      4  C   UNL d   1      53.800  32.631  53.859  0.00  0.00     0.105 A 
ATOM      5  C   UNL d   1      53.760  34.185  54.437  0.00  0.00     0.002 A 
ATOM      6  C   UNL d   1      54.356  33.667  54.683  0.00  0.00     0.002 A 
ATOM      7  C   UNL d   1      54.370  32.876  54.384  0.00  0.00     0.025 A 
ATOM      8  C   UNL d   1      52.587  35.230  53.964  0.00  0.00     0.025 A 
ATOM      9  C   UNL d   1      53.158  35.475  54.489  0.00  0.00     0.002 A 
ATOM     10  C   UNL d   1      53.754  34.957  54.735  0.00  0.00     0.000 A 
ENDROOT
BRANCH   1  11
ATOM     11  O   UNL d   1      52.020  34.213  53.140  0.00  0.00    -0.259 OA
BRANCH  11  12
ATOM     12  C   UNL d   1      51.230  34.424  53.261  0.00  0.00     0.378 C 
ATOM     13  N   UNL d   1      50.682  34.406  52.628  0.00  0.00    -0.247 N 
ATOM     14  C   UNL d   1      49.891  34.619  52.760  0.00  0.00     0.112 A 
ATOM     15  C   UNL d   1      50.937  34.175  51.878  0.00  0.00     0.112 A 
ATOM     16  C   UNL d   1      49.353  34.599  52.124  0.00  0.00     0.142 A 
ATOM     17  O   UNL d   1      49.613  34.365  51.365  0.00  0.00    -0.300 OA
ATOM     18  C   UNL d   1      50.404  34.155  51.249  0.00  0.00     0.142 A 
ATOM     19  O   UNL d   1      50.966  34.656  54.011  0.00  0.00    -0.237 OA
ENDBRANCH  11  12
ENDBRANCH   1  11
BRANCH   4  20
ATOM     20  O   UNL d   1      53.809  31.860  53.565  0.00  0.00    -0.259 OA
BRANCH  20  21
ATOM     21  C   UNL d   1      53.648  31.229  54.060  0.00  0.00     0.378 C 
ATOM     22  N   UNL d   1      53.326  30.529  53.757  0.00  0.00    -0.247 N 
ATOM     23  C   UNL d   1      53.170  29.903  54.272  0.00  0.00     0.112 A 
ATOM     24  C   UNL d   1      53.168  30.470  52.958  0.00  0.00     0.112 A 
ATOM     25  C   UNL d   1      52.850  29.207  53.970  0.00  0.00     0.142 A 
ATOM     26  O   UNL d   1      52.688  29.140  53.164  0.00  0.00    -0.300 OA
ATOM     27  C   UNL d   1      52.847  29.770  52.660  0.00  0.00     0.142 A 
ATOM     28  O   UNL d   1      53.812  31.300  54.865  0.00  0.00    -0.237 OA
ENDBRANCH  20  21
ENDBRANCH   4  20
TORSDOF 4
ENDMDL
MODEL 3
REMARK VINA RESULT:      -6.8      2.021      6.075
REMARK  4 active torsions:
REMARK  status: ('A' for Active; 'I' for Inactive)
REMARK       I    between atoms: N_3  and  C_1 
REMARK    1  A    between atoms: O_5  and  C_1 
REMARK    2  A    between atoms: C_2  and  O_8 
REMARK       I    between atoms: N_4  and  C_2 
REMARK    3  A    between atoms: C_6  and  O_5 
REMARK    4  A    between atoms: O_8  and  C_12 
ROOT
ATOM      1  C   UNL d   1      48.522  35.170  52.066  0.00  0.00     0.105 A 
ATOM      2  C   UNL d   1      49.264  34.816  52.006  0.00  0.00     0.025 A 
ATOM      3  C   UNL d   1      49.783  34.841  52.644  0.00  0.00     0.027 A 
ATOM      4  C   UNL d   1      50.542  34.482  52.592  0.00  0.00     0.105 A 
ATOM      5  C   UNL d   1      49.482  34.444  51.317  0.00  0.00     0.002 A 
ATOM      6  C   UNL d   1      50.225  34.086  51.249  0.00  0.00     0.002 A 
ATOM      7  C   UNL d   1      50.760  34.110  51.903  0.00  0.00     0.025 A 
ATOM      8  C   UNL d   1      48.003  35.146  51.428  0.00  0.00     0.025 A 
ATOM      9  C   UNL d   1      48.221  34.773  50.740  0.00  0.00     0.002 A 
ATOM     10  C   UNL d   1      48.964  34.415  50.672  0.00  0.00     0.000 A 
ENDROOT
BRANCH   1  11
ATOM     11  O   UNL d   1      48.301  35.548  52.765  0.00  0.00    -0.259 OA
BRANCH  11  12
ATOM     12  C   UNL d   1      47.531  35.836  52.853  0.00  0.00     0.378 C 
ATOM     13  N   UNL d   1      47.268  36.130  53.591  0.00  0.00    -0.247 N 
ATOM     14  C   UNL d   1      46.492  36.417  53.668  0.00  0.00     0.112 A 
ATOM     15  C   UNL d   1      47.784  36.132  54.234  0.00  0.00     0.112 A 
ATOM     16  C   UNL d   1      46.239  36.708  54.406  0.00  0.00     0.142 A 
ATOM     17  O   UNL d   1      46.764  36.709  55.057  0.00  0.00    -0.300 OA
ATOM     18  C   UNL d   1      47.532  36.421  54.964  0.00  0.00     0.142 A 
ATOM     19  O   UNL d   1      47.007  35.837  52.211  0.00  0.00    -0.237 OA
ENDBRANCH  11  12
ENDBRANCH   1  11
BRANCH   4  20
ATOM     20  O   UNL d   1      51.061  34.508  53.233  0.00  0.00    -0.259 OA
BRANCH  20  21
ATOM     21  C   UNL d   1      51.482  33.841  53.448  0.00  0.00     0.378 C 
ATOM     22  N   UNL d   1      52.211  33.910  53.834  0.00  0.00    -0.247 N 
ATOM     23  C   UNL d   1      52.622  33.225  54.043  0.00  0.00     0.112 A 
ATOM     24  C   UNL d   1      52.511  34.652  54.000  0.00  0.00     0.112 A 
ATOM     25  C   UNL d   1      53.347  33.296  54.426  0.00  0.00     0.142 A 
ATOM     26  O   UNL d   1      53.657  34.041  54.597  0.00  0.00    -0.300 OA
ATOM     27  C   UNL d   1      53.239  34.717  54.384  0.00  0.00     0.142 A 
ATOM     28  O   UNL d   1      51.170  33.097  53.276  0.00  0.00    -0.237 OA
ENDBRANCH  20  21
ENDBRANCH   4  20
TORSDOF 4
ENDMDL
MODEL 4
REMARK VINA RESULT:      -6.6      9.456     10.844
REMARK  4 active torsions:
REMARK  status: ('A' for Active; 'I' for Inactive)
REMARK       I    between atoms: N_3  and  C_1 
REMARK    1  A    between atoms: O_5  and  C_1 
REMARK    2  A    between atoms: C_2  and  O_8 
REMARK       I    between atoms: N_4  and  C_2 
REMARK    3  A    between atoms: C_6  and  O_5 
REMARK    4  A    between atoms: O_8  and  C_12 
ROOT
ATOM      1  C   UNL d   1      44.747  30.646  58.401  0.00  0.00     0.105 A 
ATOM      2  C   UNL d   1      44.850  30.076  57.816  0.00  0.00     0.025 A 
ATOM      3  C   UNL d   1      45.056  29.307  58.023  0.00  0.00     0.027 A 
ATOM      4  C   UNL d   1      45.164  28.719  57.432  0.00  0.00     0.105 A 
ATOM      5  C   UNL d   1      44.748  30.273  57.034  0.00  0.00     0.002 A 
ATOM      6  C   UNL d   1      44.850  29.707  56.440  0.00  0.00     0.002 A 
ATOM      7  C   UNL d   1      45.062  28.916  56.650  0.00  0.00     0.025 A 
ATOM      8  C   UNL d   1      44.541  31.415  58.194  0.00  0.00     0.025 A 
ATOM      9  C   UNL d   1      44.439  31.612  57.412  0.00  0.00     0.002 A 
ATOM     10  C   UNL d   1      44.541  31.045  56.818  0.00  0.00     0.000 A 
ENDROOT
BRANCH   1  11
ATOM     11  O   UNL d   1      44.850  30.445  59.195  0.00  0.00    -0.259 OA
BRANCH  11  12
ATOM     12  C   UNL d   1      44.590  30.959  59.788  0.00  0.00     0.378 C 
ATOM     13  N   UNL d   1      44.588  30.718  60.589  0.00  0.00    -0.247 N 
ATOM     14  C   UNL d   1      44.325  31.242  61.177  0.00  0.00     0.112 A 
ATOM     15  C   UNL d   1      44.848  29.961  60.786  0.00  0.00     0.112 A 
ATOM     16  C   UNL d   1      44.326  30.995  61.973  0.00  0.00     0.142 A 
ATOM     17  O   UNL d   1      44.590  30.226  62.170  0.00  0.00    -0.300 OA
ATOM     18  C   UNL d   1      44.849  29.716  61.574  0.00  0.00     0.142 A 
ATOM     19  O   UNL d   1      44.328  31.722  59.598  0.00  0.00    -0.237 OA
ENDBRANCH  11  12
ENDBRANCH   1  11
BRANCH   4  20
ATOM     20  O   UNL d   1      45.371  27.948  57.643  0.00  0.00    -0.259 OA
BRANCH  20  21
ATOM     21  C   UNL d   1      44.935  27.314  57.364  0.00  0.00     0.378 C 
ATOM     22  N   UNL d   1      44.851  26.629  57.820  0.00  0.00    -0.247 N 
ATOM     23  C   UNL d   1      44.407  25.999  57.521  0.00  0.00     0.112 A 
ATOM     24  C   UNL d   1      45.205  26.586  58.555  0.00  0.00     0.112 A 
ATOM     25  C   UNL d   1      44.324  25.318  57.976  0.00  0.00     0.142 A 
ATOM     26  O   UNL d   1      44.679  25.268  58.719  0.00  0.00    -0.300 OA
ATOM     27  C   UNL d   1      45.119  25.901  59.007  0.00  0.00     0.142 A 
ATOM     28  O   UNL d   1      44.581  27.368  56.620  0.00  0.00    -0.237 OA
ENDBRANCH  20  21
ENDBRANCH   4  20
TORSDOF 4
ENDMDL
