MODEL 1
REMARK VINA RESULT:      80.2      0.000      0.000
REMARK  5 active torsions:
REMARK  status: ('A' for Active; 'I' for Inactive)
REMARK    1  A    between atoms: O_8  and  S_1 
REMARK    2  A    between atoms: C_9  and  S_1 
REMARK    3  A    between atoms: C_7  and  C_2 
REMARK    4  A    between atoms: C_20  and  C_7 
REMARK    5  A    between atoms: C_14  and  O_8 
ROOT
ATOM      1  C   UNL d   1      59.155  49.331  51.047  0.00  0.00     0.139 A 
ATOM      2  C   UNL d   1      60.322  48.749  51.305  0.00  0.00     0.064 A 
ATOM      3  C   UNL d   1      59.655  49.080  51.654  0.00  0.00     0.220 A 
ATOM      4  C   UNL d   1      60.239  48.792  50.485  0.00  0.00     0.105 A 
ATOM      5  O   UNL d   1      59.514  49.154  50.326  0.00  0.00    -0.304 OA
ATOM      6  C   UNL d   1      60.828  48.500  50.004  0.00  0.00     0.050 A 
ATOM      7  C   UNL d   1      60.997  48.412  51.634  0.00  0.00     0.007 A 
ATOM      8  C   UNL d   1      61.504  48.162  50.333  0.00  0.00     0.116 A 
ATOM      9  O   UNL d   1      59.505  49.154  52.461  0.00  0.00    -0.284 OA
ATOM     10  C   UNL d   1      61.586  48.120  51.144  0.00  0.00     0.026 A 
ENDROOT
BRANCH   8  11
ATOM     11  O   UNL d   1      62.096  47.868  49.843  0.00  0.00    -0.227 OA
BRANCH  11  12
ATOM     12  S   UNL d   1      62.107  47.068  49.642  0.00  0.00     0.304 S 
ATOM     13  O   UNL d   1      62.730  47.203  49.139  0.00  0.00    -0.193 OA
ATOM     14  O   UNL d   1      61.477  46.919  50.148  0.00  0.00    -0.193 OA
BRANCH  12  15
ATOM     15  C   UNL d   1      62.122  46.260  49.436  0.00  0.00     0.111 A 
ATOM     16  C   UNL d   1      61.416  45.829  49.426  0.00  0.00     0.016 A 
ATOM     17  C   UNL d   1      61.430  45.029  49.223  0.00  0.00     0.030 A 
ATOM     18  C   UNL d   1      62.149  44.661  49.029  0.00  0.00     0.140 A 
ATOM     19  C   UNL d   1      62.850  45.105  49.043  0.00  0.00     0.030 A 
ATOM     20  F   UNL d   1      62.163  43.875  48.829  0.00  0.00    -0.204 F 
ATOM     21  C   UNL d   1      62.832  45.904  49.247  0.00  0.00     0.016 A 
ENDBRANCH  12  15
ENDBRANCH  11  12
ENDBRANCH   8  11
BRANCH   1  22
ATOM     22  C   UNL d   1      58.421  49.697  51.140  0.00  0.00     0.029 C 
BRANCH  22  23
ATOM     23  C   UNL d   1      57.813  49.567  50.593  0.00  0.00     0.021 A 
ATOM     24  C   UNL d   1      57.980  49.613  49.792  0.00  0.00     0.099 A 
ATOM     25  N   UNL d   1      57.388  49.486  49.240  0.00  0.00    -0.242 NA
ATOM     26  C   UNL d   1      56.614  49.310  49.495  0.00  0.00     0.099 A 
ATOM     27  C   UNL d   1      56.451  49.265  50.304  0.00  0.00     0.021 A 
ATOM     28  C   UNL d   1      57.058  49.395  50.850  0.00  0.00     0.003 A 
ENDBRANCH  22  23
ENDBRANCH   1  22
TORSDOF 5
ENDMDL
