MODEL 1
REMARK VINA RESULT:      -2.7      0.000      0.000
REMARK  3 active torsions:
REMARK  status: ('A' for Active; 'I' for Inactive)
REMARK    1  A    between atoms: C_5  and  N_1 
REMARK    2  A    between atoms: C_11  and  C_3 
REMARK    3  A    between atoms: C_7  and  C_5 
ROOT
ATOM      1  N   UNL d   1      32.315  17.479 -24.082  0.00  0.00    -0.286 N 
ATOM      2  N   UNL d   1      31.803  16.331 -23.589  0.00  0.00    -0.224 NA
ATOM      3  C   UNL d   1      32.506  16.766 -23.708  0.00  0.00     0.191 A 
ATOM      4  C   UNL d   1      31.488  17.496 -24.201  0.00  0.00     0.083 A 
ATOM      5  C   UNL d   1      31.179  16.788 -23.897  0.00  0.00     0.099 A 
ATOM      6  C   UNL d   1      30.974  18.056 -24.544  0.00  0.00     0.019 A 
ATOM      7  C   UNL d   1      30.356  16.637 -23.933  0.00  0.00     0.021 A 
ATOM      8  C   UNL d   1      30.163  17.909 -24.581  0.00  0.00     0.002 A 
ATOM      9  C   UNL d   1      29.855  17.201 -24.276  0.00  0.00     0.002 A 
ENDROOT
BRANCH   1  10
ATOM     10  C   UNL d   1      32.959  17.970 -24.236  0.00  0.00     0.082 C 
BRANCH  10  11
ATOM     11  C   UNL d   1      33.031  18.689 -23.850  0.00  0.00     0.018 A 
ATOM     12  C   UNL d   1      33.169  19.374 -24.275  0.00  0.00     0.001 A 
ATOM     13  C   UNL d   1      33.241  20.095 -23.889  0.00  0.00     0.000 A 
ATOM     14  C   UNL d   1      33.235  19.333 -25.097  0.00  0.00     0.000 C 
ATOM     15  C   UNL d   1      33.174  20.132 -23.068  0.00  0.00     0.000 A 
ATOM     16  C   UNL d   1      33.034  19.443 -22.636  0.00  0.00     0.000 A 
ATOM     17  C   UNL d   1      32.963  18.722 -23.028  0.00  0.00     0.002 A 
ATOM     18  C   UNL d   1      32.967  19.476 -21.814  0.00  0.00     0.000 C 
ENDBRANCH  10  11
ENDBRANCH   1  10
BRANCH   3  19
ATOM     19  C   UNL d   1      33.005  16.211 -23.369  0.00  0.00     0.271 C 
ATOM     20  O   UNL d   1      33.081  15.462 -23.706  0.00  0.00    -0.280 OA
ENDBRANCH   3  19
TORSDOF 3
ENDMDL
MODEL 2
REMARK VINA RESULT:      -2.5      1.619      3.614
REMARK  3 active torsions:
REMARK  status: ('A' for Active; 'I' for Inactive)
REMARK    1  A    between atoms: C_5  and  N_1 
REMARK    2  A    between atoms: C_11  and  C_3 
REMARK    3  A    between atoms: C_7  and  C_5 
ROOT
ATOM      1  N   UNL d   1      31.343  17.223 -24.295  0.00  0.00    -0.286 N 
ATOM      2  N   UNL d   1      32.479  17.430 -23.596  0.00  0.00    -0.224 NA
ATOM      3  C   UNL d   1      31.710  17.719 -23.743  0.00  0.00     0.191 A 
ATOM      4  C   UNL d   1      31.881  16.617 -24.497  0.00  0.00     0.083 A 
ATOM      5  C   UNL d   1      32.577  16.749 -24.065  0.00  0.00     0.099 A 
ATOM      6  C   UNL d   1      31.836  15.964 -25.015  0.00  0.00     0.019 A 
ATOM      7  C   UNL d   1      33.230  16.231 -24.147  0.00  0.00     0.021 A 
ATOM      8  C   UNL d   1      32.477  15.453 -25.097  0.00  0.00     0.002 A 
ATOM      9  C   UNL d   1      33.173  15.585 -24.664  0.00  0.00     0.002 A 
ENDROOT
BRANCH   1  10
ATOM     10  C   UNL d   1      30.574  17.442 -24.496  0.00  0.00     0.082 C 
BRANCH  10  11
ATOM     11  C   UNL d   1      29.935  17.029 -24.192  0.00  0.00     0.018 A 
ATOM     12  C   UNL d   1      29.183  17.155 -24.489  0.00  0.00     0.001 A 
ATOM     13  C   UNL d   1      28.542  16.742 -24.184  0.00  0.00     0.000 A 
ATOM     14  C   UNL d   1      29.075  17.702 -25.097  0.00  0.00     0.000 C 
ATOM     15  C   UNL d   1      28.654  16.195 -23.576  0.00  0.00     0.000 A 
ATOM     16  C   UNL d   1      29.411  16.067 -23.275  0.00  0.00     0.000 A 
ATOM     17  C   UNL d   1      30.051  16.483 -23.584  0.00  0.00     0.002 A 
ATOM     18  C   UNL d   1      29.527  15.521 -22.667  0.00  0.00     0.000 C 
ENDBRANCH  10  11
ENDBRANCH   1  10
BRANCH   3  19
ATOM     19  C   UNL d   1      31.762  18.358 -23.234  0.00  0.00     0.271 C 
ATOM     20  O   UNL d   1      32.340  18.936 -23.350  0.00  0.00    -0.280 OA
ENDBRANCH   3  19
TORSDOF 3
ENDMDL
MODEL 3
REMARK VINA RESULT:      -2.3      1.138      3.387
REMARK  3 active torsions:
REMARK  status: ('A' for Active; 'I' for Inactive)
REMARK    1  A    between atoms: C_5  and  N_1 
REMARK    2  A    between atoms: C_11  and  C_3 
REMARK    3  A    between atoms: C_7  and  C_5 
ROOT
ATOM      1  N   UNL d   1      31.359  17.280 -24.571  0.00  0.00    -0.286 N 
ATOM      2  N   UNL d   1      32.583  16.749 -24.367  0.00  0.00    -0.224 NA
ATOM      3  C   UNL d   1      31.848  16.635 -24.747  0.00  0.00     0.191 A 
ATOM      4  C   UNL d   1      31.785  17.803 -24.079  0.00  0.00     0.083 A 
ATOM      5  C   UNL d   1      32.536  17.472 -23.957  0.00  0.00     0.099 A 
ATOM      6  C   UNL d   1      31.594  18.534 -23.726  0.00  0.00     0.019 A 
ATOM      7  C   UNL d   1      33.100  17.869 -23.482  0.00  0.00     0.021 A 
ATOM      8  C   UNL d   1      32.148  18.927 -23.257  0.00  0.00     0.002 A 
ATOM      9  C   UNL d   1      32.899  18.595 -23.135  0.00  0.00     0.002 A 
ENDROOT
BRANCH   1  10
ATOM     10  C   UNL d   1      30.609  17.244 -24.912  0.00  0.00     0.082 C 
BRANCH  10  11
ATOM     11  C   UNL d   1      29.961  17.027 -24.458  0.00  0.00     0.018 A 
ATOM     12  C   UNL d   1      29.248  17.418 -24.545  0.00  0.00     0.001 A 
ATOM     13  C   UNL d   1      28.598  17.201 -24.092  0.00  0.00     0.000 A 
ATOM     14  C   UNL d   1      29.187  18.032 -25.093  0.00  0.00     0.000 C 
ATOM     15  C   UNL d   1      28.663  16.586 -23.545  0.00  0.00     0.000 A 
ATOM     16  C   UNL d   1      29.381  16.191 -23.456  0.00  0.00     0.000 A 
ATOM     17  C   UNL d   1      30.029  16.412 -23.913  0.00  0.00     0.002 A 
ATOM     18  C   UNL d   1      29.449  15.575 -22.910  0.00  0.00     0.000 C 
ENDBRANCH  10  11
ENDBRANCH   1  10
BRANCH   3  19
ATOM     19  C   UNL d   1      32.043  15.918 -25.091  0.00  0.00     0.271 C 
ATOM     20  O   UNL d   1      32.678  15.478 -24.802  0.00  0.00    -0.280 OA
ENDBRANCH   3  19
TORSDOF 3
ENDMDL
MODEL 4
REMARK VINA RESULT:      -1.3      1.916      3.156
REMARK  3 active torsions:
REMARK  status: ('A' for Active; 'I' for Inactive)
REMARK    1  A    between atoms: C_5  and  N_1 
REMARK    2  A    between atoms: C_11  and  C_3 
REMARK    3  A    between atoms: C_7  and  C_5 
ROOT
ATOM      1  N   UNL d   1      29.939  16.801 -24.462  0.00  0.00    -0.286 N 
ATOM      2  N   UNL d   1      28.818  17.511 -24.214  0.00  0.00    -0.224 NA
ATOM      3  C   UNL d   1      29.512  17.477 -24.677  0.00  0.00     0.191 A 
ATOM      4  C   UNL d   1      29.514  16.406 -23.862  0.00  0.00     0.083 A 
ATOM      5  C   UNL d   1      28.826  16.846 -23.713  0.00  0.00     0.099 A 
ATOM      6  C   UNL d   1      29.657  15.707 -23.430  0.00  0.00     0.019 A 
ATOM      7  C   UNL d   1      28.279  16.590 -23.134  0.00  0.00     0.021 A 
ATOM      8  C   UNL d   1      29.119  15.453 -22.858  0.00  0.00     0.002 A 
ATOM      9  C   UNL d   1      28.432  15.894 -22.711  0.00  0.00     0.002 A 
ENDROOT
BRANCH   1  10
ATOM     10  C   UNL d   1      30.644  16.695 -24.877  0.00  0.00     0.082 C 
BRANCH  10  11
ATOM     11  C   UNL d   1      31.364  16.802 -24.499  0.00  0.00     0.018 A 
ATOM     12  C   UNL d   1      31.954  16.240 -24.571  0.00  0.00     0.001 A 
ATOM     13  C   UNL d   1      32.676  16.347 -24.194  0.00  0.00     0.000 A 
ATOM     14  C   UNL d   1      31.818  15.566 -25.027  0.00  0.00     0.000 C 
ATOM     15  C   UNL d   1      32.809  17.022 -23.739  0.00  0.00     0.000 A 
ATOM     16  C   UNL d   1      32.215  17.589 -23.665  0.00  0.00     0.000 A 
ATOM     17  C   UNL d   1      31.493  17.479 -24.045  0.00  0.00     0.002 A 
ATOM     18  C   UNL d   1      32.344  18.267 -23.211  0.00  0.00     0.000 C 
ENDBRANCH  10  11
ENDBRANCH   1  10
BRANCH   3  19
ATOM     19  C   UNL d   1      29.365  18.165 -25.097  0.00  0.00     0.271 C 
ATOM     20  O   UNL d   1      28.612  18.502 -25.090  0.00  0.00    -0.280 OA
ENDBRANCH   3  19
TORSDOF 3
ENDMDL
MODEL 5
REMARK VINA RESULT:      -1.2      1.402      3.404
REMARK  3 active torsions:
REMARK  status: ('A' for Active; 'I' for Inactive)
REMARK    1  A    between atoms: C_5  and  N_1 
REMARK    2  A    between atoms: C_11  and  C_3 
REMARK    3  A    between atoms: C_7  and  C_5 
ROOT
ATOM      1  N   UNL d   1      33.232  18.549 -23.335  0.00  0.00    -0.286 N 
ATOM      2  N   UNL d   1      33.218  19.698 -22.627  0.00  0.00    -0.224 NA
ATOM      3  C   UNL d   1      33.223  18.865 -22.570  0.00  0.00     0.191 A 
ATOM      4  C   UNL d   1      33.233  19.183 -23.878  0.00  0.00     0.083 A 
ATOM      5  C   UNL d   1      33.224  19.887 -23.438  0.00  0.00     0.099 A 
ATOM      6  C   UNL d   1      33.240  19.219 -24.712  0.00  0.00     0.019 A 
ATOM      7  C   UNL d   1      33.223  20.628 -23.827  0.00  0.00     0.021 A 
ATOM      8  C   UNL d   1      33.239  19.948 -25.097  0.00  0.00     0.002 A 
ATOM      9  C   UNL d   1      33.230  20.651 -24.656  0.00  0.00     0.002 A 
ENDROOT
BRANCH   1  10
ATOM     10  C   UNL d   1      33.238  17.725 -23.366  0.00  0.00     0.082 C 
BRANCH  10  11
ATOM     11  C   UNL d   1      32.540  17.313 -23.491  0.00  0.00     0.018 A 
ATOM     12  C   UNL d   1      32.528  16.497 -23.430  0.00  0.00     0.001 A 
ATOM     13  C   UNL d   1      31.829  16.083 -23.555  0.00  0.00     0.000 A 
ATOM     14  C   UNL d   1      33.223  16.094 -23.241  0.00  0.00     0.000 C 
ATOM     15  C   UNL d   1      31.136  16.489 -23.744  0.00  0.00     0.000 A 
ATOM     16  C   UNL d   1      31.147  17.311 -23.806  0.00  0.00     0.000 A 
ATOM     17  C   UNL d   1      31.849  17.722 -23.680  0.00  0.00     0.002 A 
ATOM     18  C   UNL d   1      30.456  17.721 -23.995  0.00  0.00     0.000 C 
ENDBRANCH  10  11
ENDBRANCH   1  10
BRANCH   3  19
ATOM     19  C   UNL d   1      33.215  18.838 -21.751  0.00  0.00     0.271 C 
ATOM     20  O   UNL d   1      33.157  19.535 -21.314  0.00  0.00    -0.280 OA
ENDBRANCH   3  19
TORSDOF 3
ENDMDL
