MODEL 1
REMARK VINA RESULT:      -3.0      0.000      0.000
REMARK  3 active torsions:
REMARK  status: ('A' for Active; 'I' for Inactive)
REMARK    1  A    between atoms: C_2  and  N_1 
REMARK    2  A    between atoms: N_6  and  C_5 
REMARK    3  A    between atoms: C_12  and  N_6 
ROOT
ATOM      1  C   UNL d   1      29.640  16.379 -23.967  0.00  0.00     0.128 A 
ATOM      2  C   UNL d   1      30.148  15.852 -23.587  0.00  0.00     0.046 A 
ATOM      3  C   UNL d   1      30.963  15.980 -23.604  0.00  0.00     0.122 A 
ATOM      4  C   UNL d   1      31.269  16.635 -24.000  0.00  0.00     0.101 A 
ATOM      5  C   UNL d   1      29.946  17.034 -24.363  0.00  0.00     0.025 A 
ATOM      6  C   UNL d   1      30.759  17.158 -24.378  0.00  0.00     0.022 A 
ATOM      7  N   UNL d   1      31.471  15.453 -23.223  0.00  0.00    -0.146 N 
ENDROOT
BRANCH   4   8
ATOM      8  N   UNL d   1      32.082  16.759 -24.014  0.00  0.00    -0.244 NA
BRANCH   8   9
ATOM      9  C   UNL d   1      32.380  17.527 -23.961  0.00  0.00     0.081 A 
ATOM     10  C   UNL d   1      32.559  17.948 -24.648  0.00  0.00     0.019 A 
ATOM     11  C   UNL d   1      32.856  18.715 -24.596  0.00  0.00     0.002 A 
ATOM     12  C   UNL d   1      32.974  19.062 -23.856  0.00  0.00     0.000 A 
ATOM     13  C   UNL d   1      32.795  18.641 -23.170  0.00  0.00     0.002 A 
ATOM     14  C   UNL d   1      32.498  17.874 -23.222  0.00  0.00     0.019 A 
ENDBRANCH   8   9
ENDBRANCH   4   8
BRANCH   1  15
ATOM     15  N   UNL d   1      28.825  16.251 -23.951  0.00  0.00    -0.114 N 
ATOM     16  O   UNL d   1      28.369  16.578 -23.346  0.00  0.00    -0.532 OA
ATOM     17  O   UNL d   1      28.467  15.795 -24.538  0.00  0.00    -0.532 OA
ENDBRANCH   1  15
TORSDOF 3
ENDMDL
MODEL 2
REMARK VINA RESULT:      -2.4      2.958      4.293
REMARK  3 active torsions:
REMARK  status: ('A' for Active; 'I' for Inactive)
REMARK    1  A    between atoms: C_2  and  N_1 
REMARK    2  A    between atoms: N_6  and  C_5 
REMARK    3  A    between atoms: C_12  and  N_6 
ROOT
ATOM      1  C   UNL d   1      33.191  19.987 -22.295  0.00  0.00     0.128 A 
ATOM      2  C   UNL d   1      33.232  20.171 -23.098  0.00  0.00     0.046 A 
ATOM      3  C   UNL d   1      33.199  19.568 -23.661  0.00  0.00     0.122 A 
ATOM      4  C   UNL d   1      33.125  18.783 -23.420  0.00  0.00     0.101 A 
ATOM      5  C   UNL d   1      33.117  19.203 -22.054  0.00  0.00     0.025 A 
ATOM      6  C   UNL d   1      33.084  18.605 -22.617  0.00  0.00     0.022 A 
ATOM      7  N   UNL d   1      33.240  19.751 -24.464  0.00  0.00    -0.146 N 
ENDROOT
BRANCH   4   8
ATOM      8  N   UNL d   1      33.092  18.185 -23.983  0.00  0.00    -0.244 NA
BRANCH   8   9
ATOM      9  C   UNL d   1      32.594  17.539 -23.866  0.00  0.00     0.081 A 
ATOM     10  C   UNL d   1      31.793  17.593 -24.061  0.00  0.00     0.019 A 
ATOM     11  C   UNL d   1      31.295  16.947 -23.944  0.00  0.00     0.002 A 
ATOM     12  C   UNL d   1      31.596  16.245 -23.630  0.00  0.00     0.000 A 
ATOM     13  C   UNL d   1      32.396  16.191 -23.434  0.00  0.00     0.002 A 
ATOM     14  C   UNL d   1      32.894  16.837 -23.552  0.00  0.00     0.019 A 
ENDBRANCH   8   9
ENDBRANCH   4   8
BRANCH   1  15
ATOM     15  N   UNL d   1      33.224  20.590 -21.733  0.00  0.00    -0.114 N 
ATOM     16  O   UNL d   1      33.240  21.379 -21.975  0.00  0.00    -0.532 OA
ATOM     17  O   UNL d   1      33.241  20.405 -20.929  0.00  0.00    -0.532 OA
ENDBRANCH   1  15
TORSDOF 3
ENDMDL
MODEL 3
REMARK VINA RESULT:      -1.2      2.854      4.149
REMARK  3 active torsions:
REMARK  status: ('A' for Active; 'I' for Inactive)
REMARK    1  A    between atoms: C_2  and  N_1 
REMARK    2  A    between atoms: N_6  and  C_5 
REMARK    3  A    between atoms: C_12  and  N_6 
ROOT
ATOM      1  C   UNL d   1      32.878  18.355 -23.582  0.00  0.00     0.128 A 
ATOM      2  C   UNL d   1      32.993  18.962 -24.128  0.00  0.00     0.046 A 
ATOM      3  C   UNL d   1      33.115  19.736 -23.864  0.00  0.00     0.122 A 
ATOM      4  C   UNL d   1      33.120  19.900 -23.057  0.00  0.00     0.101 A 
ATOM      5  C   UNL d   1      32.883  18.519 -22.774  0.00  0.00     0.025 A 
ATOM      6  C   UNL d   1      33.004  19.290 -22.516  0.00  0.00     0.022 A 
ATOM      7  N   UNL d   1      33.230  20.343 -24.410  0.00  0.00    -0.146 N 
ENDROOT
BRANCH   4   8
ATOM      8  N   UNL d   1      33.241  20.671 -22.798  0.00  0.00    -0.244 NA
BRANCH   8   9
ATOM      9  C   UNL d   1      32.958  20.904 -22.059  0.00  0.00     0.081 A 
ATOM     10  C   UNL d   1      32.413  21.521 -22.001  0.00  0.00     0.019 A 
ATOM     11  C   UNL d   1      32.130  21.754 -21.263  0.00  0.00     0.002 A 
ATOM     12  C   UNL d   1      32.391  21.370 -20.581  0.00  0.00     0.000 A 
ATOM     13  C   UNL d   1      32.936  20.753 -20.639  0.00  0.00     0.002 A 
ATOM     14  C   UNL d   1      33.219  20.520 -21.377  0.00  0.00     0.019 A 
ENDBRANCH   8   9
ENDBRANCH   4   8
BRANCH   1  15
ATOM     15  N   UNL d   1      32.757  17.583 -23.846  0.00  0.00    -0.114 N 
ATOM     16  O   UNL d   1      33.153  17.309 -24.516  0.00  0.00    -0.532 OA
ATOM     17  O   UNL d   1      32.240  17.084 -23.440  0.00  0.00    -0.532 OA
ENDBRANCH   1  15
TORSDOF 3
ENDMDL
MODEL 4
REMARK VINA RESULT:      -0.7      4.553      5.990
REMARK  3 active torsions:
REMARK  status: ('A' for Active; 'I' for Inactive)
REMARK    1  A    between atoms: C_2  and  N_1 
REMARK    2  A    between atoms: N_6  and  C_5 
REMARK    3  A    between atoms: C_12  and  N_6 
ROOT
ATOM      1  C   UNL d   1      32.399  22.832 -21.385  0.00  0.00     0.128 A 
ATOM      2  C   UNL d   1      32.546  23.054 -22.166  0.00  0.00     0.046 A 
ATOM      3  C   UNL d   1      32.827  22.497 -22.706  0.00  0.00     0.122 A 
ATOM      4  C   UNL d   1      32.960  21.720 -22.467  0.00  0.00     0.101 A 
ATOM      5  C   UNL d   1      32.532  22.055 -21.145  0.00  0.00     0.025 A 
ATOM      6  C   UNL d   1      32.812  21.503 -21.687  0.00  0.00     0.022 A 
ATOM      7  N   UNL d   1      32.975  22.720 -23.487  0.00  0.00    -0.146 N 
ENDROOT
BRANCH   4   8
ATOM      8  N   UNL d   1      33.240  21.168 -23.008  0.00  0.00    -0.244 NA
BRANCH   8   9
ATOM      9  C   UNL d   1      33.111  20.364 -22.877  0.00  0.00     0.081 A 
ATOM     10  C   UNL d   1      33.238  20.042 -22.127  0.00  0.00     0.019 A 
ATOM     11  C   UNL d   1      33.109  19.239 -21.996  0.00  0.00     0.002 A 
ATOM     12  C   UNL d   1      32.853  18.756 -22.614  0.00  0.00     0.000 A 
ATOM     13  C   UNL d   1      32.726  19.078 -23.363  0.00  0.00     0.002 A 
ATOM     14  C   UNL d   1      32.855  19.881 -23.494  0.00  0.00     0.019 A 
ENDBRANCH   8   9
ENDBRANCH   4   8
BRANCH   1  15
ATOM     15  N   UNL d   1      32.118  23.389 -20.845  0.00  0.00    -0.114 N 
ATOM     16  O   UNL d   1      32.617  23.678 -20.254  0.00  0.00    -0.532 OA
ATOM     17  O   UNL d   1      31.339  23.657 -20.895  0.00  0.00    -0.532 OA
ENDBRANCH   1  15
TORSDOF 3
ENDMDL
MODEL 5
REMARK VINA RESULT:      -0.2      5.911      7.273
REMARK  3 active torsions:
REMARK  status: ('A' for Active; 'I' for Inactive)
REMARK    1  A    between atoms: C_2  and  N_1 
REMARK    2  A    between atoms: N_6  and  C_5 
REMARK    3  A    between atoms: C_12  and  N_6 
ROOT
ATOM      1  C   UNL d   1      32.846  22.782 -18.711  0.00  0.00     0.128 A 
ATOM      2  C   UNL d   1      32.472  23.310 -19.222  0.00  0.00     0.046 A 
ATOM      3  C   UNL d   1      32.483  23.174 -20.036  0.00  0.00     0.122 A 
ATOM      4  C   UNL d   1      32.869  22.511 -20.338  0.00  0.00     0.101 A 
ATOM      5  C   UNL d   1      33.231  22.119 -19.012  0.00  0.00     0.025 A 
ATOM      6  C   UNL d   1      33.241  21.986 -19.824  0.00  0.00     0.022 A 
ATOM      7  N   UNL d   1      32.109  23.702 -20.547  0.00  0.00    -0.146 N 
ENDROOT
BRANCH   4   8
ATOM      8  N   UNL d   1      32.878  22.379 -21.149  0.00  0.00    -0.244 NA
BRANCH   8   9
ATOM      9  C   UNL d   1      32.759  21.616 -21.441  0.00  0.00     0.081 A 
ATOM     10  C   UNL d   1      33.237  21.327 -22.049  0.00  0.00     0.019 A 
ATOM     11  C   UNL d   1      33.117  20.566 -22.341  0.00  0.00     0.002 A 
ATOM     12  C   UNL d   1      32.520  20.092 -22.025  0.00  0.00     0.000 A 
ATOM     13  C   UNL d   1      32.043  20.381 -21.418  0.00  0.00     0.002 A 
ATOM     14  C   UNL d   1      32.162  21.142 -21.126  0.00  0.00     0.019 A 
ENDBRANCH   8   9
ENDBRANCH   4   8
BRANCH   1  15
ATOM     15  N   UNL d   1      32.834  22.918 -17.897  0.00  0.00    -0.114 N 
ATOM     16  O   UNL d   1      32.750  22.284 -17.375  0.00  0.00    -0.532 OA
ATOM     17  O   UNL d   1      32.906  23.686 -17.606  0.00  0.00    -0.532 OA
ENDBRANCH   1  15
TORSDOF 3
ENDMDL
