MODEL 1
REMARK VINA RESULT:      20.1      0.000      0.000
REMARK  3 active torsions:
REMARK  status: ('A' for Active; 'I' for Inactive)
REMARK    1  A    between atoms: N_3  and  C_1 
REMARK    2  A    between atoms: O_4  and  C_2 
REMARK    3  A    between atoms: C_7  and  O_4 
ROOT
ATOM      1  C   UNL d   1      42.886 -15.492  36.784  0.00  0.00     0.205 A 
ATOM      2  C   UNL d   1      43.689 -15.379  36.797  0.00  0.00     0.209 A 
ATOM      3  N   UNL d   1      44.180 -15.985  36.578  0.00  0.00    -0.198 NA
ATOM      4  C   UNL d   1      42.567 -16.218  36.549  0.00  0.00     0.211 A 
ATOM      5  N   UNL d   1      43.058 -16.823  36.330  0.00  0.00    -0.202 NA
ATOM      6  C   UNL d   1      43.855 -16.717  36.342  0.00  0.00     0.202 A 
ATOM      7  N   UNL d   1      41.749 -16.342  36.532  0.00  0.00    -0.125 N 
ENDROOT
BRANCH   2   8
ATOM      8  O   UNL d   1      44.039 -14.648  37.033  0.00  0.00    -0.288 OA
BRANCH   8   9
ATOM      9  C   UNL d   1      44.862 -14.600  37.103  0.00  0.00     0.102 A 
ATOM     10  C   UNL d   1      45.199 -14.026  37.578  0.00  0.00     0.023 A 
ATOM     11  C   UNL d   1      46.023 -13.982  37.644  0.00  0.00     0.002 A 
ATOM     12  C   UNL d   1      44.754 -13.491  37.990  0.00  0.00     0.002 C 
ATOM     13  C   UNL d   1      46.506 -14.513  37.236  0.00  0.00     0.000 A 
ATOM     14  C   UNL d   1      46.160 -15.090  36.759  0.00  0.00     0.002 A 
ATOM     15  C   UNL d   1      45.324 -15.145  36.682  0.00  0.00     0.025 A 
ATOM     16  C   UNL d   1      46.646 -15.645  36.331  0.00  0.00     0.000 C 
ENDBRANCH   8   9
ENDBRANCH   2   8
BRANCH   1  17
ATOM     17  N   UNL d   1      42.385 -14.879  37.005  0.00  0.00    -0.107 N 
ATOM     18  O   UNL d   1      42.366 -14.641  37.768  0.00  0.00    -0.531 OA
ATOM     19  O   UNL d   1      41.914 -14.522  36.442  0.00  0.00    -0.531 OA
ENDBRANCH   1  17
TORSDOF 3
ENDMDL
MODEL 2
REMARK VINA RESULT:      20.3      6.473      7.378
REMARK  3 active torsions:
REMARK  status: ('A' for Active; 'I' for Inactive)
REMARK    1  A    between atoms: N_3  and  C_1 
REMARK    2  A    between atoms: O_4  and  C_2 
REMARK    3  A    between atoms: C_7  and  O_4 
ROOT
ATOM      1  C   UNL d   1      45.340 -14.093  44.452  0.00  0.00     0.205 A 
ATOM      2  C   UNL d   1      44.870 -13.478  44.211  0.00  0.00     0.209 A 
ATOM      3  N   UNL d   1      44.065 -13.566  44.220  0.00  0.00    -0.198 NA
ATOM      4  C   UNL d   1      45.005 -14.805  44.706  0.00  0.00     0.211 A 
ATOM      5  N   UNL d   1      44.201 -14.892  44.715  0.00  0.00    -0.202 NA
ATOM      6  C   UNL d   1      43.729 -14.286  44.477  0.00  0.00     0.202 A 
ATOM      7  N   UNL d   1      45.478 -15.437  44.954  0.00  0.00    -0.125 N 
ENDROOT
BRANCH   2   8
ATOM      8  O   UNL d   1      45.187 -12.742  43.947  0.00  0.00    -0.288 OA
BRANCH   8   9
ATOM      9  C   UNL d   1      45.173 -12.563  43.139  0.00  0.00     0.102 A 
ATOM     10  C   UNL d   1      44.495 -12.258  42.799  0.00  0.00     0.023 A 
ATOM     11  C   UNL d   1      44.487 -12.081  41.990  0.00  0.00     0.002 A 
ATOM     12  C   UNL d   1      43.823 -12.120  43.227  0.00  0.00     0.002 C 
ATOM     13  C   UNL d   1      45.156 -12.210  41.526  0.00  0.00     0.000 A 
ATOM     14  C   UNL d   1      45.837 -12.519  41.874  0.00  0.00     0.002 A 
ATOM     15  C   UNL d   1      45.859 -12.703  42.694  0.00  0.00     0.025 A 
ATOM     16  C   UNL d   1      46.537 -12.658  41.406  0.00  0.00     0.000 C 
ENDBRANCH   8   9
ENDBRANCH   2   8
BRANCH   1  17
ATOM     17  N   UNL d   1      46.158 -14.007  44.444  0.00  0.00    -0.107 N 
ATOM     18  O   UNL d   1      46.602 -14.497  43.996  0.00  0.00    -0.531 OA
ATOM     19  O   UNL d   1      46.503 -13.420  44.894  0.00  0.00    -0.531 OA
ENDBRANCH   1  17
TORSDOF 3
ENDMDL
MODEL 3
REMARK VINA RESULT:      21.1      1.645      3.660
REMARK  3 active torsions:
REMARK  status: ('A' for Active; 'I' for Inactive)
REMARK    1  A    between atoms: N_3  and  C_1 
REMARK    2  A    between atoms: O_4  and  C_2 
REMARK    3  A    between atoms: C_7  and  O_4 
ROOT
ATOM      1  C   UNL d   1      45.588 -14.484  37.366  0.00  0.00     0.205 A 
ATOM      2  C   UNL d   1      44.851 -14.755  37.162  0.00  0.00     0.209 A 
ATOM      3  N   UNL d   1      44.197 -14.431  37.512  0.00  0.00    -0.198 NA
ATOM      4  C   UNL d   1      45.675 -13.882  37.925  0.00  0.00     0.211 A 
ATOM      5  N   UNL d   1      45.022 -13.557  38.274  0.00  0.00    -0.202 NA
ATOM      6  C   UNL d   1      44.288 -13.822  38.077  0.00  0.00     0.202 A 
ATOM      7  N   UNL d   1      46.423 -13.600  38.138  0.00  0.00    -0.125 N 
ENDROOT
BRANCH   2   8
ATOM      8  O   UNL d   1      44.735 -15.369  36.595  0.00  0.00    -0.288 OA
BRANCH   8   9
ATOM      9  C   UNL d   1      43.981 -15.700  36.507  0.00  0.00     0.102 A 
ATOM     10  C   UNL d   1      43.897 -16.508  36.420  0.00  0.00     0.023 A 
ATOM     11  C   UNL d   1      43.140 -16.833  36.333  0.00  0.00     0.002 A 
ATOM     12  C   UNL d   1      44.531 -17.010  36.417  0.00  0.00     0.002 C 
ATOM     13  C   UNL d   1      42.473 -16.348  36.332  0.00  0.00     0.000 A 
ATOM     14  C   UNL d   1      42.565 -15.533  36.420  0.00  0.00     0.002 A 
ATOM     15  C   UNL d   1      43.327 -15.190  36.510  0.00  0.00     0.025 A 
ATOM     16  C   UNL d   1      41.883 -15.019  36.421  0.00  0.00     0.000 C 
ENDBRANCH   8   9
ENDBRANCH   2   8
BRANCH   1  17
ATOM     17  N   UNL d   1      46.253 -14.813  37.012  0.00  0.00    -0.107 N 
ATOM     18  O   UNL d   1      46.596 -15.457  37.337  0.00  0.00    -0.531 OA
ATOM     19  O   UNL d   1      46.554 -14.475  36.333  0.00  0.00    -0.531 OA
ENDBRANCH   1  17
TORSDOF 3
ENDMDL
MODEL 4
REMARK VINA RESULT:      23.0      1.166      1.978
REMARK  3 active torsions:
REMARK  status: ('A' for Active; 'I' for Inactive)
REMARK    1  A    between atoms: N_3  and  C_1 
REMARK    2  A    between atoms: O_4  and  C_2 
REMARK    3  A    between atoms: C_7  and  O_4 
ROOT
ATOM      1  C   UNL d   1      43.579 -16.128  36.717  0.00  0.00     0.205 A 
ATOM      2  C   UNL d   1      44.089 -15.517  36.560  0.00  0.00     0.209 A 
ATOM      3  N   UNL d   1      43.790 -14.789  36.367  0.00  0.00    -0.198 NA
ATOM      4  C   UNL d   1      42.762 -16.014  36.682  0.00  0.00     0.211 A 
ATOM      5  N   UNL d   1      42.463 -15.287  36.489  0.00  0.00    -0.202 NA
ATOM      6  C   UNL d   1      42.964 -14.677  36.333  0.00  0.00     0.202 A 
ATOM      7  N   UNL d   1      42.235 -16.632  36.840  0.00  0.00    -0.125 N 
ENDROOT
BRANCH   2   8
ATOM      8  O   UNL d   1      44.927 -15.608  36.589  0.00  0.00    -0.288 OA
BRANCH   8   9
ATOM      9  C   UNL d   1      45.386 -15.011  36.933  0.00  0.00     0.102 A 
ATOM     10  C   UNL d   1      46.192 -14.985  36.798  0.00  0.00     0.023 A 
ATOM     11  C   UNL d   1      46.645 -14.385  37.145  0.00  0.00     0.002 A 
ATOM     12  C   UNL d   1      46.569 -15.528  36.333  0.00  0.00     0.002 C 
ATOM     13  C   UNL d   1      46.291 -13.815  37.624  0.00  0.00     0.000 A 
ATOM     14  C   UNL d   1      45.477 -13.847  37.757  0.00  0.00     0.002 A 
ATOM     15  C   UNL d   1      45.005 -14.450  37.410  0.00  0.00     0.025 A 
ATOM     16  C   UNL d   1      45.097 -13.264  38.250  0.00  0.00     0.000 C 
ENDBRANCH   8   9
ENDBRANCH   2   8
BRANCH   1  17
ATOM     17  N   UNL d   1      43.880 -16.868  36.912  0.00  0.00    -0.107 N 
ATOM     18  O   UNL d   1      43.634 -17.513  36.511  0.00  0.00    -0.531 OA
ATOM     19  O   UNL d   1      44.428 -16.932  37.514  0.00  0.00    -0.531 OA
ENDBRANCH   1  17
TORSDOF 3
ENDMDL
