MODEL 1
REMARK VINA RESULT:      34.6      0.000      0.000
REMARK  6 active torsions:
REMARK  status: ('A' for Active; 'I' for Inactive)
REMARK    1  A    between atoms: N_6  and  S_1 
REMARK    2  A    between atoms: C_12  and  S_1 
REMARK    3  A    between atoms: C_2  and  N_5 
REMARK    4  A    between atoms: C_4  and  C_7 
REMARK       I    between atoms: N_5  and  C_4 
REMARK    5  A    between atoms: C_10  and  N_6 
REMARK    6  A    between atoms: C_15  and  C_8 
ROOT
ATOM      1  C   UNL d   1      45.752 -18.709  44.435  0.00  0.00     0.076 A 
ATOM      2  C   UNL d   1      46.112 -19.146  43.844  0.00  0.00     0.098 A 
ATOM      3  C   UNL d   1      45.224 -19.073  44.953  0.00  0.00     0.006 A 
ATOM      4  C   UNL d   1      45.945 -19.955  43.764  0.00  0.00     0.020 A 
ATOM      5  C   UNL d   1      45.057 -19.881  44.873  0.00  0.00     0.000 A 
ATOM      6  C   UNL d   1      45.420 -20.322  44.276  0.00  0.00     0.002 A 
ENDROOT
BRANCH   1   7
ATOM      7  C   UNL d   1      45.918 -17.905  44.515  0.00  0.00     0.282 C 
ATOM      8  N   UNL d   1      45.361 -17.348  44.295  0.00  0.00    -0.183 NA
ATOM      9  O   UNL d   1      46.646 -17.664  44.816  0.00  0.00    -0.265 OA
BRANCH   8  10
ATOM     10  C   UNL d   1      45.527 -16.540  44.375  0.00  0.00     0.197 A 
ATOM     11  N   UNL d   1      45.237 -15.952  43.903  0.00  0.00    -0.221 NA
ATOM     12  C   UNL d   1      45.539 -15.235  44.172  0.00  0.00     0.090 A 
ATOM     13  C   UNL d   1      46.024 -15.399  44.824  0.00  0.00     0.058 A 
ATOM     14  S   UNL d   1      46.017 -16.216  44.952  0.00  0.00    -0.046 SA
BRANCH  12  15
ATOM     15  C   UNL d   1      45.440 -14.456  43.916  0.00  0.00     0.018 A 
ATOM     16  C   UNL d   1      44.729 -14.052  44.072  0.00  0.00     0.004 A 
ATOM     17  C   UNL d   1      44.633 -13.273  43.814  0.00  0.00     0.030 A 
ATOM     18  C   UNL d   1      45.247 -12.906  43.404  0.00  0.00     0.140 A 
ATOM     19  C   UNL d   1      45.948 -13.304  43.250  0.00  0.00     0.030 A 
ATOM     20  F   UNL d   1      45.154 -12.130  43.146  0.00  0.00    -0.204 F 
ATOM     21  C   UNL d   1      46.049 -14.077  43.503  0.00  0.00     0.004 A 
ENDBRANCH  12  15
ENDBRANCH   8  10
ENDBRANCH   1   7
BRANCH   2  22
ATOM     22  N   UNL d   1      46.640 -18.783  43.326  0.00  0.00    -0.158 NA
BRANCH  22  23
ATOM     23  S   UNL d   1      46.618 -18.962  42.497  0.00  0.00     0.285 S 
ATOM     24  O   UNL d   1      46.609 -18.155  42.336  0.00  0.00    -0.198 OA
ATOM     25  O   UNL d   1      46.628 -19.775  42.694  0.00  0.00    -0.198 OA
BRANCH  23  26
ATOM     26  C   UNL d   1      46.596 -19.135  41.704  0.00  0.00     0.105 A 
ATOM     27  C   UNL d   1      46.640 -19.922  41.462  0.00  0.00     0.013 A 
ATOM     28  C   UNL d   1      46.618 -20.104  40.634  0.00  0.00     0.001 A 
ATOM     29  C   UNL d   1      46.553 -19.504  40.089  0.00  0.00     0.000 A 
ATOM     30  C   UNL d   1      46.509 -18.706  40.343  0.00  0.00     0.001 A 
ATOM     31  C   UNL d   1      46.533 -19.696  39.292  0.00  0.00     0.000 C 
ATOM     32  C   UNL d   1      46.531 -18.527  41.151  0.00  0.00     0.013 A 
ENDBRANCH  23  26
ENDBRANCH  22  23
ENDBRANCH   2  22
TORSDOF 6
ENDMDL
