MODEL 1
REMARK VINA RESULT:      -3.4      0.000      0.000
REMARK  2 active torsions:
REMARK  status: ('A' for Active; 'I' for Inactive)
REMARK    1  A    between atoms: C_7  and  C_1 
REMARK    2  A    between atoms: C_5  and  C_3 
ROOT
ATOM      1  C   UNL d   1      32.516  22.682 -21.207  0.00  0.00     0.067 A 
ATOM      2  N   UNL d   1      33.141  21.450 -20.303  0.00  0.00    -0.244 NA
ATOM      3  C   UNL d   1      32.936  21.315 -21.089  0.00  0.00     0.104 A 
ATOM      4  C   UNL d   1      32.624  21.928 -21.542  0.00  0.00     0.027 A 
ATOM      5  C   UNL d   1      32.721  22.817 -20.420  0.00  0.00     0.024 A 
ATOM      6  C   UNL d   1      33.033  22.205 -19.967  0.00  0.00     0.082 A 
ATOM      7  C   UNL d   1      32.614  23.564 -20.088  0.00  0.00     0.002 A 
ATOM      8  C   UNL d   1      33.241  22.337 -19.174  0.00  0.00     0.019 A 
ATOM      9  C   UNL d   1      32.818  23.700 -19.302  0.00  0.00     0.000 A 
ATOM     10  C   UNL d   1      33.134  23.084 -18.842  0.00  0.00     0.002 A 
ENDROOT
BRANCH   3  11
ATOM     11  C   UNL d   1      33.044  20.564 -21.423  0.00  0.00     0.118 A 
ATOM     12  O   UNL d   1      33.167  19.844 -21.038  0.00  0.00    -0.304 OA
ATOM     13  C   UNL d   1      33.241  19.262 -21.620  0.00  0.00     0.123 A 
ATOM     14  C   UNL d   1      33.165  19.617 -22.348  0.00  0.00     0.029 A 
ATOM     15  C   UNL d   1      33.042  20.424 -22.225  0.00  0.00     0.028 A 
ENDBRANCH   3  11
BRANCH   1  16
ATOM     16  C   UNL d   1      32.199  23.303 -21.669  0.00  0.00     0.211 C 
ATOM     17  O   UNL d   1      31.415  23.534 -21.554  0.00  0.00    -0.644 OA
ATOM     18  O   UNL d   1      32.668  23.680 -22.235  0.00  0.00    -0.644 OA
ENDBRANCH   1  16
TORSDOF 2
ENDMDL
MODEL 2
REMARK VINA RESULT:      -3.4      1.515      3.393
REMARK  2 active torsions:
REMARK  status: ('A' for Active; 'I' for Inactive)
REMARK    1  A    between atoms: C_7  and  C_1 
REMARK    2  A    between atoms: C_5  and  C_3 
ROOT
ATOM      1  C   UNL d   1      32.441  21.890 -20.633  0.00  0.00     0.067 A 
ATOM      2  N   UNL d   1      32.952  23.401 -20.208  0.00  0.00    -0.244 NA
ATOM      3  C   UNL d   1      32.697  22.879 -19.625  0.00  0.00     0.104 A 
ATOM      4  C   UNL d   1      32.442  22.124 -19.834  0.00  0.00     0.027 A 
ATOM      5  C   UNL d   1      32.696  22.413 -21.216  0.00  0.00     0.024 A 
ATOM      6  C   UNL d   1      32.951  23.166 -21.007  0.00  0.00     0.082 A 
ATOM      7  C   UNL d   1      32.696  22.181 -22.007  0.00  0.00     0.002 A 
ATOM      8  C   UNL d   1      33.209  23.697 -21.592  0.00  0.00     0.019 A 
ATOM      9  C   UNL d   1      32.951  22.702 -22.591  0.00  0.00     0.000 A 
ATOM     10  C   UNL d   1      33.209  23.465 -22.384  0.00  0.00     0.002 A 
ENDROOT
BRANCH   3  11
ATOM     11  C   UNL d   1      32.697  23.112 -18.829  0.00  0.00     0.118 A 
ATOM     12  O   UNL d   1      33.241  22.921 -18.239  0.00  0.00    -0.304 OA
ATOM     13  C   UNL d   1      32.992  23.291 -17.544  0.00  0.00     0.123 A 
ATOM     14  C   UNL d   1      32.308  23.702 -17.704  0.00  0.00     0.029 A 
ATOM     15  C   UNL d   1      32.126  23.591 -18.500  0.00  0.00     0.028 A 
ENDBRANCH   3  11
BRANCH   1  16
ATOM     16  C   UNL d   1      32.182  21.123 -20.843  0.00  0.00     0.211 C 
ATOM     17  O   UNL d   1      32.682  20.478 -20.719  0.00  0.00    -0.644 OA
ATOM     18  O   UNL d   1      31.431  21.014 -21.170  0.00  0.00    -0.644 OA
ENDBRANCH   1  16
TORSDOF 2
ENDMDL
MODEL 3
REMARK VINA RESULT:      -3.2      1.465      2.643
REMARK  2 active torsions:
REMARK  status: ('A' for Active; 'I' for Inactive)
REMARK    1  A    between atoms: C_7  and  C_1 
REMARK    2  A    between atoms: C_5  and  C_3 
ROOT
ATOM      1  C   UNL d   1      32.523  21.869 -21.302  0.00  0.00     0.067 A 
ATOM      2  N   UNL d   1      32.990  23.396 -21.721  0.00  0.00    -0.244 NA
ATOM      3  C   UNL d   1      32.764  22.865 -22.308  0.00  0.00     0.104 A 
ATOM      4  C   UNL d   1      32.530  22.103 -22.102  0.00  0.00     0.027 A 
ATOM      5  C   UNL d   1      32.750  22.401 -20.716  0.00  0.00     0.024 A 
ATOM      6  C   UNL d   1      32.983  23.163 -20.921  0.00  0.00     0.082 A 
ATOM      7  C   UNL d   1      32.743  22.171 -19.924  0.00  0.00     0.002 A 
ATOM      8  C   UNL d   1      33.212  23.702 -20.333  0.00  0.00     0.019 A 
ATOM      9  C   UNL d   1      32.969  22.701 -19.337  0.00  0.00     0.000 A 
ATOM     10  C   UNL d   1      33.205  23.472 -19.541  0.00  0.00     0.002 A 
ENDROOT
BRANCH   3  11
ATOM     11  C   UNL d   1      32.771  23.098 -23.104  0.00  0.00     0.118 A 
ATOM     12  O   UNL d   1      32.333  23.694 -23.468  0.00  0.00    -0.304 OA
ATOM     13  C   UNL d   1      32.542  23.702 -24.267  0.00  0.00     0.123 A 
ATOM     14  C   UNL d   1      33.099  23.122 -24.392  0.00  0.00     0.029 A 
ATOM     15  C   UNL d   1      33.240  22.748 -23.670  0.00  0.00     0.028 A 
ENDBRANCH   3  11
BRANCH   1  16
ATOM     16  C   UNL d   1      32.286  21.094 -21.096  0.00  0.00     0.211 C 
ATOM     17  O   UNL d   1      31.481  20.918 -21.047  0.00  0.00    -0.644 OA
ATOM     18  O   UNL d   1      32.854  20.513 -20.943  0.00  0.00    -0.644 OA
ENDBRANCH   1  16
TORSDOF 2
ENDMDL
MODEL 4
REMARK VINA RESULT:      -3.2      1.563      2.367
REMARK  2 active torsions:
REMARK  status: ('A' for Active; 'I' for Inactive)
REMARK    1  A    between atoms: C_7  and  C_1 
REMARK    2  A    between atoms: C_5  and  C_3 
ROOT
ATOM      1  C   UNL d   1      32.741  21.595 -21.379  0.00  0.00     0.067 A 
ATOM      2  N   UNL d   1      33.144  21.175 -22.923  0.00  0.00    -0.244 NA
ATOM      3  C   UNL d   1      32.996  20.586 -22.368  0.00  0.00     0.104 A 
ATOM      4  C   UNL d   1      32.795  20.792 -21.596  0.00  0.00     0.027 A 
ATOM      5  C   UNL d   1      32.889  22.183 -21.935  0.00  0.00     0.024 A 
ATOM      6  C   UNL d   1      33.090  21.977 -22.706  0.00  0.00     0.082 A 
ATOM      7  C   UNL d   1      32.836  22.978 -21.720  0.00  0.00     0.002 A 
ATOM      8  C   UNL d   1      33.240  22.568 -23.270  0.00  0.00     0.019 A 
ATOM      9  C   UNL d   1      32.983  23.567 -22.276  0.00  0.00     0.000 A 
ATOM     10  C   UNL d   1      33.186  23.363 -23.055  0.00  0.00     0.002 A 
ENDROOT
BRANCH   3  11
ATOM     11  C   UNL d   1      33.050  19.787 -22.584  0.00  0.00     0.118 A 
ATOM     12  O   UNL d   1      32.929  19.448 -23.326  0.00  0.00    -0.304 OA
ATOM     13  C   UNL d   1      33.049  18.634 -23.248  0.00  0.00     0.123 A 
ATOM     14  C   UNL d   1      33.241  18.477 -22.473  0.00  0.00     0.029 A 
ATOM     15  C   UNL d   1      33.241  19.192 -22.062  0.00  0.00     0.028 A 
ENDBRANCH   3  11
BRANCH   1  16
ATOM     16  C   UNL d   1      32.536  21.802 -20.594  0.00  0.00     0.211 C 
ATOM     17  O   UNL d   1      33.134  21.920 -20.038  0.00  0.00    -0.644 OA
ATOM     18  O   UNL d   1      31.742  21.886 -20.382  0.00  0.00    -0.644 OA
ENDBRANCH   1  16
TORSDOF 2
ENDMDL
MODEL 5
REMARK VINA RESULT:      -3.2      5.360      6.780
REMARK  2 active torsions:
REMARK  status: ('A' for Active; 'I' for Inactive)
REMARK    1  A    between atoms: C_7  and  C_1 
REMARK    2  A    between atoms: C_5  and  C_3 
ROOT
ATOM      1  C   UNL d   1      32.153  16.285 -23.812  0.00  0.00     0.067 A 
ATOM      2  N   UNL d   1      30.946  17.355 -24.162  0.00  0.00    -0.244 NA
ATOM      3  C   UNL d   1      30.782  16.548 -24.149  0.00  0.00     0.104 A 
ATOM      4  C   UNL d   1      31.383  16.012 -23.975  0.00  0.00     0.027 A 
ATOM      5  C   UNL d   1      32.315  17.092 -23.825  0.00  0.00     0.024 A 
ATOM      6  C   UNL d   1      31.716  17.628 -24.000  0.00  0.00     0.082 A 
ATOM      7  C   UNL d   1      33.078  17.363 -23.664  0.00  0.00     0.002 A 
ATOM      8  C   UNL d   1      31.876  18.443 -24.014  0.00  0.00     0.019 A 
ATOM      9  C   UNL d   1      33.241  18.169 -23.677  0.00  0.00     0.000 A 
ATOM     10  C   UNL d   1      32.638  18.713 -23.853  0.00  0.00     0.002 A 
ENDROOT
BRANCH   3  11
ATOM     11  C   UNL d   1      30.016  16.277 -24.311  0.00  0.00     0.118 A 
ATOM     12  O   UNL d   1      29.682  16.089 -25.042  0.00  0.00    -0.304 OA
ATOM     13  C   UNL d   1      28.905  15.845 -24.904  0.00  0.00     0.123 A 
ATOM     14  C   UNL d   1      28.764  15.882 -24.103  0.00  0.00     0.029 A 
ATOM     15  C   UNL d   1      29.453  16.149 -23.737  0.00  0.00     0.028 A 
ENDBRANCH   3  11
BRANCH   1  16
ATOM     16  C   UNL d   1      32.760  15.738 -23.635  0.00  0.00     0.211 C 
ATOM     17  O   UNL d   1      33.238  15.453 -24.244  0.00  0.00    -0.644 OA
ATOM     18  O   UNL d   1      32.879  15.488 -22.856  0.00  0.00    -0.644 OA
ENDBRANCH   1  16
TORSDOF 2
ENDMDL
MODEL 6
REMARK VINA RESULT:      -2.1      1.789      4.409
REMARK  2 active torsions:
REMARK  status: ('A' for Active; 'I' for Inactive)
REMARK    1  A    between atoms: C_7  and  C_1 
REMARK    2  A    between atoms: C_5  and  C_3 
ROOT
ATOM      1  C   UNL d   1      32.848  19.131 -22.884  0.00  0.00     0.067 A 
ATOM      2  N   UNL d   1      33.184  20.745 -22.957  0.00  0.00    -0.244 NA
ATOM      3  C   UNL d   1      33.072  20.387 -22.225  0.00  0.00     0.104 A 
ATOM      4  C   UNL d   1      32.904  19.581 -22.185  0.00  0.00     0.027 A 
ATOM      5  C   UNL d   1      32.960  19.491 -23.616  0.00  0.00     0.024 A 
ATOM      6  C   UNL d   1      33.127  20.296 -23.656  0.00  0.00     0.082 A 
ATOM      7  C   UNL d   1      32.904  19.046 -24.308  0.00  0.00     0.002 A 
ATOM      8  C   UNL d   1      33.241  20.662 -24.393  0.00  0.00     0.019 A 
ATOM      9  C   UNL d   1      33.016  19.404 -25.040  0.00  0.00     0.000 A 
ATOM     10  C   UNL d   1      33.185  20.217 -25.085  0.00  0.00     0.002 A 
ENDROOT
BRANCH   3  11
ATOM     11  C   UNL d   1      33.128  20.834 -21.530  0.00  0.00     0.118 A 
ATOM     12  O   UNL d   1      33.143  20.569 -20.749  0.00  0.00    -0.304 OA
ATOM     13  C   UNL d   1      33.205  21.234 -20.263  0.00  0.00     0.123 A 
ATOM     14  C   UNL d   1      33.227  21.896 -20.736  0.00  0.00     0.029 A 
ATOM     15  C   UNL d   1      33.179  21.647 -21.521  0.00  0.00     0.028 A 
ENDBRANCH   3  11
BRANCH   1  16
ATOM     16  C   UNL d   1      32.677  18.313 -22.841  0.00  0.00     0.211 C 
ATOM     17  O   UNL d   1      33.241  17.799 -22.527  0.00  0.00    -0.644 OA
ATOM     18  O   UNL d   1      31.951  18.026 -23.111  0.00  0.00    -0.644 OA
ENDBRANCH   1  16
TORSDOF 2
ENDMDL
MODEL 7
REMARK VINA RESULT:      -2.0      3.446      4.724
REMARK  2 active torsions:
REMARK  status: ('A' for Active; 'I' for Inactive)
REMARK    1  A    between atoms: C_7  and  C_1 
REMARK    2  A    between atoms: C_5  and  C_3 
ROOT
ATOM      1  C   UNL d   1      32.670  18.912 -24.181  0.00  0.00     0.067 A 
ATOM      2  N   UNL d   1      32.849  17.783 -22.990  0.00  0.00    -0.244 NA
ATOM      3  C   UNL d   1      32.660  17.541 -23.754  0.00  0.00     0.104 A 
ATOM      4  C   UNL d   1      32.570  18.103 -24.350  0.00  0.00     0.027 A 
ATOM      5  C   UNL d   1      32.860  19.152 -23.416  0.00  0.00     0.024 A 
ATOM      6  C   UNL d   1      32.950  18.592 -22.820  0.00  0.00     0.082 A 
ATOM      7  C   UNL d   1      32.960  19.954 -23.248  0.00  0.00     0.002 A 
ATOM      8  C   UNL d   1      33.141  18.830 -22.048  0.00  0.00     0.019 A 
ATOM      9  C   UNL d   1      33.149  20.195 -22.484  0.00  0.00     0.000 A 
ATOM     10  C   UNL d   1      33.241  19.632 -21.880  0.00  0.00     0.002 A 
ENDROOT
BRANCH   3  11
ATOM     11  C   UNL d   1      32.560  16.736 -23.923  0.00  0.00     0.118 A 
ATOM     12  O   UNL d   1      33.111  16.203 -24.227  0.00  0.00    -0.304 OA
ATOM     13  C   UNL d   1      32.737  15.470 -24.293  0.00  0.00     0.123 A 
ATOM     14  C   UNL d   1      31.970  15.550 -24.034  0.00  0.00     0.029 A 
ATOM     15  C   UNL d   1      31.861  16.335 -23.805  0.00  0.00     0.028 A 
ENDBRANCH   3  11
BRANCH   1  16
ATOM     16  C   UNL d   1      32.579  19.480 -24.788  0.00  0.00     0.211 C 
ATOM     17  O   UNL d   1      31.823  19.649 -25.073  0.00  0.00    -0.644 OA
ATOM     18  O   UNL d   1      33.240  19.867 -25.097  0.00  0.00    -0.644 OA
ENDBRANCH   1  16
TORSDOF 2
ENDMDL
MODEL 8
REMARK VINA RESULT:      -1.9      2.188      4.629
REMARK  2 active torsions:
REMARK  status: ('A' for Active; 'I' for Inactive)
REMARK    1  A    between atoms: C_7  and  C_1 
REMARK    2  A    between atoms: C_5  and  C_3 
ROOT
ATOM      1  C   UNL d   1      32.866  19.270 -23.824  0.00  0.00     0.067 A 
ATOM      2  N   UNL d   1      33.183  18.996 -22.228  0.00  0.00    -0.244 NA
ATOM      3  C   UNL d   1      33.076  19.767 -22.494  0.00  0.00     0.104 A 
ATOM      4  C   UNL d   1      32.918  19.908 -23.290  0.00  0.00     0.027 A 
ATOM      5  C   UNL d   1      32.973  18.499 -23.557  0.00  0.00     0.024 A 
ATOM      6  C   UNL d   1      33.131  18.358 -22.762  0.00  0.00     0.082 A 
ATOM      7  C   UNL d   1      32.921  17.868 -24.085  0.00  0.00     0.002 A 
ATOM      8  C   UNL d   1      33.240  17.582 -22.488  0.00  0.00     0.019 A 
ATOM      9  C   UNL d   1      33.028  17.096 -23.819  0.00  0.00     0.000 A 
ATOM     10  C   UNL d   1      33.188  16.951 -23.017  0.00  0.00     0.002 A 
ENDROOT
BRANCH   3  11
ATOM     11  C   UNL d   1      33.128  20.401 -21.962  0.00  0.00     0.118 A 
ATOM     12  O   UNL d   1      33.131  21.210 -22.127  0.00  0.00    -0.304 OA
ATOM     13  C   UNL d   1      33.192  21.609 -21.407  0.00  0.00     0.123 A 
ATOM     14  C   UNL d   1      33.226  21.057 -20.810  0.00  0.00     0.029 A 
ATOM     15  C   UNL d   1      33.186  20.309 -21.155  0.00  0.00     0.028 A 
ENDBRANCH   3  11
BRANCH   1  16
ATOM     16  C   UNL d   1      32.705  19.415 -24.632  0.00  0.00     0.211 C 
ATOM     17  O   UNL d   1      32.009  19.122 -24.964  0.00  0.00    -0.644 OA
ATOM     18  O   UNL d   1      33.239  19.848 -25.090  0.00  0.00    -0.644 OA
ENDBRANCH   1  16
TORSDOF 2
ENDMDL
MODEL 9
REMARK VINA RESULT:      -1.2      1.103      3.099
REMARK  2 active torsions:
REMARK  status: ('A' for Active; 'I' for Inactive)
REMARK    1  A    between atoms: C_7  and  C_1 
REMARK    2  A    between atoms: C_5  and  C_3 
ROOT
ATOM      1  C   UNL d   1      32.747  21.885 -21.985  0.00  0.00     0.067 A 
ATOM      2  N   UNL d   1      33.017  21.327 -20.455  0.00  0.00    -0.244 NA
ATOM      3  C   UNL d   1      32.854  22.125 -20.574  0.00  0.00     0.104 A 
ATOM      4  C   UNL d   1      32.718  22.406 -21.336  0.00  0.00     0.027 A 
ATOM      5  C   UNL d   1      32.910  21.086 -21.865  0.00  0.00     0.024 A 
ATOM      6  C   UNL d   1      33.046  20.805 -21.104  0.00  0.00     0.082 A 
ATOM      7  C   UNL d   1      32.938  20.570 -22.507  0.00  0.00     0.002 A 
ATOM      8  C   UNL d   1      33.211  20.001 -20.979  0.00  0.00     0.019 A 
ATOM      9  C   UNL d   1      33.102  19.772 -22.389  0.00  0.00     0.000 A 
ATOM     10  C   UNL d   1      33.239  19.484 -21.621  0.00  0.00     0.002 A 
ENDROOT
BRANCH   3  11
ATOM     11  C   UNL d   1      32.826  22.645 -19.928  0.00  0.00     0.118 A 
ATOM     12  O   UNL d   1      33.237  22.599 -19.215  0.00  0.00    -0.304 OA
ATOM     13  C   UNL d   1      33.014  23.250 -18.758  0.00  0.00     0.123 A 
ATOM     14  C   UNL d   1      32.476  23.689 -19.183  0.00  0.00     0.029 A 
ATOM     15  C   UNL d   1      32.360  23.313 -19.908  0.00  0.00     0.028 A 
ENDBRANCH   3  11
BRANCH   1  16
ATOM     16  C   UNL d   1      32.609  22.172 -22.758  0.00  0.00     0.211 C 
ATOM     17  O   UNL d   1      31.837  22.194 -23.050  0.00  0.00    -0.644 OA
ATOM     18  O   UNL d   1      33.241  22.431 -23.223  0.00  0.00    -0.644 OA
ENDBRANCH   1  16
TORSDOF 2
ENDMDL
