MODEL 1
REMARK VINA RESULT:      94.5      0.000      0.000
REMARK  5 active torsions:
REMARK  status: ('A' for Active; 'I' for Inactive)
REMARK    1  A    between atoms: C_10  and  C_3 
REMARK    2  A    between atoms: N_12  and  C_4 
REMARK    3  A    between atoms: N_11  and  C_21 
REMARK    4  A    between atoms: C_20  and  N_12 
REMARK    5  A    between atoms: C_21  and  C_20 
ROOT
ATOM      1  C   UNL d   1      61.541  46.201  50.041  0.00  0.00     0.168 A 
ATOM      2  N   UNL d   1      61.536  47.050  50.108  0.00  0.00    -0.184 N 
ATOM      3  C   UNL d   1      61.969  45.841  49.454  0.00  0.00     0.057 A 
ATOM      4  C   UNL d   1      61.104  47.390  50.699  0.00  0.00     0.218 A 
ATOM      5  N   UNL d   1      62.400  47.130  48.980  0.00  0.00    -0.160 NA
ATOM      6  N   UNL d   1      61.113  45.749  50.570  0.00  0.00    -0.227 NA
ATOM      7  C   UNL d   1      60.669  46.944  51.238  0.00  0.00     0.071 A 
ATOM      8  C   UNL d   1      62.405  46.307  48.916  0.00  0.00     0.124 A 
ATOM      9  C   UNL d   1      60.674  46.108  51.172  0.00  0.00     0.087 A 
ATOM     10  C   UNL d   1      60.223  45.633  51.729  0.00  0.00     0.021 C 
ENDROOT
BRANCH   4  11
ATOM     11  N   UNL d   1      61.097  48.247  50.769  0.00  0.00    -0.379 NA
BRANCH  11  12
ATOM     12  C   UNL d   1      61.114  49.055  51.053  0.00  0.00     0.182 C 
BRANCH  12  13
ATOM     13  C   UNL d   1      60.684  49.641  50.636  0.00  0.00     0.116 C 
BRANCH  13  14
ATOM     14  N   UNL d   1      59.823  49.663  50.701  0.00  0.00    -0.297 N 
ATOM     15  C   UNL d   1      59.349  49.677  50.002  0.00  0.00     0.107 A 
ATOM     16  C   UNL d   1      58.481  49.699  50.064  0.00  0.00     0.142 A 
ATOM     17  O   UNL d   1      58.109  49.708  50.813  0.00  0.00    -0.300 OA
ATOM     18  C   UNL d   1      58.584  49.694  51.539  0.00  0.00     0.142 A 
ATOM     19  C   UNL d   1      59.448  49.672  51.482  0.00  0.00     0.107 A 
ENDBRANCH  13  14
ENDBRANCH  12  13
ENDBRANCH  11  12
ENDBRANCH   4  11
BRANCH   3  20
ATOM     20  C   UNL d   1      61.974  45.019  49.389  0.00  0.00     0.005 A 
ATOM     21  C   UNL d   1      61.445  44.649  48.892  0.00  0.00     0.001 A 
ATOM     22  C   UNL d   1      61.449  43.839  48.828  0.00  0.00     0.011 A 
ATOM     23  C   UNL d   1      61.982  43.388  49.262  0.00  0.00     0.058 A 
ATOM     24  C   UNL d   1      62.510  43.759  49.759  0.00  0.00     0.011 A 
ATOM     25 CL   UNL d   1      61.987  42.526  49.194  0.00  0.00    -0.082 Cl
ATOM     26  C   UNL d   1      62.506  44.581  49.824  0.00  0.00     0.001 A 
ENDBRANCH   3  20
TORSDOF 5
ENDMDL
