MODEL 1
REMARK VINA RESULT:      -5.3      0.000      0.000
REMARK  8 active torsions:
REMARK  status: ('A' for Active; 'I' for Inactive)
REMARK    1  A    between atoms: C_7  and  C_1 
REMARK    2  A    between atoms: C_8  and  C_2 
REMARK    3  A    between atoms: S_11  and  C_3 
REMARK    4  A    between atoms: C_10  and  C_4 
REMARK    5  A    between atoms: O_17  and  C_7 
REMARK    6  A    between atoms: C_24  and  S_11 
REMARK    7  A    between atoms: C_15  and  C_23 
REMARK    8  A    between atoms: C_23  and  O_17 
ROOT
ATOM      1  C   UNL d   1     -47.943  13.951  22.770  0.00  0.00     0.081 A 
ATOM      2  C   UNL d   1     -47.150  12.777  22.646  0.00  0.00     0.045 A 
ATOM      3  C   UNL d   1     -46.477  13.242  22.551  0.00  0.00     0.112 A 
ATOM      4  C   UNL d   1     -47.888  13.128  22.757  0.00  0.00     0.010 A 
ATOM      5  C   UNL d   1     -47.271  14.416  22.674  0.00  0.00     0.087 A 
ATOM      6  N   UNL d   1     -46.537  14.062  22.565  0.00  0.00    -0.239 NA
ATOM      7  C   UNL d   1     -47.322  15.258  22.687  0.00  0.00     0.021 C 
ENDROOT
BRANCH   4   8
ATOM      8  C   UNL d   1     -48.549  12.671  22.851  0.00  0.00     0.000 A 
ATOM      9  C   UNL d   1     -48.930  12.347  22.195  0.00  0.00     0.001 A 
ATOM     10  C   UNL d   1     -49.591  11.890  22.289  0.00  0.00     0.011 A 
ATOM     11  C   UNL d   1     -49.893  11.742  23.042  0.00  0.00     0.058 A 
ATOM     12  C   UNL d   1     -49.512  12.067  23.698  0.00  0.00     0.011 A 
ATOM     13 CL   UNL d   1     -50.565  11.277  23.138  0.00  0.00    -0.082 Cl
ATOM     14  C   UNL d   1     -48.851  12.524  23.604  0.00  0.00     0.001 A 
ENDBRANCH   4   8
BRANCH   2  15
ATOM     15  C   UNL d   1     -47.087  11.943  22.632  0.00  0.00     0.124 C 
ATOM     16  N   UNL d   1     -46.629  11.555  23.217  0.00  0.00    -0.146 N 
ENDBRANCH   2  15
BRANCH   1  17
ATOM     17  C   UNL d   1     -48.689  14.313  22.882  0.00  0.00     0.302 C 
ATOM     18  O   UNL d   1     -48.975  14.441  23.643  0.00  0.00    -0.259 OA
BRANCH  17  19
ATOM     19  O   UNL d   1     -49.135  14.541  22.215  0.00  0.00    -0.271 OA
BRANCH  19  20
ATOM     20  C   UNL d   1     -49.709  15.135  22.271  0.00  0.00     0.126 C 
BRANCH  20  21
ATOM     21  C   UNL d   1     -50.327  15.164  21.730  0.00  0.00     0.027 C 
ATOM     22  C   UNL d   1     -51.064  15.418  21.965  0.00  0.00     0.002 C 
ENDBRANCH  20  21
ENDBRANCH  19  20
ENDBRANCH  17  19
ENDBRANCH   1  17
BRANCH   3  23
ATOM     23  S   UNL d   1     -45.720  12.888  22.437  0.00  0.00    -0.067 SA
BRANCH  23  24
ATOM     24  C   UNL d   1     -45.098  13.324  22.121  0.00  0.00     0.037 C 
ATOM     25  C   UNL d   1     -44.424  12.943  21.830  0.00  0.00     0.007 C 
ENDBRANCH  23  24
ENDBRANCH   3  23
TORSDOF 8
ENDMDL
MODEL 2
REMARK VINA RESULT:      -5.2      1.680      2.673
REMARK  8 active torsions:
REMARK  status: ('A' for Active; 'I' for Inactive)
REMARK    1  A    between atoms: C_7  and  C_1 
REMARK    2  A    between atoms: C_8  and  C_2 
REMARK    3  A    between atoms: S_11  and  C_3 
REMARK    4  A    between atoms: C_10  and  C_4 
REMARK    5  A    between atoms: O_17  and  C_7 
REMARK    6  A    between atoms: C_24  and  S_11 
REMARK    7  A    between atoms: C_15  and  C_23 
REMARK    8  A    between atoms: C_23  and  O_17 
ROOT
ATOM      1  C   UNL d   1     -48.323  12.361  23.218  0.00  0.00     0.081 A 
ATOM      2  C   UNL d   1     -46.921  12.584  23.136  0.00  0.00     0.045 A 
ATOM      3  C   UNL d   1     -46.784  11.824  23.422  0.00  0.00     0.112 A 
ATOM      4  C   UNL d   1     -47.692  12.858  23.032  0.00  0.00     0.010 A 
ATOM      5  C   UNL d   1     -48.186  11.601  23.503  0.00  0.00     0.087 A 
ATOM      6  N   UNL d   1     -47.416  11.332  23.606  0.00  0.00    -0.239 NA
ATOM      7  C   UNL d   1     -48.828  11.089  23.695  0.00  0.00     0.021 C 
ENDROOT
BRANCH   4   8
ATOM      8  C   UNL d   1     -47.827  13.605  22.751  0.00  0.00     0.000 A 
ATOM      9  C   UNL d   1     -47.786  13.761  21.943  0.00  0.00     0.001 A 
ATOM     10  C   UNL d   1     -47.921  14.508  21.662  0.00  0.00     0.011 A 
ATOM     11  C   UNL d   1     -48.102  15.123  22.181  0.00  0.00     0.058 A 
ATOM     12  C   UNL d   1     -48.143  14.967  22.990  0.00  0.00     0.011 A 
ATOM     13 CL   UNL d   1     -48.240  15.882  21.895  0.00  0.00    -0.082 Cl
ATOM     14  C   UNL d   1     -48.008  14.220  23.270  0.00  0.00     0.001 A 
ENDBRANCH   4   8
BRANCH   2  15
ATOM     15  C   UNL d   1     -46.276  13.084  22.950  0.00  0.00     0.124 C 
ATOM     16  N   UNL d   1     -45.730  13.292  23.550  0.00  0.00    -0.146 N 
ENDBRANCH   2  15
BRANCH   1  17
ATOM     17  C   UNL d   1     -49.108  12.633  23.115  0.00  0.00     0.302 C 
ATOM     18  O   UNL d   1     -49.462  13.097  23.694  0.00  0.00    -0.259 OA
BRANCH  17  19
ATOM     19  O   UNL d   1     -49.522  12.427  22.421  0.00  0.00    -0.271 OA
BRANCH  19  20
ATOM     20  C   UNL d   1     -50.337  12.560  22.358  0.00  0.00     0.126 C 
BRANCH  20  21
ATOM     21  C   UNL d   1     -50.732  12.377  21.661  0.00  0.00     0.027 C 
ATOM     22  C   UNL d   1     -51.064  12.969  21.211  0.00  0.00     0.002 C 
ENDBRANCH  20  21
ENDBRANCH  19  20
ENDBRANCH  17  19
ENDBRANCH   1  17
BRANCH   3  23
ATOM     23  S   UNL d   1     -45.997  11.540  23.530  0.00  0.00    -0.067 SA
BRANCH  23  24
ATOM     24  C   UNL d   1     -45.856  10.739  23.654  0.00  0.00     0.037 C 
ATOM     25  C   UNL d   1     -45.082  10.449  23.688  0.00  0.00     0.007 C 
ENDBRANCH  23  24
ENDBRANCH   3  23
TORSDOF 8
ENDMDL
MODEL 3
REMARK VINA RESULT:      -5.2      1.861      3.459
REMARK  8 active torsions:
REMARK  status: ('A' for Active; 'I' for Inactive)
REMARK    1  A    between atoms: C_7  and  C_1 
REMARK    2  A    between atoms: C_8  and  C_2 
REMARK    3  A    between atoms: S_11  and  C_3 
REMARK    4  A    between atoms: C_10  and  C_4 
REMARK    5  A    between atoms: O_17  and  C_7 
REMARK    6  A    between atoms: C_24  and  S_11 
REMARK    7  A    between atoms: C_15  and  C_23 
REMARK    8  A    between atoms: C_23  and  O_17 
ROOT
ATOM      1  C   UNL d   1     -47.313  13.942  22.893  0.00  0.00     0.081 A 
ATOM      2  C   UNL d   1     -48.731  13.843  22.868  0.00  0.00     0.045 A 
ATOM      3  C   UNL d   1     -48.788  14.663  22.828  0.00  0.00     0.112 A 
ATOM      4  C   UNL d   1     -47.993  13.476  22.901  0.00  0.00     0.010 A 
ATOM      5  C   UNL d   1     -47.369  14.762  22.853  0.00  0.00     0.087 A 
ATOM      6  N   UNL d   1     -48.107  15.124  22.820  0.00  0.00    -0.239 NA
ATOM      7  C   UNL d   1     -46.676  15.243  22.844  0.00  0.00     0.021 C 
ENDROOT
BRANCH   4   8
ATOM      8  C   UNL d   1     -47.938  12.670  22.940  0.00  0.00     0.000 A 
ATOM      9  C   UNL d   1     -47.778  12.297  23.658  0.00  0.00     0.001 A 
ATOM     10  C   UNL d   1     -47.723  11.491  23.698  0.00  0.00     0.011 A 
ATOM     11  C   UNL d   1     -47.825  11.031  23.021  0.00  0.00     0.058 A 
ATOM     12  C   UNL d   1     -47.984  11.404  22.303  0.00  0.00     0.011 A 
ATOM     13 CL   UNL d   1     -47.768  10.211  23.061  0.00  0.00    -0.082 Cl
ATOM     14  C   UNL d   1     -48.040  12.210  22.263  0.00  0.00     0.001 A 
ENDBRANCH   4   8
BRANCH   2  15
ATOM     15  C   UNL d   1     -49.426  13.376  22.876  0.00  0.00     0.124 C 
ATOM     16  N   UNL d   1     -49.994  13.474  22.269  0.00  0.00    -0.146 N 
ENDBRANCH   2  15
BRANCH   1  17
ATOM     17  C   UNL d   1     -46.561  13.576  22.926  0.00  0.00     0.302 C 
ATOM     18  O   UNL d   1     -46.255  13.330  23.649  0.00  0.00    -0.259 OA
BRANCH  17  19
ATOM     19  O   UNL d   1     -46.131  13.466  22.220  0.00  0.00    -0.271 OA
BRANCH  19  20
ATOM     20  C   UNL d   1     -45.304  13.418  22.230  0.00  0.00     0.126 C 
BRANCH  20  21
ATOM     21  C   UNL d   1     -44.911  12.945  21.685  0.00  0.00     0.027 C 
ATOM     22  C   UNL d   1     -44.141  13.111  21.480  0.00  0.00     0.002 C 
ENDBRANCH  20  21
ENDBRANCH  19  20
ENDBRANCH  17  19
ENDBRANCH   1  17
BRANCH   3  23
ATOM     23  S   UNL d   1     -49.541  15.043  22.795  0.00  0.00    -0.067 SA
BRANCH  23  24
ATOM     24  C   UNL d   1     -49.681  15.729  23.225  0.00  0.00     0.037 C 
ATOM     25  C   UNL d   1     -50.447  15.922  23.471  0.00  0.00     0.007 C 
ENDBRANCH  23  24
ENDBRANCH   3  23
TORSDOF 8
ENDMDL
MODEL 4
REMARK VINA RESULT:      -4.7      1.358      2.661
REMARK  8 active torsions:
REMARK  status: ('A' for Active; 'I' for Inactive)
REMARK    1  A    between atoms: C_7  and  C_1 
REMARK    2  A    between atoms: C_8  and  C_2 
REMARK    3  A    between atoms: S_11  and  C_3 
REMARK    4  A    between atoms: C_10  and  C_4 
REMARK    5  A    between atoms: O_17  and  C_7 
REMARK    6  A    between atoms: C_24  and  S_11 
REMARK    7  A    between atoms: C_15  and  C_23 
REMARK    8  A    between atoms: C_23  and  O_17 
ROOT
ATOM      1  C   UNL d   1     -48.193  12.951  22.278  0.00  0.00     0.081 A 
ATOM      2  C   UNL d   1     -47.172  13.906  22.538  0.00  0.00     0.045 A 
ATOM      3  C   UNL d   1     -46.600  13.352  22.331  0.00  0.00     0.112 A 
ATOM      4  C   UNL d   1     -47.973  13.710  22.513  0.00  0.00     0.010 A 
ATOM      5  C   UNL d   1     -47.621  12.396  22.071  0.00  0.00     0.087 A 
ATOM      6  N   UNL d   1     -46.824  12.596  22.097  0.00  0.00    -0.239 NA
ATOM      7  C   UNL d   1     -47.841  11.618  21.830  0.00  0.00     0.021 C 
ENDROOT
BRANCH   4   8
ATOM      8  C   UNL d   1     -48.535  14.255  22.716  0.00  0.00     0.000 A 
ATOM      9  C   UNL d   1     -48.829  14.285  23.486  0.00  0.00     0.001 A 
ATOM     10  C   UNL d   1     -49.391  14.830  23.689  0.00  0.00     0.011 A 
ATOM     11  C   UNL d   1     -49.678  15.364  23.130  0.00  0.00     0.058 A 
ATOM     12  C   UNL d   1     -49.384  15.334  22.360  0.00  0.00     0.011 A 
ATOM     13 CL   UNL d   1     -50.250  15.918  23.336  0.00  0.00    -0.082 Cl
ATOM     14  C   UNL d   1     -48.821  14.789  22.156  0.00  0.00     0.001 A 
ENDBRANCH   4   8
BRANCH   2  15
ATOM     15  C   UNL d   1     -46.942  14.675  22.775  0.00  0.00     0.124 C 
ATOM     16  N   UNL d   1     -46.500  15.153  22.248  0.00  0.00    -0.146 N 
ENDBRANCH   2  15
BRANCH   1  17
ATOM     17  C   UNL d   1     -49.004  12.745  22.250  0.00  0.00     0.302 C 
ATOM     18  O   UNL d   1     -49.493  13.077  21.678  0.00  0.00    -0.259 OA
BRANCH  17  19
ATOM     19  O   UNL d   1     -49.305  12.204  22.808  0.00  0.00    -0.271 OA
BRANCH  19  20
ATOM     20  C   UNL d   1     -50.047  11.853  22.700  0.00  0.00     0.126 C 
BRANCH  20  21
ATOM     21  C   UNL d   1     -50.432  11.496  23.333  0.00  0.00     0.027 C 
ATOM     22  C   UNL d   1     -51.062  11.868  23.691  0.00  0.00     0.002 C 
ENDBRANCH  20  21
ENDBRANCH  19  20
ENDBRANCH  17  19
ENDBRANCH   1  17
BRANCH   3  23
ATOM     23  S   UNL d   1     -45.780  13.548  22.354  0.00  0.00    -0.067 SA
BRANCH  23  24
ATOM     24  C   UNL d   1     -45.209  12.957  22.321  0.00  0.00     0.037 C 
ATOM     25  C   UNL d   1     -44.486  13.093  21.943  0.00  0.00     0.007 C 
ENDBRANCH  23  24
ENDBRANCH   3  23
TORSDOF 8
ENDMDL
MODEL 5
REMARK VINA RESULT:      -3.9      7.410      9.342
REMARK  8 active torsions:
REMARK  status: ('A' for Active; 'I' for Inactive)
REMARK    1  A    between atoms: C_7  and  C_1 
REMARK    2  A    between atoms: C_8  and  C_2 
REMARK    3  A    between atoms: S_11  and  C_3 
REMARK    4  A    between atoms: C_10  and  C_4 
REMARK    5  A    between atoms: O_17  and  C_7 
REMARK    6  A    between atoms: C_24  and  S_11 
REMARK    7  A    between atoms: C_15  and  C_23 
REMARK    8  A    between atoms: C_23  and  O_17 
ROOT
ATOM      1  C   UNL d   1     -39.270  15.350  20.196  0.00  0.00     0.081 A 
ATOM      2  C   UNL d   1     -39.925  15.172  18.946  0.00  0.00     0.045 A 
ATOM      3  C   UNL d   1     -39.271  15.488  18.559  0.00  0.00     0.112 A 
ATOM      4  C   UNL d   1     -39.930  15.101  19.768  0.00  0.00     0.010 A 
ATOM      5  C   UNL d   1     -38.616  15.666  19.809  0.00  0.00     0.087 A 
ATOM      6  N   UNL d   1     -38.615  15.736  18.990  0.00  0.00    -0.239 NA
ATOM      7  C   UNL d   1     -37.940  15.922  20.243  0.00  0.00     0.021 C 
ENDROOT
BRANCH   4   8
ATOM      8  C   UNL d   1     -40.572  14.790  20.149  0.00  0.00     0.000 A 
ATOM      9  C   UNL d   1     -41.100  15.282  20.548  0.00  0.00     0.001 A 
ATOM     10  C   UNL d   1     -41.742  14.972  20.929  0.00  0.00     0.011 A 
ATOM     11  C   UNL d   1     -41.880  14.159  20.923  0.00  0.00     0.058 A 
ATOM     12  C   UNL d   1     -41.352  13.666  20.523  0.00  0.00     0.011 A 
ATOM     13 CL   UNL d   1     -42.533  13.843  21.310  0.00  0.00    -0.082 Cl
ATOM     14  C   UNL d   1     -40.710  13.977  20.142  0.00  0.00     0.001 A 
ENDBRANCH   4   8
BRANCH   2  15
ATOM     15  C   UNL d   1     -40.591  14.922  18.506  0.00  0.00     0.124 C 
ATOM     16  N   UNL d   1     -40.907  15.426  17.916  0.00  0.00    -0.146 N 
ENDBRANCH   2  15
BRANCH   1  17
ATOM     17  C   UNL d   1     -39.269  15.280  21.030  0.00  0.00     0.302 C 
ATOM     18  O   UNL d   1     -39.633  15.855  21.492  0.00  0.00    -0.259 OA
BRANCH  17  19
ATOM     19  O   UNL d   1     -38.895  14.623  21.383  0.00  0.00    -0.271 OA
BRANCH  19  20
ATOM     20  C   UNL d   1     -38.695  14.630  22.186  0.00  0.00     0.126 C 
BRANCH  20  21
ATOM     21  C   UNL d   1     -38.370  13.961  22.537  0.00  0.00     0.027 C 
ATOM     22  C   UNL d   1     -37.942  14.028  23.226  0.00  0.00     0.002 C 
ENDBRANCH  20  21
ENDBRANCH  19  20
ENDBRANCH  17  19
ENDBRANCH   1  17
BRANCH   3  23
ATOM     23  S   UNL d   1     -39.261  15.564  17.719  0.00  0.00    -0.067 SA
BRANCH  23  24
ATOM     24  C   UNL d   1     -38.562  15.461  17.298  0.00  0.00     0.037 C 
ATOM     25  C   UNL d   1     -38.561  15.489  16.472  0.00  0.00     0.007 C 
ENDBRANCH  23  24
ENDBRANCH   3  23
TORSDOF 8
ENDMDL
MODEL 6
REMARK VINA RESULT:      -2.8      7.526      9.935
REMARK  8 active torsions:
REMARK  status: ('A' for Active; 'I' for Inactive)
REMARK    1  A    between atoms: C_7  and  C_1 
REMARK    2  A    between atoms: C_8  and  C_2 
REMARK    3  A    between atoms: S_11  and  C_3 
REMARK    4  A    between atoms: C_10  and  C_4 
REMARK    5  A    between atoms: O_17  and  C_7 
REMARK    6  A    between atoms: C_24  and  S_11 
REMARK    7  A    between atoms: C_15  and  C_23 
REMARK    8  A    between atoms: C_23  and  O_17 
ROOT
ATOM      1  C   UNL d   1     -39.681  15.040  18.799  0.00  0.00     0.081 A 
ATOM      2  C   UNL d   1     -38.629  14.339  18.148  0.00  0.00     0.045 A 
ATOM      3  C   UNL d   1     -38.899  14.611  17.419  0.00  0.00     0.112 A 
ATOM      4  C   UNL d   1     -39.018  14.552  18.843  0.00  0.00     0.010 A 
ATOM      5  C   UNL d   1     -39.951  15.312  18.071  0.00  0.00     0.087 A 
ATOM      6  N   UNL d   1     -39.561  15.097  17.379  0.00  0.00    -0.239 NA
ATOM      7  C   UNL d   1     -40.629  15.811  18.020  0.00  0.00     0.021 C 
ENDROOT
BRANCH   4   8
ATOM      8  C   UNL d   1     -38.752  14.285  19.559  0.00  0.00     0.000 A 
ATOM      9  C   UNL d   1     -39.008  13.560  19.856  0.00  0.00     0.001 A 
ATOM     10  C   UNL d   1     -38.742  13.293  20.572  0.00  0.00     0.011 A 
ATOM     11  C   UNL d   1     -38.211  13.743  21.015  0.00  0.00     0.058 A 
ATOM     12  C   UNL d   1     -37.955  14.468  20.718  0.00  0.00     0.011 A 
ATOM     13 CL   UNL d   1     -37.941  13.472  21.744  0.00  0.00    -0.082 Cl
ATOM     14  C   UNL d   1     -38.221  14.735  20.002  0.00  0.00     0.001 A 
ENDBRANCH   4   8
BRANCH   2  15
ATOM     15  C   UNL d   1     -37.955  13.844  18.185  0.00  0.00     0.124 C 
ATOM     16  N   UNL d   1     -37.942  13.133  17.743  0.00  0.00    -0.146 N 
ENDBRANCH   2  15
BRANCH   1  17
ATOM     17  C   UNL d   1     -40.080  15.260  19.501  0.00  0.00     0.302 C 
ATOM     18  O   UNL d   1     -39.834  15.922  19.924  0.00  0.00    -0.259 OA
BRANCH  17  19
ATOM     19  O   UNL d   1     -40.725  14.801  19.763  0.00  0.00    -0.271 OA
BRANCH  19  20
ATOM     20  C   UNL d   1     -41.154  15.018  20.437  0.00  0.00     0.126 C 
BRANCH  20  21
ATOM     21  C   UNL d   1     -41.873  14.656  20.603  0.00  0.00     0.027 C 
ATOM     22  C   UNL d   1     -42.239  14.783  21.319  0.00  0.00     0.002 C 
ENDBRANCH  20  21
ENDBRANCH  19  20
ENDBRANCH  17  19
ENDBRANCH   1  17
BRANCH   3  23
ATOM     23  S   UNL d   1     -38.505  14.396  16.705  0.00  0.00    -0.067 SA
BRANCH  23  24
ATOM     24  C   UNL d   1     -38.531  14.891  16.049  0.00  0.00     0.037 C 
ATOM     25  C   UNL d   1     -38.205  14.650  15.327  0.00  0.00     0.007 C 
ENDBRANCH  23  24
ENDBRANCH   3  23
TORSDOF 8
ENDMDL
MODEL 7
REMARK VINA RESULT:      -2.5      1.606      2.302
REMARK  8 active torsions:
REMARK  status: ('A' for Active; 'I' for Inactive)
REMARK    1  A    between atoms: C_7  and  C_1 
REMARK    2  A    between atoms: C_8  and  C_2 
REMARK    3  A    between atoms: S_11  and  C_3 
REMARK    4  A    between atoms: C_10  and  C_4 
REMARK    5  A    between atoms: O_17  and  C_7 
REMARK    6  A    between atoms: C_24  and  S_11 
REMARK    7  A    between atoms: C_15  and  C_23 
REMARK    8  A    between atoms: C_23  and  O_17 
ROOT
ATOM      1  C   UNL d   1     -46.318  12.494  22.612  0.00  0.00     0.081 A 
ATOM      2  C   UNL d   1     -46.246  11.257  23.311  0.00  0.00     0.045 A 
ATOM      3  C   UNL d   1     -45.424  11.287  23.278  0.00  0.00     0.112 A 
ATOM      4  C   UNL d   1     -46.700  11.860  22.978  0.00  0.00     0.010 A 
ATOM      5  C   UNL d   1     -45.496  12.523  22.580  0.00  0.00     0.087 A 
ATOM      6  N   UNL d   1     -45.048  11.920  22.913  0.00  0.00    -0.239 NA
ATOM      7  C   UNL d   1     -45.102  13.169  22.207  0.00  0.00     0.021 C 
ENDROOT
BRANCH   4   8
ATOM      8  C   UNL d   1     -47.507  11.831  23.010  0.00  0.00     0.000 A 
ATOM      9  C   UNL d   1     -47.939  11.506  22.386  0.00  0.00     0.001 A 
ATOM     10  C   UNL d   1     -48.747  11.477  22.418  0.00  0.00     0.011 A 
ATOM     11  C   UNL d   1     -49.150  11.772  23.074  0.00  0.00     0.058 A 
ATOM     12  C   UNL d   1     -48.719  12.096  23.697  0.00  0.00     0.011 A 
ATOM     13 CL   UNL d   1     -49.972  11.742  23.106  0.00  0.00    -0.082 Cl
ATOM     14  C   UNL d   1     -47.911  12.126  23.666  0.00  0.00     0.001 A 
ENDBRANCH   4   8
BRANCH   2  15
ATOM     15  C   UNL d   1     -46.627  10.611  23.683  0.00  0.00     0.124 C 
ATOM     16  N   UNL d   1     -46.292   9.846  23.622  0.00  0.00    -0.146 N 
ENDBRANCH   2  15
BRANCH   1  17
ATOM     17  C   UNL d   1     -46.772  13.109  22.273  0.00  0.00     0.302 C 
ATOM     18  O   UNL d   1     -47.132  12.998  21.541  0.00  0.00    -0.259 OA
BRANCH  17  19
ATOM     19  O   UNL d   1     -46.854  13.829  22.684  0.00  0.00    -0.271 OA
BRANCH  19  20
ATOM     20  C   UNL d   1     -47.123  14.510  22.297  0.00  0.00     0.126 C 
BRANCH  20  21
ATOM     21  C   UNL d   1     -47.621  15.036  22.686  0.00  0.00     0.027 C 
ATOM     22  C   UNL d   1     -47.379  15.801  22.826  0.00  0.00     0.002 C 
ENDBRANCH  20  21
ENDBRANCH  19  20
ENDBRANCH  17  19
ENDBRANCH   1  17
BRANCH   3  23
ATOM     23  S   UNL d   1     -44.956  10.672  23.618  0.00  0.00    -0.067 SA
BRANCH  23  24
ATOM     24  C   UNL d   1     -44.138  10.744  23.658  0.00  0.00     0.037 C 
ATOM     25  C   UNL d   1     -43.648  10.138  23.381  0.00  0.00     0.007 C 
ENDBRANCH  23  24
ENDBRANCH   3  23
TORSDOF 8
ENDMDL
