MODEL 1
REMARK VINA RESULT:      84.6      0.000      0.000
REMARK  5 active torsions:
REMARK  status: ('A' for Active; 'I' for Inactive)
REMARK    1  A    between atoms: C_12  and  C_3 
REMARK    2  A    between atoms: C_13  and  N_5 
REMARK    3  A    between atoms: C_11  and  C_6 
REMARK    4  A    between atoms: O_24  and  C_12 
REMARK    5  A    between atoms: C_14  and  C_13 
ROOT
ATOM      1  C   UNL d   1      58.860  49.598  52.111  0.00  0.00     0.080 A 
ATOM      2  C   UNL d   1      59.213  49.566  51.355  0.00  0.00     0.267 A 
ATOM      3  C   UNL d   1      57.692  49.596  52.926  0.00  0.00     0.106 A 
ATOM      4  C   UNL d   1      59.334  49.665  52.778  0.00  0.00     0.108 A 
ATOM      5  N   UNL d   1      60.040  49.601  51.280  0.00  0.00    -0.271 N 
ATOM      6  C   UNL d   1      58.038  49.564  52.186  0.00  0.00     0.015 A 
ATOM      7  C   UNL d   1      58.168  49.663  53.602  0.00  0.00     0.208 A 
ATOM      8  O   UNL d   1      58.989  49.698  53.528  0.00  0.00    -0.288 OA
ATOM      9  C   UNL d   1      60.156  49.701  52.713  0.00  0.00     0.043 A 
ATOM     10  C   UNL d   1      60.513  49.669  51.969  0.00  0.00     0.069 A 
ATOM     11  O   UNL d   1      58.736  49.498  50.675  0.00  0.00    -0.267 OA
ATOM     12  N   UNL d   1      57.818  49.696  54.351  0.00  0.00    -0.121 N 
ATOM     13  C   UNL d   1      61.345  49.704  51.899  0.00  0.00     0.019 C 
ENDROOT
BRANCH   6  14
ATOM     14  C   UNL d   1      57.569  49.497  51.512  0.00  0.00     0.001 A 
ATOM     15  C   UNL d   1      57.899  49.218  50.808  0.00  0.00     0.011 A 
ATOM     16  C   UNL d   1      57.434  49.149  50.132  0.00  0.00     0.058 A 
ATOM     17 CL   UNL d   1      57.771  48.869  49.430  0.00  0.00    -0.082 Cl
ATOM     18  C   UNL d   1      56.631  49.361  50.161  0.00  0.00     0.011 A 
ATOM     19  C   UNL d   1      56.300  49.639  50.864  0.00  0.00     0.001 A 
ATOM     20  C   UNL d   1      56.770  49.707  51.540  0.00  0.00     0.000 A 
ENDBRANCH   6  14
BRANCH   3  21
ATOM     21  C   UNL d   1      56.872  49.561  53.001  0.00  0.00     0.299 C 
ATOM     22  O   UNL d   1      56.392  49.623  52.337  0.00  0.00    -0.259 OA
BRANCH  21  23
ATOM     23  O   UNL d   1      56.528  49.463  53.746  0.00  0.00    -0.296 OA
ATOM     24  C   UNL d   1      56.965  49.610  54.436  0.00  0.00     0.185 C 
ENDBRANCH  21  23
ENDBRANCH   3  21
BRANCH   5  25
ATOM     25  C   UNL d   1      60.390  49.568  50.531  0.00  0.00     0.108 C 
BRANCH  25  26
ATOM     26  C   UNL d   1      60.931  48.971  50.354  0.00  0.00     0.118 A 
ATOM     27  O   UNL d   1      61.741  48.980  50.523  0.00  0.00    -0.304 OA
ATOM     28  C   UNL d   1      62.071  48.275  50.250  0.00  0.00     0.123 A 
ATOM     29  C   UNL d   1      61.466  47.828  49.912  0.00  0.00     0.029 A 
ATOM     30  C   UNL d   1      60.757  48.256  49.974  0.00  0.00     0.028 A 
ENDBRANCH  25  26
ENDBRANCH   5  25
TORSDOF 5
ENDMDL
