MODEL 1
REMARK VINA RESULT:      -8.2      0.000      0.000
REMARK  3 active torsions:
REMARK  status: ('A' for Active; 'I' for Inactive)
REMARK    1  A    between atoms: S_9  and  C_2 
REMARK    2  A    between atoms: C_15  and  S_9 
REMARK    3  A    between atoms: C_14  and  C_15 
ROOT
ATOM      1  C   UNL d   1      53.057  34.592  54.497  0.00  0.00     0.119 A 
ATOM      2  C   UNL d   1      52.849  35.150  53.922  0.00  0.00     0.119 A 
ATOM      3  O   UNL d   1      53.342  35.001  55.149  0.00  0.00    -0.300 OA
ATOM      4  O   UNL d   1      53.009  35.897  54.226  0.00  0.00    -0.300 OA
ATOM      5  C   UNL d   1      53.311  35.801  54.978  0.00  0.00     0.304 A 
ATOM      6  C   UNL d   1      52.957  33.794  54.348  0.00  0.00     0.027 A 
ATOM      7  C   UNL d   1      52.546  34.900  53.209  0.00  0.00     0.026 A 
ATOM      8  C   UNL d   1      52.650  33.542  53.625  0.00  0.00     0.009 A 
ATOM      9  C   UNL d   1      52.443  34.101  53.050  0.00  0.00     0.003 A 
ENDROOT
BRANCH   8  10
ATOM     10  C   UNL d   1      52.549  32.741  53.474  0.00  0.00     0.037 C 
BRANCH  10  11
ATOM     11  S   UNL d   1      53.197  32.270  53.260  0.00  0.00    -0.059 SA
BRANCH  11  12
ATOM     12  C   UNL d   1      53.112  31.428  53.208  0.00  0.00     0.164 A 
ATOM     13  S   UNL d   1      53.397  30.882  53.769  0.00  0.00    -0.039 SA
ATOM     14  C   UNL d   1      53.190  30.108  53.495  0.00  0.00     0.134 A 
ATOM     15  N   UNL d   1      52.788  30.196  52.779  0.00  0.00    -0.140 NA
ATOM     16  C   UNL d   1      53.369  29.391  53.890  0.00  0.00     0.030 C 
ATOM     17  N   UNL d   1      52.735  31.014  52.593  0.00  0.00    -0.134 NA
ENDBRANCH  11  12
ENDBRANCH  10  11
ENDBRANCH   8  10
TORSDOF 3
ENDMDL
MODEL 2
REMARK VINA RESULT:      -7.8      2.604      4.437
REMARK  3 active torsions:
REMARK  status: ('A' for Active; 'I' for Inactive)
REMARK    1  A    between atoms: S_9  and  C_2 
REMARK    2  A    between atoms: C_15  and  S_9 
REMARK    3  A    between atoms: C_14  and  C_15 
ROOT
ATOM      1  C   UNL d   1      53.347  30.257  53.999  0.00  0.00     0.119 A 
ATOM      2  C   UNL d   1      52.901  30.066  53.328  0.00  0.00     0.119 A 
ATOM      3  O   UNL d   1      53.465  29.565  54.424  0.00  0.00    -0.300 OA
ATOM      4  O   UNL d   1      52.748  29.259  53.348  0.00  0.00    -0.300 OA
ATOM      5  C   UNL d   1      53.096  28.956  54.021  0.00  0.00     0.304 A 
ATOM      6  C   UNL d   1      53.583  31.030  54.128  0.00  0.00     0.027 A 
ATOM      7  C   UNL d   1      52.699  30.652  52.799  0.00  0.00     0.026 A 
ATOM      8  C   UNL d   1      53.377  31.621  53.591  0.00  0.00     0.009 A 
ATOM      9  C   UNL d   1      52.931  31.430  52.920  0.00  0.00     0.003 A 
ENDROOT
BRANCH   8  10
ATOM     10  C   UNL d   1      53.613  32.398  53.718  0.00  0.00     0.037 C 
BRANCH  10  11
ATOM     11  S   UNL d   1      53.053  33.007  53.744  0.00  0.00    -0.059 SA
BRANCH  11  12
ATOM     12  C   UNL d   1      53.247  33.750  54.105  0.00  0.00     0.164 A 
ATOM     13  S   UNL d   1      52.824  34.459  54.000  0.00  0.00    -0.039 SA
ATOM     14  C   UNL d   1      53.211  35.055  54.460  0.00  0.00     0.134 A 
ATOM     15  N   UNL d   1      53.857  34.701  54.832  0.00  0.00    -0.140 NA
ATOM     16  C   UNL d   1      52.970  35.856  54.516  0.00  0.00     0.030 C 
ATOM     17  N   UNL d   1      53.888  33.889  54.617  0.00  0.00    -0.134 NA
ENDBRANCH  11  12
ENDBRANCH  10  11
ENDBRANCH   8  10
TORSDOF 3
ENDMDL
MODEL 3
REMARK VINA RESULT:      -7.5      2.838      4.339
REMARK  3 active torsions:
REMARK  status: ('A' for Active; 'I' for Inactive)
REMARK    1  A    between atoms: S_9  and  C_2 
REMARK    2  A    between atoms: C_15  and  S_9 
REMARK    3  A    between atoms: C_14  and  C_15 
ROOT
ATOM      1  C   UNL d   1      52.841  30.395  53.316  0.00  0.00     0.119 A 
ATOM      2  C   UNL d   1      53.531  30.467  53.768  0.00  0.00     0.119 A 
ATOM      3  O   UNL d   1      52.639  29.600  53.298  0.00  0.00    -0.300 OA
ATOM      4  O   UNL d   1      53.746  29.716  54.024  0.00  0.00    -0.300 OA
ATOM      5  C   UNL d   1      53.196  29.188  53.733  0.00  0.00     0.304 A 
ATOM      6  C   UNL d   1      52.496  31.059  52.985  0.00  0.00     0.027 A 
ATOM      7  C   UNL d   1      53.863  31.202  53.880  0.00  0.00     0.026 A 
ATOM      8  C   UNL d   1      52.835  31.803  53.101  0.00  0.00     0.009 A 
ATOM      9  C   UNL d   1      53.525  31.875  53.553  0.00  0.00     0.003 A 
ENDROOT
BRANCH   8  10
ATOM     10  C   UNL d   1      52.490  32.471  52.770  0.00  0.00     0.037 C 
BRANCH  10  11
ATOM     11  S   UNL d   1      52.084  33.013  53.247  0.00  0.00    -0.059 SA
BRANCH  11  12
ATOM     12  C   UNL d   1      51.553  33.574  52.897  0.00  0.00     0.164 A 
ATOM     13  S   UNL d   1      50.814  33.796  53.212  0.00  0.00    -0.039 SA
ATOM     14  C   UNL d   1      50.475  34.365  52.685  0.00  0.00     0.134 A 
ATOM     15  N   UNL d   1      51.008  34.478  52.065  0.00  0.00    -0.140 NA
ATOM     16  C   UNL d   1      49.731  34.737  52.788  0.00  0.00     0.030 C 
ATOM     17  N   UNL d   1      51.681  33.991  52.189  0.00  0.00    -0.134 NA
ENDBRANCH  11  12
ENDBRANCH  10  11
ENDBRANCH   8  10
TORSDOF 3
ENDMDL
MODEL 4
REMARK VINA RESULT:      -7.4      2.239      3.372
REMARK  3 active torsions:
REMARK  status: ('A' for Active; 'I' for Inactive)
REMARK    1  A    between atoms: S_9  and  C_2 
REMARK    2  A    between atoms: C_15  and  S_9 
REMARK    3  A    between atoms: C_14  and  C_15 
ROOT
ATOM      1  C   UNL d   1      54.077  33.852  54.668  0.00  0.00     0.119 A 
ATOM      2  C   UNL d   1      54.291  33.060  54.781  0.00  0.00     0.119 A 
ATOM      3  O   UNL d   1      54.526  34.306  55.183  0.00  0.00    -0.300 OA
ATOM      4  O   UNL d   1      54.870  33.036  55.364  0.00  0.00    -0.300 OA
ATOM      5  C   UNL d   1      55.011  33.802  55.608  0.00  0.00     0.304 A 
ATOM      6  C   UNL d   1      53.506  34.047  54.116  0.00  0.00     0.027 A 
ATOM      7  C   UNL d   1      53.931  32.479  54.340  0.00  0.00     0.026 A 
ATOM      8  C   UNL d   1      53.142  33.456  53.670  0.00  0.00     0.009 A 
ATOM      9  C   UNL d   1      53.357  32.665  53.783  0.00  0.00     0.003 A 
ENDROOT
BRANCH   8  10
ATOM     10  C   UNL d   1      52.569  33.650  53.114  0.00  0.00     0.037 C 
BRANCH  10  11
ATOM     11  S   UNL d   1      51.772  33.704  53.335  0.00  0.00    -0.059 SA
BRANCH  11  12
ATOM     12  C   UNL d   1      51.192  33.970  52.777  0.00  0.00     0.164 A 
ATOM     13  S   UNL d   1      50.419  34.216  52.969  0.00  0.00    -0.039 SA
ATOM     14  C   UNL d   1      50.036  34.433  52.246  0.00  0.00     0.134 A 
ATOM     15  N   UNL d   1      50.578  34.317  51.633  0.00  0.00    -0.140 NA
ATOM     16  C   UNL d   1      49.249  34.713  52.180  0.00  0.00     0.030 C 
ATOM     17  N   UNL d   1      51.299  34.029  51.954  0.00  0.00    -0.134 NA
ENDBRANCH  11  12
ENDBRANCH  10  11
ENDBRANCH   8  10
TORSDOF 3
ENDMDL
MODEL 5
REMARK VINA RESULT:      -7.1      2.411      3.138
REMARK  3 active torsions:
REMARK  status: ('A' for Active; 'I' for Inactive)
REMARK    1  A    between atoms: S_9  and  C_2 
REMARK    2  A    between atoms: C_15  and  S_9 
REMARK    3  A    between atoms: C_14  and  C_15 
ROOT
ATOM      1  C   UNL d   1      50.358  34.586  52.896  0.00  0.00     0.119 A 
ATOM      2  C   UNL d   1      50.285  34.403  52.092  0.00  0.00     0.119 A 
ATOM      3  O   UNL d   1      49.623  34.838  53.161  0.00  0.00    -0.300 OA
ATOM      4  O   UNL d   1      49.506  34.545  51.870  0.00  0.00    -0.300 OA
ATOM      5  C   UNL d   1      49.104  34.811  52.528  0.00  0.00     0.304 A 
ATOM      6  C   UNL d   1      51.078  34.497  53.273  0.00  0.00     0.027 A 
ATOM      7  C   UNL d   1      50.934  34.136  51.680  0.00  0.00     0.026 A 
ATOM      8  C   UNL d   1      51.735  34.226  52.853  0.00  0.00     0.009 A 
ATOM      9  C   UNL d   1      51.662  34.044  52.049  0.00  0.00     0.003 A 
ENDROOT
BRANCH   8  10
ATOM     10  C   UNL d   1      52.459  34.136  53.230  0.00  0.00     0.037 C 
BRANCH  10  11
ATOM     11  S   UNL d   1      52.683  33.401  53.540  0.00  0.00    -0.059 SA
BRANCH  11  12
ATOM     12  C   UNL d   1      53.456  33.295  53.871  0.00  0.00     0.164 A 
ATOM     13  S   UNL d   1      53.710  33.599  54.604  0.00  0.00    -0.039 SA
ATOM     14  C   UNL d   1      54.516  33.360  54.711  0.00  0.00     0.134 A 
ATOM     15  N   UNL d   1      54.735  32.920  54.047  0.00  0.00    -0.140 NA
ATOM     16  C   UNL d   1      54.991  33.545  55.376  0.00  0.00     0.030 C 
ATOM     17  N   UNL d   1      54.082  32.875  53.520  0.00  0.00    -0.134 NA
ENDBRANCH  11  12
ENDBRANCH  10  11
ENDBRANCH   8  10
TORSDOF 3
ENDMDL
MODEL 6
REMARK VINA RESULT:      -7.1      1.256      1.730
REMARK  3 active torsions:
REMARK  status: ('A' for Active; 'I' for Inactive)
REMARK    1  A    between atoms: S_9  and  C_2 
REMARK    2  A    between atoms: C_15  and  S_9 
REMARK    3  A    between atoms: C_14  and  C_15 
ROOT
ATOM      1  C   UNL d   1      51.771  33.515  53.081  0.00  0.00     0.119 A 
ATOM      2  C   UNL d   1      52.433  33.999  53.192  0.00  0.00     0.119 A 
ATOM      3  O   UNL d   1      51.110  34.000  53.059  0.00  0.00    -0.300 OA
ATOM      4  O   UNL d   1      52.173  34.777  53.236  0.00  0.00    -0.300 OA
ATOM      5  C   UNL d   1      51.361  34.773  53.154  0.00  0.00     0.304 A 
ATOM      6  C   UNL d   1      51.861  32.704  53.017  0.00  0.00     0.027 A 
ATOM      7  C   UNL d   1      53.174  33.663  53.236  0.00  0.00     0.026 A 
ATOM      8  C   UNL d   1      52.613  32.367  53.062  0.00  0.00     0.009 A 
ATOM      9  C   UNL d   1      53.275  32.851  53.173  0.00  0.00     0.003 A 
ENDROOT
BRANCH   8  10
ATOM     10  C   UNL d   1      52.706  31.553  52.998  0.00  0.00     0.037 C 
BRANCH  10  11
ATOM     11  S   UNL d   1      53.260  31.156  53.469  0.00  0.00    -0.059 SA
BRANCH  11  12
ATOM     12  C   UNL d   1      53.156  30.333  53.647  0.00  0.00     0.164 A 
ATOM     13  S   UNL d   1      53.503  29.935  54.291  0.00  0.00    -0.039 SA
ATOM     14  C   UNL d   1      53.250  29.127  54.255  0.00  0.00     0.134 A 
ATOM     15  N   UNL d   1      52.759  29.050  53.596  0.00  0.00    -0.140 NA
ATOM     16  C   UNL d   1      53.468  28.527  54.797  0.00  0.00     0.030 C 
ATOM     17  N   UNL d   1      52.694  29.795  53.212  0.00  0.00    -0.134 NA
ENDBRANCH  11  12
ENDBRANCH  10  11
ENDBRANCH   8  10
TORSDOF 3
ENDMDL
MODEL 7
REMARK VINA RESULT:      -6.5      2.663      3.670
REMARK  3 active torsions:
REMARK  status: ('A' for Active; 'I' for Inactive)
REMARK    1  A    between atoms: S_9  and  C_2 
REMARK    2  A    between atoms: C_15  and  S_9 
REMARK    3  A    between atoms: C_14  and  C_15 
ROOT
ATOM      1  C   UNL d   1      53.342  33.446  54.196  0.00  0.00     0.119 A 
ATOM      2  C   UNL d   1      53.647  34.087  54.623  0.00  0.00     0.119 A 
ATOM      3  O   UNL d   1      53.757  32.776  54.424  0.00  0.00    -0.300 OA
ATOM      4  O   UNL d   1      54.247  33.804  55.109  0.00  0.00    -0.300 OA
ATOM      5  C   UNL d   1      54.310  33.000  54.984  0.00  0.00     0.304 A 
ATOM      6  C   UNL d   1      52.733  33.563  53.662  0.00  0.00     0.027 A 
ATOM      7  C   UNL d   1      53.337  34.831  54.508  0.00  0.00     0.026 A 
ATOM      8  C   UNL d   1      52.421  34.318  53.548  0.00  0.00     0.009 A 
ATOM      9  C   UNL d   1      52.726  34.958  53.975  0.00  0.00     0.003 A 
ENDROOT
BRANCH   8  10
ATOM     10  C   UNL d   1      51.809  34.436  53.013  0.00  0.00     0.037 C 
BRANCH  10  11
ATOM     11  S   UNL d   1      51.086  34.043  53.109  0.00  0.00    -0.059 SA
BRANCH  11  12
ATOM     12  C   UNL d   1      50.396  34.314  52.697  0.00  0.00     0.164 A 
ATOM     13  S   UNL d   1      50.202  34.125  51.909  0.00  0.00    -0.039 SA
ATOM     14  C   UNL d   1      49.471  34.513  51.729  0.00  0.00     0.134 A 
ATOM     15  N   UNL d   1      49.236  34.926  52.404  0.00  0.00    -0.140 NA
ATOM     16  C   UNL d   1      49.071  34.474  50.994  0.00  0.00     0.030 C 
ATOM     17  N   UNL d   1      49.805  34.808  53.011  0.00  0.00    -0.134 NA
ENDBRANCH  11  12
ENDBRANCH  10  11
ENDBRANCH   8  10
TORSDOF 3
ENDMDL
MODEL 8
REMARK VINA RESULT:      -5.9      2.712      3.244
REMARK  3 active torsions:
REMARK  status: ('A' for Active; 'I' for Inactive)
REMARK    1  A    between atoms: S_9  and  C_2 
REMARK    2  A    between atoms: C_15  and  S_9 
REMARK    3  A    between atoms: C_14  and  C_15 
ROOT
ATOM      1  C   UNL d   1      49.520  34.979  52.883  0.00  0.00     0.119 A 
ATOM      2  C   UNL d   1      49.266  34.817  52.112  0.00  0.00     0.119 A 
ATOM      3  O   UNL d   1      48.923  35.398  53.258  0.00  0.00    -0.300 OA
ATOM      4  O   UNL d   1      48.516  35.139  52.019  0.00  0.00    -0.300 OA
ATOM      5  C   UNL d   1      48.309  35.494  52.724  0.00  0.00     0.304 A 
ATOM      6  C   UNL d   1      50.255  34.722  53.135  0.00  0.00     0.027 A 
ATOM      7  C   UNL d   1      49.753  34.403  51.607  0.00  0.00     0.026 A 
ATOM      8  C   UNL d   1      50.746  34.302  52.622  0.00  0.00     0.009 A 
ATOM      9  C   UNL d   1      50.492  34.141  51.850  0.00  0.00     0.003 A 
ENDROOT
BRANCH   8  10
ATOM     10  C   UNL d   1      51.484  34.044  52.873  0.00  0.00     0.037 C 
BRANCH  10  11
ATOM     11  S   UNL d   1      51.631  33.236  52.981  0.00  0.00    -0.059 SA
BRANCH  11  12
ATOM     12  C   UNL d   1      52.396  32.973  53.235  0.00  0.00     0.164 A 
ATOM     13  S   UNL d   1      52.676  32.190  53.180  0.00  0.00    -0.039 SA
ATOM     14  C   UNL d   1      53.462  32.180  53.497  0.00  0.00     0.134 A 
ATOM     15  N   UNL d   1      53.643  32.949  53.737  0.00  0.00    -0.140 NA
ATOM     16  C   UNL d   1      53.953  31.504  53.550  0.00  0.00     0.030 C 
ATOM     17  N   UNL d   1      52.986  33.449  53.578  0.00  0.00    -0.134 NA
ENDBRANCH  11  12
ENDBRANCH  10  11
ENDBRANCH   8  10
TORSDOF 3
ENDMDL
MODEL 9
REMARK VINA RESULT:      -5.2      9.776     10.259
REMARK  3 active torsions:
REMARK  status: ('A' for Active; 'I' for Inactive)
REMARK    1  A    between atoms: S_9  and  C_2 
REMARK    2  A    between atoms: C_15  and  S_9 
REMARK    3  A    between atoms: C_14  and  C_15 
ROOT
ATOM      1  C   UNL d   1      45.190  29.278  58.332  0.00  0.00     0.119 A 
ATOM      2  C   UNL d   1      44.939  29.848  57.786  0.00  0.00     0.119 A 
ATOM      3  O   UNL d   1      45.285  29.653  59.055  0.00  0.00    -0.300 OA
ATOM      4  O   UNL d   1      44.882  30.568  58.179  0.00  0.00    -0.300 OA
ATOM      5  C   UNL d   1      45.095  30.444  58.957  0.00  0.00     0.304 A 
ATOM      6  C   UNL d   1      45.296  28.503  58.095  0.00  0.00     0.027 A 
ATOM      7  C   UNL d   1      44.799  29.631  57.014  0.00  0.00     0.026 A 
ATOM      8  C   UNL d   1      45.153  28.285  57.312  0.00  0.00     0.009 A 
ATOM      9  C   UNL d   1      44.902  28.855  56.766  0.00  0.00     0.003 A 
ENDROOT
BRANCH   8  10
ATOM     10  C   UNL d   1      45.259  27.506  57.073  0.00  0.00     0.037 C 
BRANCH  10  11
ATOM     11  S   UNL d   1      44.610  27.047  56.840  0.00  0.00    -0.059 SA
BRANCH  11  12
ATOM     12  C   UNL d   1      44.723  26.245  56.591  0.00  0.00     0.164 A 
ATOM     13  S   UNL d   1      44.315  25.586  56.896  0.00  0.00    -0.039 SA
ATOM     14  C   UNL d   1      44.602  24.901  56.490  0.00  0.00     0.134 A 
ATOM     15  N   UNL d   1      45.174  25.152  55.950  0.00  0.00    -0.140 NA
ATOM     16  C   UNL d   1      44.342  24.115  56.623  0.00  0.00     0.030 C 
ATOM     17  N   UNL d   1      45.256  25.987  56.006  0.00  0.00    -0.134 NA
ENDBRANCH  11  12
ENDBRANCH  10  11
ENDBRANCH   8  10
TORSDOF 3
ENDMDL
