MODEL 1
REMARK VINA RESULT:      -7.1      0.000      0.000
REMARK  5 active torsions:
REMARK  status: ('A' for Active; 'I' for Inactive)
REMARK    1  A    between atoms: C_6  and  N_1 
REMARK    2  A    between atoms: C_10  and  C_3 
REMARK    3  A    between atoms: C_7  and  C_6 
REMARK    4  A    between atoms: C_13  and  C_10 
REMARK    5  A    between atoms: C_14  and  C_13 
ROOT
ATOM      1  N   UNL d   1     -48.935  13.475  23.153  0.00  0.00    -0.289 N 
ATOM      2  N   UNL d   1     -48.233  14.573  22.815  0.00  0.00    -0.227 NA
ATOM      3  C   UNL d   1     -48.188  13.729  22.910  0.00  0.00     0.148 A 
ATOM      4  C   UNL d   1     -49.427  14.110  23.211  0.00  0.00     0.083 A 
ATOM      5  C   UNL d   1     -48.984  14.802  22.998  0.00  0.00     0.099 A 
ATOM      6  C   UNL d   1     -50.217  14.181  23.425  0.00  0.00     0.019 A 
ATOM      7  C   UNL d   1     -49.397  15.517  23.023  0.00  0.00     0.021 A 
ATOM      8  C   UNL d   1     -50.561  14.903  23.430  0.00  0.00     0.002 A 
ATOM      9  C   UNL d   1     -50.133  15.572  23.224  0.00  0.00     0.002 A 
ENDROOT
BRANCH   1  10
ATOM     10  C   UNL d   1     -48.978  12.697  23.265  0.00  0.00     0.088 C 
BRANCH  10  11
ATOM     11  C   UNL d   1     -49.591  12.253  22.967  0.00  0.00     0.052 C 
ATOM     12  C   UNL d   1     -49.632  12.136  22.151  0.00  0.00     0.009 C 
ATOM     13 BR   UNL d   1     -50.169  11.916  23.436  0.00  0.00    -0.048 Br
ENDBRANCH  10  11
ENDBRANCH   1  10
BRANCH   3  14
ATOM     14  C   UNL d   1     -47.521  13.263  22.782  0.00  0.00     0.037 C 
BRANCH  14  15
ATOM     15  C   UNL d   1     -46.782  13.617  22.678  0.00  0.00     0.003 C 
BRANCH  15  16
ATOM     16  C   UNL d   1     -46.103  13.152  22.640  0.00  0.00     0.000 C 
ATOM     17  C   UNL d   1     -45.443  13.419  22.224  0.00  0.00     0.000 C 
ENDBRANCH  15  16
ENDBRANCH  14  15
ENDBRANCH   3  14
TORSDOF 5
ENDMDL
MODEL 2
REMARK VINA RESULT:      -6.9      1.105      2.150
REMARK  5 active torsions:
REMARK  status: ('A' for Active; 'I' for Inactive)
REMARK    1  A    between atoms: C_6  and  N_1 
REMARK    2  A    between atoms: C_10  and  C_3 
REMARK    3  A    between atoms: C_7  and  C_6 
REMARK    4  A    between atoms: C_13  and  C_10 
REMARK    5  A    between atoms: C_14  and  C_13 
ROOT
ATOM      1  N   UNL d   1     -48.942  13.795  23.194  0.00  0.00    -0.289 N 
ATOM      2  N   UNL d   1     -48.387  12.608  22.887  0.00  0.00    -0.227 NA
ATOM      3  C   UNL d   1     -48.236  13.442  22.950  0.00  0.00     0.148 A 
ATOM      4  C   UNL d   1     -49.507  13.229  23.283  0.00  0.00     0.083 A 
ATOM      5  C   UNL d   1     -49.157  12.480  23.089  0.00  0.00     0.099 A 
ATOM      6  C   UNL d   1     -50.296  13.263  23.511  0.00  0.00     0.019 A 
ATOM      7  C   UNL d   1     -49.655  11.823  23.147  0.00  0.00     0.021 A 
ATOM      8  C   UNL d   1     -50.726  12.590  23.548  0.00  0.00     0.002 A 
ATOM      9  C   UNL d   1     -50.388  11.867  23.360  0.00  0.00     0.002 A 
ENDROOT
BRANCH   1  10
ATOM     10  C   UNL d   1     -48.887  14.576  23.278  0.00  0.00     0.088 C 
BRANCH  10  11
ATOM     11  C   UNL d   1     -49.446  15.082  22.974  0.00  0.00     0.052 C 
ATOM     12  C   UNL d   1     -49.505  15.157  22.154  0.00  0.00     0.009 C 
ATOM     13 BR   UNL d   1     -49.953  15.521  23.441  0.00  0.00    -0.048 Br
ENDBRANCH  10  11
ENDBRANCH   1  10
BRANCH   3  14
ATOM     14  C   UNL d   1     -47.520  13.817  22.794  0.00  0.00     0.037 C 
BRANCH  14  15
ATOM     15  C   UNL d   1     -46.832  13.371  22.697  0.00  0.00     0.003 C 
BRANCH  15  16
ATOM     16  C   UNL d   1     -46.103  13.748  22.615  0.00  0.00     0.000 C 
ATOM     17  C   UNL d   1     -45.475  13.357  22.253  0.00  0.00     0.000 C 
ENDBRANCH  15  16
ENDBRANCH  14  15
ENDBRANCH   3  14
TORSDOF 5
ENDMDL
MODEL 3
REMARK VINA RESULT:      -6.9      1.129      1.383
REMARK  5 active torsions:
REMARK  status: ('A' for Active; 'I' for Inactive)
REMARK    1  A    between atoms: C_6  and  N_1 
REMARK    2  A    between atoms: C_10  and  C_3 
REMARK    3  A    between atoms: C_7  and  C_6 
REMARK    4  A    between atoms: C_13  and  C_10 
REMARK    5  A    between atoms: C_14  and  C_13 
ROOT
ATOM      1  N   UNL d   1     -48.836  13.069  23.189  0.00  0.00    -0.289 N 
ATOM      2  N   UNL d   1     -47.582  13.480  22.925  0.00  0.00    -0.227 NA
ATOM      3  C   UNL d   1     -48.050  12.815  23.170  0.00  0.00     0.148 A 
ATOM      4  C   UNL d   1     -48.871  13.843  22.971  0.00  0.00     0.083 A 
ATOM      5  C   UNL d   1     -48.080  14.102  22.805  0.00  0.00     0.099 A 
ATOM      6  C   UNL d   1     -49.498  14.369  22.893  0.00  0.00     0.019 A 
ATOM      7  C   UNL d   1     -48.001  14.891  22.570  0.00  0.00     0.021 A 
ATOM      8  C   UNL d   1     -49.356  15.121  22.661  0.00  0.00     0.002 A 
ATOM      9  C   UNL d   1     -48.592  15.372  22.501  0.00  0.00     0.002 A 
ENDROOT
BRANCH   1  10
ATOM     10  C   UNL d   1     -49.340  12.506  23.409  0.00  0.00     0.088 C 
BRANCH  10  11
ATOM     11  C   UNL d   1     -50.013  12.340  22.982  0.00  0.00     0.052 C 
ATOM     12  C   UNL d   1     -49.931  12.057  22.212  0.00  0.00     0.009 C 
ATOM     13 BR   UNL d   1     -50.767  12.438  23.281  0.00  0.00    -0.048 Br
ENDBRANCH  10  11
ENDBRANCH   1  10
BRANCH   3  14
ATOM     14  C   UNL d   1     -47.766  12.064  23.353  0.00  0.00     0.037 C 
BRANCH  14  15
ATOM     15  C   UNL d   1     -46.961  11.951  23.499  0.00  0.00     0.003 C 
BRANCH  15  16
ATOM     16  C   UNL d   1     -46.678  11.202  23.698  0.00  0.00     0.000 C 
ATOM     17  C   UNL d   1     -45.871  11.041  23.654  0.00  0.00     0.000 C 
ENDBRANCH  15  16
ENDBRANCH  14  15
ENDBRANCH   3  14
TORSDOF 5
ENDMDL
MODEL 4
REMARK VINA RESULT:      -6.1      1.430      3.480
REMARK  5 active torsions:
REMARK  status: ('A' for Active; 'I' for Inactive)
REMARK    1  A    between atoms: C_6  and  N_1 
REMARK    2  A    between atoms: C_10  and  C_3 
REMARK    3  A    between atoms: C_7  and  C_6 
REMARK    4  A    between atoms: C_13  and  C_10 
REMARK    5  A    between atoms: C_14  and  C_13 
ROOT
ATOM      1  N   UNL d   1     -47.952  13.330  22.906  0.00  0.00    -0.289 N 
ATOM      2  N   UNL d   1     -49.189  13.077  23.373  0.00  0.00    -0.227 NA
ATOM      3  C   UNL d   1     -48.689  13.678  23.040  0.00  0.00     0.148 A 
ATOM      4  C   UNL d   1     -47.975  12.559  23.136  0.00  0.00     0.083 A 
ATOM      5  C   UNL d   1     -48.755  12.400  23.431  0.00  0.00     0.099 A 
ATOM      6  C   UNL d   1     -47.411  11.961  23.130  0.00  0.00     0.019 A 
ATOM      7  C   UNL d   1     -48.890  11.629  23.698  0.00  0.00     0.021 A 
ATOM      8  C   UNL d   1     -47.604  11.234  23.402  0.00  0.00     0.002 A 
ATOM      9  C   UNL d   1     -48.357  11.080  23.687  0.00  0.00     0.002 A 
ENDROOT
BRANCH   1  10
ATOM     10  C   UNL d   1     -47.426  13.825  22.594  0.00  0.00     0.088 C 
BRANCH  10  11
ATOM     11  C   UNL d   1     -46.625  13.726  22.700  0.00  0.00     0.052 C 
ATOM     12  C   UNL d   1     -46.267  14.082  23.352  0.00  0.00     0.009 C 
ATOM     13 BR   UNL d   1     -46.158  13.290  22.190  0.00  0.00    -0.048 Br
ENDBRANCH  10  11
ENDBRANCH   1  10
BRANCH   3  14
ATOM     14  C   UNL d   1     -48.907  14.457  22.884  0.00  0.00     0.037 C 
BRANCH  14  15
ATOM     15  C   UNL d   1     -49.537  14.800  23.294  0.00  0.00     0.003 C 
BRANCH  15  16
ATOM     16  C   UNL d   1     -49.796  15.557  23.094  0.00  0.00     0.000 C 
ATOM     17  C   UNL d   1     -50.386  15.922  23.540  0.00  0.00     0.000 C 
ENDBRANCH  15  16
ENDBRANCH  14  15
ENDBRANCH   3  14
TORSDOF 5
ENDMDL
MODEL 5
REMARK VINA RESULT:      -5.3      9.034     10.165
REMARK  5 active torsions:
REMARK  status: ('A' for Active; 'I' for Inactive)
REMARK    1  A    between atoms: C_6  and  N_1 
REMARK    2  A    between atoms: C_10  and  C_3 
REMARK    3  A    between atoms: C_7  and  C_6 
REMARK    4  A    between atoms: C_13  and  C_10 
REMARK    5  A    between atoms: C_14  and  C_13 
ROOT
ATOM      1  N   UNL d   1     -40.148  14.712  18.269  0.00  0.00    -0.289 N 
ATOM      2  N   UNL d   1     -39.366  14.168  19.220  0.00  0.00    -0.227 NA
ATOM      3  C   UNL d   1     -39.547  14.158  18.390  0.00  0.00     0.148 A 
ATOM      4  C   UNL d   1     -40.340  15.055  18.971  0.00  0.00     0.083 A 
ATOM      5  C   UNL d   1     -39.847  14.712  19.571  0.00  0.00     0.099 A 
ATOM      6  C   UNL d   1     -40.889  15.632  19.174  0.00  0.00     0.019 A 
ATOM      7  C   UNL d   1     -39.963  14.996  20.339  0.00  0.00     0.021 A 
ATOM      8  C   UNL d   1     -40.954  15.864  19.937  0.00  0.00     0.002 A 
ATOM      9  C   UNL d   1     -40.478  15.533  20.516  0.00  0.00     0.002 A 
ENDROOT
BRANCH   1  10
ATOM     10  C   UNL d   1     -40.375  14.764  17.517  0.00  0.00     0.088 C 
BRANCH  10  11
ATOM     11  C   UNL d   1     -40.486  15.481  17.149  0.00  0.00     0.052 C 
ATOM     12  C   UNL d   1     -39.822  15.922  16.938  0.00  0.00     0.009 C 
ATOM     13 BR   UNL d   1     -41.225  15.787  16.980  0.00  0.00    -0.048 Br
ENDBRANCH  10  11
ENDBRANCH   1  10
BRANCH   3  14
ATOM     14  C   UNL d   1     -39.187  13.682  17.822  0.00  0.00     0.037 C 
BRANCH  14  15
ATOM     15  C   UNL d   1     -38.699  13.058  18.056  0.00  0.00     0.003 C 
BRANCH  15  16
ATOM     16  C   UNL d   1     -38.314  12.600  17.487  0.00  0.00     0.000 C 
ATOM     17  C   UNL d   1     -37.940  11.899  17.707  0.00  0.00     0.000 C 
ENDBRANCH  15  16
ENDBRANCH  14  15
ENDBRANCH   3  14
TORSDOF 5
ENDMDL
MODEL 6
REMARK VINA RESULT:      -5.1      9.031     10.631
REMARK  5 active torsions:
REMARK  status: ('A' for Active; 'I' for Inactive)
REMARK    1  A    between atoms: C_6  and  N_1 
REMARK    2  A    between atoms: C_10  and  C_3 
REMARK    3  A    between atoms: C_7  and  C_6 
REMARK    4  A    between atoms: C_13  and  C_10 
REMARK    5  A    between atoms: C_14  and  C_13 
ROOT
ATOM      1  N   UNL d   1     -39.652  14.589  18.557  0.00  0.00    -0.289 N 
ATOM      2  N   UNL d   1     -39.771  14.080  17.316  0.00  0.00    -0.227 NA
ATOM      3  C   UNL d   1     -40.069  14.672  17.849  0.00  0.00     0.148 A 
ATOM      4  C   UNL d   1     -39.123  13.987  18.486  0.00  0.00     0.083 A 
ATOM      5  C   UNL d   1     -39.198  13.666  17.704  0.00  0.00     0.099 A 
ATOM      6  C   UNL d   1     -38.573  13.667  19.008  0.00  0.00     0.019 A 
ATOM      7  C   UNL d   1     -38.694  13.036  17.523  0.00  0.00     0.021 A 
ATOM      8  C   UNL d   1     -38.114  13.056  18.772  0.00  0.00     0.002 A 
ATOM      9  C   UNL d   1     -38.187  12.746  18.016  0.00  0.00     0.002 A 
ENDROOT
BRANCH   1  10
ATOM     10  C   UNL d   1     -39.870  15.106  19.109  0.00  0.00     0.088 C 
BRANCH  10  11
ATOM     11  C   UNL d   1     -40.029  14.878  19.874  0.00  0.00     0.052 C 
ATOM     12  C   UNL d   1     -40.711  14.439  20.020  0.00  0.00     0.009 C 
ATOM     13 BR   UNL d   1     -39.545  15.064  20.505  0.00  0.00    -0.048 Br
ENDBRANCH  10  11
ENDBRANCH   1  10
BRANCH   3  14
ATOM     14  C   UNL d   1     -40.661  15.219  17.681  0.00  0.00     0.037 C 
BRANCH  14  15
ATOM     15  C   UNL d   1     -41.015  15.229  16.935  0.00  0.00     0.003 C 
BRANCH  15  16
ATOM     16  C   UNL d   1     -41.363  15.922  16.653  0.00  0.00     0.000 C 
ATOM     17  C   UNL d   1     -42.053  15.882  16.202  0.00  0.00     0.000 C 
ENDBRANCH  15  16
ENDBRANCH  14  15
ENDBRANCH   3  14
TORSDOF 5
ENDMDL
MODEL 7
REMARK VINA RESULT:      -5.0      8.611     10.778
REMARK  5 active torsions:
REMARK  status: ('A' for Active; 'I' for Inactive)
REMARK    1  A    between atoms: C_6  and  N_1 
REMARK    2  A    between atoms: C_10  and  C_3 
REMARK    3  A    between atoms: C_7  and  C_6 
REMARK    4  A    between atoms: C_13  and  C_10 
REMARK    5  A    between atoms: C_14  and  C_13 
ROOT
ATOM      1  N   UNL d   1     -39.673  14.630  17.811  0.00  0.00    -0.289 N 
ATOM      2  N   UNL d   1     -39.533  13.564  18.621  0.00  0.00    -0.227 NA
ATOM      3  C   UNL d   1     -39.905  14.325  18.542  0.00  0.00     0.148 A 
ATOM      4  C   UNL d   1     -39.187  14.105  17.444  0.00  0.00     0.083 A 
ATOM      5  C   UNL d   1     -39.099  13.432  17.955  0.00  0.00     0.099 A 
ATOM      6  C   UNL d   1     -38.800  14.120  16.718  0.00  0.00     0.019 A 
ATOM      7  C   UNL d   1     -38.614  12.825  17.671  0.00  0.00     0.021 A 
ATOM      8  C   UNL d   1     -38.344  13.500  16.501  0.00  0.00     0.002 A 
ATOM      9  C   UNL d   1     -38.259  12.850  16.994  0.00  0.00     0.002 A 
ENDROOT
BRANCH   1  10
ATOM     10  C   UNL d   1     -39.978  15.340  17.660  0.00  0.00     0.088 C 
BRANCH  10  11
ATOM     11  C   UNL d   1     -40.374  15.501  16.968  0.00  0.00     0.052 C 
ATOM     12  C   UNL d   1     -41.148  15.225  16.885  0.00  0.00     0.009 C 
ATOM     13 BR   UNL d   1     -40.044  15.922  16.351  0.00  0.00    -0.048 Br
ENDBRANCH  10  11
ENDBRANCH   1  10
BRANCH   3  14
ATOM     14  C   UNL d   1     -40.400  14.680  19.097  0.00  0.00     0.037 C 
BRANCH  14  15
ATOM     15  C   UNL d   1     -40.433  14.389  19.868  0.00  0.00     0.003 C 
BRANCH  15  16
ATOM     16  C   UNL d   1     -40.866  14.792  20.443  0.00  0.00     0.000 C 
ATOM     17  C   UNL d   1     -41.144  14.389  21.107  0.00  0.00     0.000 C 
ENDBRANCH  15  16
ENDBRANCH  14  15
ENDBRANCH   3  14
TORSDOF 5
ENDMDL
MODEL 8
REMARK VINA RESULT:      -4.9      9.610     10.320
REMARK  5 active torsions:
REMARK  status: ('A' for Active; 'I' for Inactive)
REMARK    1  A    between atoms: C_6  and  N_1 
REMARK    2  A    between atoms: C_10  and  C_3 
REMARK    3  A    between atoms: C_7  and  C_6 
REMARK    4  A    between atoms: C_13  and  C_10 
REMARK    5  A    between atoms: C_14  and  C_13 
ROOT
ATOM      1  N   UNL d   1     -39.625  14.362  18.357  0.00  0.00    -0.289 N 
ATOM      2  N   UNL d   1     -40.191  15.272  19.171  0.00  0.00    -0.227 NA
ATOM      3  C   UNL d   1     -39.650  14.617  19.142  0.00  0.00     0.148 A 
ATOM      4  C   UNL d   1     -40.114  14.820  17.912  0.00  0.00     0.083 A 
ATOM      5  C   UNL d   1     -40.471  15.394  18.426  0.00  0.00     0.099 A 
ATOM      6  C   UNL d   1     -40.302  14.817  17.111  0.00  0.00     0.019 A 
ATOM      7  C   UNL d   1     -40.997  15.922  18.067  0.00  0.00     0.021 A 
ATOM      8  C   UNL d   1     -40.819  15.355  16.825  0.00  0.00     0.002 A 
ATOM      9  C   UNL d   1     -41.164  15.909  17.321  0.00  0.00     0.002 A 
ENDROOT
BRANCH   1  10
ATOM     10  C   UNL d   1     -39.142  13.751  18.243  0.00  0.00     0.088 C 
BRANCH  10  11
ATOM     11  C   UNL d   1     -38.582  13.748  17.653  0.00  0.00     0.052 C 
ATOM     12  C   UNL d   1     -37.940  14.262  17.718  0.00  0.00     0.009 C 
ATOM     13 BR   UNL d   1     -38.624  13.261  16.999  0.00  0.00    -0.048 Br
ENDBRANCH  10  11
ENDBRANCH   1  10
BRANCH   3  14
ATOM     14  C   UNL d   1     -39.236  14.302  19.781  0.00  0.00     0.037 C 
BRANCH  14  15
ATOM     15  C   UNL d   1     -39.540  14.372  20.545  0.00  0.00     0.003 C 
BRANCH  15  16
ATOM     16  C   UNL d   1     -39.094  14.118  21.192  0.00  0.00     0.000 C 
ATOM     17  C   UNL d   1     -39.459  13.997  21.921  0.00  0.00     0.000 C 
ENDBRANCH  15  16
ENDBRANCH  14  15
ENDBRANCH   3  14
TORSDOF 5
ENDMDL
MODEL 9
REMARK VINA RESULT:      -4.8      8.759     10.060
REMARK  5 active torsions:
REMARK  status: ('A' for Active; 'I' for Inactive)
REMARK    1  A    between atoms: C_6  and  N_1 
REMARK    2  A    between atoms: C_10  and  C_3 
REMARK    3  A    between atoms: C_7  and  C_6 
REMARK    4  A    between atoms: C_13  and  C_10 
REMARK    5  A    between atoms: C_14  and  C_13 
ROOT
ATOM      1  N   UNL d   1     -39.745  14.772  18.700  0.00  0.00    -0.289 N 
ATOM      2  N   UNL d   1     -40.988  15.211  18.971  0.00  0.00    -0.227 NA
ATOM      3  C   UNL d   1     -40.420  15.094  18.350  0.00  0.00     0.148 A 
ATOM      4  C   UNL d   1     -39.869  14.688  19.490  0.00  0.00     0.083 A 
ATOM      5  C   UNL d   1     -40.653  14.965  19.661  0.00  0.00     0.099 A 
ATOM      6  C   UNL d   1     -39.396  14.402  20.099  0.00  0.00     0.019 A 
ATOM      7  C   UNL d   1     -40.886  14.923  20.453  0.00  0.00     0.021 A 
ATOM      8  C   UNL d   1     -39.680  14.387  20.847  0.00  0.00     0.002 A 
ATOM      9  C   UNL d   1     -40.437  14.654  21.011  0.00  0.00     0.002 A 
ENDROOT
BRANCH   1  10
ATOM     10  C   UNL d   1     -39.164  14.632  18.187  0.00  0.00     0.088 C 
BRANCH  10  11
ATOM     11  C   UNL d   1     -38.733  13.942  18.201  0.00  0.00     0.052 C 
ATOM     12  C   UNL d   1     -37.993  13.949  18.565  0.00  0.00     0.009 C 
ATOM     13 BR   UNL d   1     -38.998  13.243  17.873  0.00  0.00    -0.048 Br
ENDBRANCH  10  11
ENDBRANCH   1  10
BRANCH   3  14
ATOM     14  C   UNL d   1     -40.531  15.271  17.552  0.00  0.00     0.037 C 
BRANCH  14  15
ATOM     15  C   UNL d   1     -41.194  15.701  17.313  0.00  0.00     0.003 C 
BRANCH  15  16
ATOM     16  C   UNL d   1     -41.303  15.881  16.516  0.00  0.00     0.000 C 
ATOM     17  C   UNL d   1     -42.065  15.922  16.203  0.00  0.00     0.000 C 
ENDBRANCH  15  16
ENDBRANCH  14  15
ENDBRANCH   3  14
TORSDOF 5
ENDMDL
