MODEL 1
REMARK VINA RESULT:      -6.4      0.000      0.000
REMARK  6 active torsions:
REMARK  status: ('A' for Active; 'I' for Inactive)
REMARK    1  A    between atoms: C_6  and  C_1 
REMARK    2  A    between atoms: C_9  and  N_3 
REMARK       I    between atoms: N_7  and  C_6 
REMARK    3  A    between atoms: C_8  and  N_7 
REMARK    4  A    between atoms: C_10  and  C_9 
REMARK    5  A    between atoms: O_25  and  C_15 
REMARK    6  A    between atoms: O_26  and  C_20 
ROOT
ATOM      1  C   UNL d   1     -47.136  13.674  22.941  0.00  0.00     0.199 A 
ATOM      2  C   UNL d   1     -46.670  13.364  22.340  0.00  0.00     0.211 A 
ATOM      3  N   UNL d   1     -45.931  13.192  22.656  0.00  0.00    -0.190 N 
ATOM      4  N   UNL d   1     -46.687  13.695  23.634  0.00  0.00    -0.122 NA
ATOM      5  N   UNL d   1     -45.931  13.394  23.458  0.00  0.00    -0.058 NA
ATOM      6  N   UNL d   1     -46.902  13.246  21.559  0.00  0.00    -0.125 N 
ENDROOT
BRANCH   1   7
ATOM      7  C   UNL d   1     -47.916  13.922  22.871  0.00  0.00     0.302 C 
ATOM      8  N   UNL d   1     -48.527  13.453  23.168  0.00  0.00    -0.204 NA
ATOM      9  O   UNL d   1     -48.090  14.644  22.503  0.00  0.00    -0.263 OA
BRANCH   8  10
ATOM     10  C   UNL d   1     -49.312  13.707  23.095  0.00  0.00     0.109 A 
ATOM     11  C   UNL d   1     -49.489  14.513  23.093  0.00  0.00     0.045 A 
ATOM     12  C   UNL d   1     -50.266  14.763  23.021  0.00  0.00     0.096 A 
ATOM     13  C   UNL d   1     -50.877  14.214  22.951  0.00  0.00     0.026 A 
ATOM     14  C   UNL d   1     -50.701  13.401  22.953  0.00  0.00     0.028 A 
ATOM     15  C   UNL d   1     -49.915  13.153  23.025  0.00  0.00     0.112 A 
BRANCH  12  16
ATOM     16  O   UNL d   1     -50.443  15.570  23.018  0.00  0.00    -0.328 OA
ATOM     17  C   UNL d   1     -50.776  15.921  23.676  0.00  0.00     0.181 C 
ENDBRANCH  12  16
BRANCH  15  18
ATOM     18  O   UNL d   1     -49.734  12.356  23.028  0.00  0.00    -0.327 OA
ATOM     19  C   UNL d   1     -50.301  11.798  23.251  0.00  0.00     0.181 C 
ENDBRANCH  15  18
ENDBRANCH   8  10
ENDBRANCH   1   7
BRANCH   3  20
ATOM     20  C   UNL d   1     -45.293  12.872  22.250  0.00  0.00     0.106 C 
BRANCH  20  21
ATOM     21  C   UNL d   1     -44.894  12.210  22.544  0.00  0.00     0.047 A 
ATOM     22  C   UNL d   1     -44.111  12.081  22.346  0.00  0.00     0.142 A 
ATOM     23  C   UNL d   1     -43.715  11.419  22.642  0.00  0.00     0.036 A 
ATOM     24  F   UNL d   1     -43.713  12.606  21.855  0.00  0.00    -0.204 F 
ATOM     25  C   UNL d   1     -44.106  10.884  23.137  0.00  0.00     0.037 A 
ATOM     26  C   UNL d   1     -44.905  11.022  23.335  0.00  0.00     0.007 A 
ATOM     27 BR   UNL d   1     -43.718  10.221  23.436  0.00  0.00    -0.049 Br
ATOM     28  C   UNL d   1     -45.292  11.686  23.035  0.00  0.00     0.004 A 
ENDBRANCH  20  21
ENDBRANCH   3  20
TORSDOF 6
ENDMDL
MODEL 2
REMARK VINA RESULT:      -6.4      2.677      5.570
REMARK  6 active torsions:
REMARK  status: ('A' for Active; 'I' for Inactive)
REMARK    1  A    between atoms: C_6  and  C_1 
REMARK    2  A    between atoms: C_9  and  N_3 
REMARK       I    between atoms: N_7  and  C_6 
REMARK    3  A    between atoms: C_8  and  N_7 
REMARK    4  A    between atoms: C_10  and  C_9 
REMARK    5  A    between atoms: O_25  and  C_15 
REMARK    6  A    between atoms: O_26  and  C_20 
ROOT
ATOM      1  C   UNL d   1     -46.836  13.252  22.896  0.00  0.00     0.199 A 
ATOM      2  C   UNL d   1     -47.471  13.259  22.376  0.00  0.00     0.211 A 
ATOM      3  N   UNL d   1     -48.150  13.432  22.807  0.00  0.00    -0.190 N 
ATOM      4  N   UNL d   1     -47.117  13.420  23.654  0.00  0.00    -0.122 NA
ATOM      5  N   UNL d   1     -47.941  13.533  23.601  0.00  0.00    -0.058 NA
ATOM      6  N   UNL d   1     -47.436  13.119  21.566  0.00  0.00    -0.125 N 
ENDROOT
BRANCH   1   7
ATOM      7  C   UNL d   1     -46.051  13.103  22.702  0.00  0.00     0.302 C 
ATOM      8  N   UNL d   1     -45.735  12.348  22.808  0.00  0.00    -0.204 NA
ATOM      9  O   UNL d   1     -45.577  13.712  22.399  0.00  0.00    -0.263 OA
BRANCH   8  10
ATOM     10  C   UNL d   1     -44.944  12.202  22.611  0.00  0.00     0.109 A 
ATOM     11  C   UNL d   1     -44.560  12.677  22.056  0.00  0.00     0.045 A 
ATOM     12  C   UNL d   1     -43.778  12.532  21.861  0.00  0.00     0.096 A 
ATOM     13  C   UNL d   1     -43.367  11.913  22.218  0.00  0.00     0.026 A 
ATOM     14  C   UNL d   1     -43.751  11.433  22.778  0.00  0.00     0.028 A 
ATOM     15  C   UNL d   1     -44.541  11.583  22.971  0.00  0.00     0.112 A 
BRANCH  12  16
ATOM     16  O   UNL d   1     -43.394  13.007  21.305  0.00  0.00    -0.328 OA
ATOM     17  C   UNL d   1     -42.581  12.983  21.234  0.00  0.00     0.181 C 
ENDBRANCH  12  16
BRANCH  15  18
ATOM     18  O   UNL d   1     -44.926  11.116  23.521  0.00  0.00    -0.327 OA
ATOM     19  C   UNL d   1     -44.672  10.344  23.666  0.00  0.00     0.181 C 
ENDBRANCH  15  18
ENDBRANCH   8  10
ENDBRANCH   1   7
BRANCH   3  20
ATOM     20  C   UNL d   1     -48.911  13.495  22.508  0.00  0.00     0.106 C 
BRANCH  20  21
ATOM     21  C   UNL d   1     -49.437  14.059  22.807  0.00  0.00     0.047 A 
ATOM     22  C   UNL d   1     -50.164  13.827  23.102  0.00  0.00     0.142 A 
ATOM     23  C   UNL d   1     -50.687  14.393  23.400  0.00  0.00     0.036 A 
ATOM     24  F   UNL d   1     -50.379  13.034  23.104  0.00  0.00    -0.204 F 
ATOM     25  C   UNL d   1     -50.480  15.193  23.402  0.00  0.00     0.037 A 
ATOM     26  C   UNL d   1     -49.738  15.423  23.100  0.00  0.00     0.007 A 
ATOM     27 BR   UNL d   1     -50.997  15.764  23.698  0.00  0.00    -0.049 Br
ATOM     28  C   UNL d   1     -49.221  14.851  22.804  0.00  0.00     0.004 A 
ENDBRANCH  20  21
ENDBRANCH   3  20
TORSDOF 6
ENDMDL
MODEL 3
REMARK VINA RESULT:      -4.5      1.318      2.129
REMARK  6 active torsions:
REMARK  status: ('A' for Active; 'I' for Inactive)
REMARK    1  A    between atoms: C_6  and  C_1 
REMARK    2  A    between atoms: C_9  and  N_3 
REMARK       I    between atoms: N_7  and  C_6 
REMARK    3  A    between atoms: C_8  and  N_7 
REMARK    4  A    between atoms: C_10  and  C_9 
REMARK    5  A    between atoms: O_25  and  C_15 
REMARK    6  A    between atoms: O_26  and  C_20 
ROOT
ATOM      1  C   UNL d   1     -46.739  13.112  22.981  0.00  0.00     0.199 A 
ATOM      2  C   UNL d   1     -46.358  12.462  22.656  0.00  0.00     0.211 A 
ATOM      3  N   UNL d   1     -45.565  12.656  22.558  0.00  0.00    -0.190 N 
ATOM      4  N   UNL d   1     -46.184  13.714  23.087  0.00  0.00    -0.122 NA
ATOM      5  N   UNL d   1     -45.447  13.431  22.823  0.00  0.00    -0.058 NA
ATOM      6  N   UNL d   1     -46.707  11.743  22.461  0.00  0.00    -0.125 N 
ENDROOT
BRANCH   1   7
ATOM      7  C   UNL d   1     -47.538  13.162  23.171  0.00  0.00     0.302 C 
ATOM      8  N   UNL d   1     -48.005  13.754  22.837  0.00  0.00    -0.204 NA
ATOM      9  O   UNL d   1     -47.873  12.616  23.698  0.00  0.00    -0.263 OA
BRANCH   8  10
ATOM     10  C   UNL d   1     -48.810  13.800  23.031  0.00  0.00     0.109 A 
ATOM     11  C   UNL d   1     -49.228  13.118  23.233  0.00  0.00     0.045 A 
ATOM     12  C   UNL d   1     -50.022  13.165  23.425  0.00  0.00     0.096 A 
ATOM     13  C   UNL d   1     -50.412  13.892  23.418  0.00  0.00     0.026 A 
ATOM     14  C   UNL d   1     -49.993  14.580  23.215  0.00  0.00     0.028 A 
ATOM     15  C   UNL d   1     -49.190  14.528  23.023  0.00  0.00     0.112 A 
BRANCH  12  16
ATOM     16  O   UNL d   1     -50.442  12.482  23.627  0.00  0.00    -0.328 OA
ATOM     17  C   UNL d   1     -51.064  12.228  23.164  0.00  0.00     0.181 C 
ENDBRANCH  12  16
BRANCH  15  18
ATOM     18  O   UNL d   1     -48.770  15.201  22.822  0.00  0.00    -0.327 OA
ATOM     19  C   UNL d   1     -49.166  15.890  22.598  0.00  0.00     0.181 C 
ENDBRANCH  15  18
ENDBRANCH   8  10
ENDBRANCH   1   7
BRANCH   3  20
ATOM     20  C   UNL d   1     -44.981  12.168  22.250  0.00  0.00     0.106 C 
BRANCH  20  21
ATOM     21  C   UNL d   1     -44.280  12.488  21.949  0.00  0.00     0.047 A 
ATOM     22  C   UNL d   1     -43.562  12.135  22.119  0.00  0.00     0.142 A 
ATOM     23  C   UNL d   1     -42.863  12.456  21.817  0.00  0.00     0.036 A 
ATOM     24  F   UNL d   1     -43.529  11.462  22.590  0.00  0.00    -0.204 F 
ATOM     25  C   UNL d   1     -42.885  13.133  21.343  0.00  0.00     0.037 A 
ATOM     26  C   UNL d   1     -43.621  13.488  21.173  0.00  0.00     0.007 A 
ATOM     27 BR   UNL d   1     -42.192  13.460  21.037  0.00  0.00    -0.049 Br
ATOM     28  C   UNL d   1     -44.313  13.160  21.479  0.00  0.00     0.004 A 
ENDBRANCH  20  21
ENDBRANCH   3  20
TORSDOF 6
ENDMDL
