MODEL 1
REMARK VINA RESULT:      27.7      0.000      0.000
REMARK  5 active torsions:
REMARK  status: ('A' for Active; 'I' for Inactive)
REMARK    1  A    between atoms: S_10  and  C_5 
REMARK    2  A    between atoms: C_14  and  N_9 
REMARK    3  A    between atoms: C_17  and  S_10 
REMARK    4  A    between atoms: C_15  and  C_14 
REMARK    5  A    between atoms: C_19  and  C_17 
ROOT
ATOM      1  C   UNL d   1      46.304 -17.999  42.423  0.00  0.00     0.174 A 
ATOM      2  N   UNL d   1      46.246 -17.230  42.682  0.00  0.00    -0.203 NA
ATOM      3  C   UNL d   1      46.178 -18.495  43.071  0.00  0.00     0.159 A 
ATOM      4  N   UNL d   1      46.454 -18.330  41.691  0.00  0.00    -0.239 N 
ATOM      5  C   UNL d   1      46.084 -17.255  43.491  0.00  0.00     0.181 A 
ATOM      6  C   UNL d   1      46.485 -19.159  41.572  0.00  0.00     0.358 A 
ATOM      7  N   UNL d   1      46.359 -19.654  42.220  0.00  0.00    -0.152 NA
ATOM      8  C   UNL d   1      46.202 -19.320  42.986  0.00  0.00     0.302 A 
ATOM      9  N   UNL d   1      46.026 -18.015  43.812  0.00  0.00    -0.279 N 
ATOM     10  O   UNL d   1      46.636 -19.499  40.832  0.00  0.00    -0.244 OA
ATOM     11  O   UNL d   1      46.076 -19.815  43.634  0.00  0.00    -0.263 OA
ATOM     12  C   UNL d   1      46.580 -17.835  41.043  0.00  0.00     0.105 C 
ENDROOT
BRANCH   5  13
ATOM     13  S   UNL d   1      46.018 -16.498  43.787  0.00  0.00    -0.049 SA
BRANCH  13  14
ATOM     14  C   UNL d   1      45.442 -16.081  44.203  0.00  0.00     0.038 C 
BRANCH  14  15
ATOM     15  C   UNL d   1      45.558 -15.285  44.385  0.00  0.00     0.007 A 
ATOM     16  C   UNL d   1      46.314 -14.960  44.347  0.00  0.00     0.003 A 
ATOM     17  C   UNL d   1      46.433 -14.168  44.528  0.00  0.00     0.030 A 
ATOM     18  C   UNL d   1      45.790 -13.693  44.750  0.00  0.00     0.140 A 
ATOM     19  C   UNL d   1      45.036 -14.019  44.787  0.00  0.00     0.030 A 
ATOM     20  F   UNL d   1      45.907 -12.896  44.932  0.00  0.00    -0.204 F 
ATOM     21  C   UNL d   1      44.920 -14.815  44.605  0.00  0.00     0.003 A 
ENDBRANCH  14  15
ENDBRANCH  13  14
ENDBRANCH   5  13
BRANCH   9  22
ATOM     22  C   UNL d   1      45.875 -18.270  44.575  0.00  0.00     0.082 C 
BRANCH  22  23
ATOM     23  C   UNL d   1      45.184 -18.021  44.953  0.00  0.00     0.019 C 
ATOM     24  C   UNL d   1      44.453 -18.148  44.600  0.00  0.00     0.002 C 
ENDBRANCH  22  23
ENDBRANCH   9  22
TORSDOF 5
ENDMDL
