MODEL 1
REMARK VINA RESULT:      36.3      0.000      0.000
REMARK  5 active torsions:
REMARK  status: ('A' for Active; 'I' for Inactive)
REMARK    1  A    between atoms: C_2  and  C_1 
REMARK    2  A    between atoms: C_8  and  C_2 
REMARK    3  A    between atoms: O_18  and  C_7 
REMARK    4  A    between atoms: C_13  and  C_8 
REMARK    5  A    between atoms: O_20  and  C_11 
ROOT
ATOM      1  C   UNL d   1     -51.372  24.909  33.399  0.00  0.00     0.202 C 
ATOM      2  O   UNL d   1     -50.651  24.517  33.478  0.00  0.00    -0.286 OA
ENDROOT
BRANCH   1   3
ATOM      3  C   UNL d   1     -52.077  24.482  33.406  0.00  0.00     0.117 A 
ATOM      4  C   UNL d   1     -52.800  24.881  33.363  0.00  0.00     0.205 A 
ATOM      5  C   UNL d   1     -53.505  24.458  33.369  0.00  0.00     0.084 A 
ATOM      6  O   UNL d   1     -52.821  25.705  33.314  0.00  0.00    -0.286 OA
ATOM      7  C   UNL d   1     -53.493  23.634  33.418  0.00  0.00     0.202 A 
ATOM      8  C   UNL d   1     -52.775  23.234  33.460  0.00  0.00     0.084 A 
ATOM      9  O   UNL d   1     -54.207  23.210  33.424  0.00  0.00    -0.286 OA
ATOM     10  C   UNL d   1     -52.064  23.659  33.454  0.00  0.00     0.205 A 
ATOM     11  O   UNL d   1     -51.346  23.259  33.497  0.00  0.00    -0.286 OA
ENDBRANCH   1   3
BRANCH   1  12
ATOM     12  C   UNL d   1     -51.385  25.724  33.314  0.00  0.00     0.042 C 
BRANCH  12  13
ATOM     13  C   UNL d   1     -50.729  26.175  33.526  0.00  0.00     0.005 A 
ATOM     14  C   UNL d   1     -49.976  25.842  33.496  0.00  0.00     0.026 A 
ATOM     15  C   UNL d   1     -49.321  26.293  33.708  0.00  0.00     0.116 A 
ATOM     16  C   UNL d   1     -49.418  27.076  33.949  0.00  0.00     0.116 A 
ATOM     17  C   UNL d   1     -50.174  27.408  33.978  0.00  0.00     0.026 A 
ATOM     18  C   UNL d   1     -50.829  26.949  33.764  0.00  0.00     0.002 A 
BRANCH  15  19
ATOM     19  O   UNL d   1     -48.560  25.960  33.679  0.00  0.00    -0.326 OA
ATOM     20  C   UNL d   1     -48.446  25.221  33.337  0.00  0.00     0.181 C 
ENDBRANCH  15  19
BRANCH  16  21
ATOM     21  O   UNL d   1     -48.763  27.538  34.164  0.00  0.00    -0.326 OA
ATOM     22  C   UNL d   1     -48.674  27.807  34.930  0.00  0.00     0.181 C 
ENDBRANCH  16  21
ENDBRANCH  12  13
ENDBRANCH   1  12
TORSDOF 5
ENDMDL
