MODEL 1
REMARK VINA RESULT:      -4.3      0.000      0.000
REMARK  2 active torsions:
REMARK  status: ('A' for Active; 'I' for Inactive)
REMARK       I    between atoms: N_2  and  C_1 
REMARK    1  A    between atoms: C_4  and  C_1 
REMARK    2  A    between atoms: C_3  and  N_2 
ROOT
ATOM      1  C   UNL d   1     -41.800-122.927 -51.279  0.00  0.00     0.085 A 
ATOM      2  C   UNL d   1     -42.227-123.042 -49.930  0.00  0.00     0.002 A 
ATOM      3  C   UNL d   1     -42.304-122.712 -50.683  0.00  0.00     0.018 A 
ATOM      4  C   UNL d   1     -41.643-123.590 -49.773  0.00  0.00     0.000 A 
ATOM      5  C   UNL d   1     -42.736-122.827 -49.326  0.00  0.00     0.000 A 
ATOM      6  C   UNL d   1     -41.200-123.484 -51.131  0.00  0.00     0.019 A 
ATOM      7  C   UNL d   1     -41.123-123.815 -50.376  0.00  0.00     0.002 A 
ATOM      8  C   UNL d   1     -41.703-123.817 -48.983  0.00  0.00     0.000 A 
ATOM      9  C   UNL d   1     -42.526-123.241 -48.650  0.00  0.00     0.000 A 
ATOM     10  C   UNL d   1     -42.891-122.163 -50.840  0.00  0.00     0.002 A 
ATOM     11  C   UNL d   1     -43.421-121.932 -50.227  0.00  0.00     0.000 A 
ATOM     12  C   UNL d   1     -43.344-122.262 -49.474  0.00  0.00     0.000 A 
ENDROOT
BRANCH   1  13
ATOM     13  N   UNL d   1     -41.876-122.599 -52.026  0.00  0.00    -0.206 NA
ATOM     14  C   UNL d   1     -41.525-122.970 -52.652  0.00  0.00     0.302 C 
ATOM     15  O   UNL d   1     -41.139-123.608 -52.509  0.00  0.00    -0.263 OA
BRANCH  14  16
ATOM     16  C   UNL d   1     -41.563-122.692 -53.431  0.00  0.00     0.158 A 
ATOM     17  O   UNL d   1     -41.793-121.933 -53.638  0.00  0.00    -0.300 OA
ATOM     18  C   UNL d   1     -41.757-121.875 -54.480  0.00  0.00     0.123 A 
ATOM     19  C   UNL d   1     -41.510-122.589 -54.774  0.00  0.00     0.029 A 
ATOM     20  C   UNL d   1     -41.383-123.112 -54.146  0.00  0.00     0.032 A 
ENDBRANCH  14  16
ENDBRANCH   1  13
TORSDOF 2
ENDMDL
