MODEL 1
REMARK VINA RESULT:      -9.4      0.000      0.000
REMARK  4 active torsions:
REMARK  status: ('A' for Active; 'I' for Inactive)
REMARK    1  A    between atoms: N_2  and  S_1 
REMARK    2  A    between atoms: C_6  and  S_1 
REMARK       I    between atoms: C_3  and  N_5 
REMARK    3  A    between atoms: C_7  and  C_3 
REMARK    4  A    between atoms: C_4  and  C_8 
ROOT
ATOM      1  N   UNL d   1      53.410  33.455  54.222  0.00  0.00    -0.226 N 
ATOM      2  C   UNL d   1      54.038  31.224  53.387  0.00  0.00     0.288 C 
ATOM      3  N   UNL d   1      53.832  31.970  53.664  0.00  0.00    -0.267 N 
ATOM      4  C   UNL d   1      52.927  32.804  54.373  0.00  0.00     0.111 A 
ATOM      5  C   UNL d   1      54.113  33.358  53.786  0.00  0.00     0.111 A 
ATOM      6  C   UNL d   1      54.319  32.611  53.509  0.00  0.00     0.103 A 
ATOM      7  C   UNL d   1      53.141  32.069  54.093  0.00  0.00     0.103 A 
ATOM      8  O   UNL d   1      54.734  31.122  52.954  0.00  0.00    -0.264 OA
ENDROOT
BRANCH   1   9
ATOM      9  S   UNL d   1      53.207  34.191  54.495  0.00  0.00     0.271 S 
ATOM     10  O   UNL d   1      53.000  34.938  54.773  0.00  0.00    -0.200 OA
ATOM     11  O   UNL d   1      53.632  34.059  55.178  0.00  0.00    -0.200 OA
BRANCH   9  12
ATOM     12  C   UNL d   1      52.776  34.327  53.807  0.00  0.00     0.104 A 
ATOM     13  C   UNL d   1      51.963  34.188  53.787  0.00  0.00     0.017 A 
ATOM     14  C   UNL d   1      51.532  34.324  53.099  0.00  0.00     0.072 A 
ATOM     15  C   UNL d   1      51.911  34.602  52.425  0.00  0.00     0.004 A 
ATOM     16  C   UNL d   1      52.727  34.745  52.435  0.00  0.00     0.001 A 
ATOM     17  C   UNL d   1      53.162  34.607  53.130  0.00  0.00     0.013 A 
BRANCH  14  18
ATOM     18  C   UNL d   1      50.723  34.183  53.085  0.00  0.00     0.419 C 
ATOM     19  F   UNL d   1      50.081  34.735  53.205  0.00  0.00    -0.166 F 
ATOM     20  F   UNL d   1      50.301  33.448  52.947  0.00  0.00    -0.166 F 
ATOM     21  F   UNL d   1      49.982  34.058  53.073  0.00  0.00    -0.166 F 
ENDBRANCH  14  18
ENDBRANCH   9  12
ENDBRANCH   1   9
BRANCH   2  22
ATOM     22  C   UNL d   1      53.554  30.575  53.539  0.00  0.00     0.156 A 
ATOM     23  O   UNL d   1      53.587  30.083  54.203  0.00  0.00    -0.300 OA
ATOM     24  C   UNL d   1      53.008  29.511  54.129  0.00  0.00     0.123 A 
ATOM     25  C   UNL d   1      52.607  29.642  53.415  0.00  0.00     0.029 A 
ATOM     26  C   UNL d   1      52.945  30.302  53.048  0.00  0.00     0.032 A 
ENDBRANCH   2  22
TORSDOF 4
ENDMDL
MODEL 2
REMARK VINA RESULT:      -8.9      1.907      3.792
REMARK  4 active torsions:
REMARK  status: ('A' for Active; 'I' for Inactive)
REMARK    1  A    between atoms: N_2  and  S_1 
REMARK    2  A    between atoms: C_6  and  S_1 
REMARK       I    between atoms: C_3  and  N_5 
REMARK    3  A    between atoms: C_7  and  C_3 
REMARK    4  A    between atoms: C_4  and  C_8 
ROOT
ATOM      1  N   UNL d   1      53.338  33.199  54.331  0.00  0.00    -0.226 N 
ATOM      2  C   UNL d   1      52.064  34.595  52.750  0.00  0.00     0.288 C 
ATOM      3  N   UNL d   1      52.493  34.131  53.277  0.00  0.00    -0.267 N 
ATOM      4  C   UNL d   1      52.528  33.078  54.229  0.00  0.00     0.111 A 
ATOM      5  C   UNL d   1      53.725  33.795  53.898  0.00  0.00     0.111 A 
ATOM      6  C   UNL d   1      53.296  34.259  53.371  0.00  0.00     0.103 A 
ATOM      7  C   UNL d   1      52.113  33.544  53.704  0.00  0.00     0.103 A 
ATOM      8  O   UNL d   1      52.443  35.187  52.318  0.00  0.00    -0.264 OA
ENDROOT
BRANCH   1   9
ATOM      9  S   UNL d   1      53.760  32.742  54.850  0.00  0.00     0.271 S 
ATOM     10  O   UNL d   1      54.190  32.278  55.378  0.00  0.00    -0.200 OA
ATOM     11  O   UNL d   1      53.644  33.295  55.438  0.00  0.00    -0.200 OA
BRANCH   9  12
ATOM     12  C   UNL d   1      53.880  32.181  54.260  0.00  0.00     0.104 A 
ATOM     13  C   UNL d   1      53.446  31.479  54.255  0.00  0.00     0.017 A 
ATOM     14  C   UNL d   1      53.565  30.918  53.665  0.00  0.00     0.072 A 
ATOM     15  C   UNL d   1      54.119  31.054  53.073  0.00  0.00     0.004 A 
ATOM     16  C   UNL d   1      54.559  31.756  53.070  0.00  0.00     0.001 A 
ATOM     17  C   UNL d   1      54.439  32.323  53.666  0.00  0.00     0.013 A 
BRANCH  14  18
ATOM     18  C   UNL d   1      53.130  30.221  53.665  0.00  0.00     0.419 C 
ATOM     19  F   UNL d   1      53.296  29.486  54.070  0.00  0.00    -0.166 F 
ATOM     20  F   UNL d   1      52.394  30.039  53.262  0.00  0.00    -0.166 F 
ATOM     21  F   UNL d   1      52.735  29.582  53.667  0.00  0.00    -0.166 F 
ENDBRANCH  14  18
ENDBRANCH   9  12
ENDBRANCH   1   9
BRANCH   2  22
ATOM     22  C   UNL d   1      51.255  34.472  52.650  0.00  0.00     0.156 A 
ATOM     23  O   UNL d   1      50.653  34.730  53.155  0.00  0.00    -0.300 OA
ATOM     24  C   UNL d   1      49.936  34.488  52.847  0.00  0.00     0.123 A 
ATOM     25  C   UNL d   1      50.085  34.075  52.144  0.00  0.00     0.029 A 
ATOM     26  C   UNL d   1      50.904  34.064  52.021  0.00  0.00     0.032 A 
ENDBRANCH   2  22
TORSDOF 4
ENDMDL
MODEL 3
REMARK VINA RESULT:      -8.8      2.438      2.913
REMARK  4 active torsions:
REMARK  status: ('A' for Active; 'I' for Inactive)
REMARK    1  A    between atoms: N_2  and  S_1 
REMARK    2  A    between atoms: C_6  and  S_1 
REMARK       I    between atoms: C_3  and  N_5 
REMARK    3  A    between atoms: C_7  and  C_3 
REMARK    4  A    between atoms: C_4  and  C_8 
ROOT
ATOM      1  N   UNL d   1      52.816  32.431  53.560  0.00  0.00    -0.226 N 
ATOM      2  C   UNL d   1      52.955  29.994  53.222  0.00  0.00     0.288 C 
ATOM      3  N   UNL d   1      52.908  30.809  53.331  0.00  0.00    -0.267 N 
ATOM      4  C   UNL d   1      52.959  31.931  54.199  0.00  0.00     0.111 A 
ATOM      5  C   UNL d   1      52.718  32.112  52.798  0.00  0.00     0.111 A 
ATOM      6  C   UNL d   1      52.765  31.297  52.689  0.00  0.00     0.103 A 
ATOM      7  C   UNL d   1      53.004  31.125  54.080  0.00  0.00     0.103 A 
ATOM      8  O   UNL d   1      52.859  29.673  52.468  0.00  0.00    -0.264 OA
ENDROOT
BRANCH   1   9
ATOM      9  S   UNL d   1      52.770  33.233  53.667  0.00  0.00     0.271 S 
ATOM     10  O   UNL d   1      52.722  34.048  53.776  0.00  0.00    -0.200 OA
ATOM     11  O   UNL d   1      51.959  33.201  53.590  0.00  0.00    -0.200 OA
BRANCH   9  12
ATOM     12  C   UNL d   1      53.588  33.270  53.746  0.00  0.00     0.104 A 
ATOM     13  C   UNL d   1      53.932  33.414  54.482  0.00  0.00     0.017 A 
ATOM     14  C   UNL d   1      54.751  33.451  54.560  0.00  0.00     0.072 A 
ATOM     15  C   UNL d   1      55.233  33.345  53.903  0.00  0.00     0.004 A 
ATOM     16  C   UNL d   1      54.896  33.199  53.160  0.00  0.00     0.001 A 
ATOM     17  C   UNL d   1      54.070  33.162  53.081  0.00  0.00     0.013 A 
BRANCH  14  18
ATOM     18  C   UNL d   1      55.088  33.595  55.295  0.00  0.00     0.419 C 
ATOM     19  F   UNL d   1      55.657  34.195  55.516  0.00  0.00    -0.166 F 
ATOM     20  F   UNL d   1      54.964  33.186  56.040  0.00  0.00    -0.166 F 
ATOM     21  F   UNL d   1      55.398  33.729  55.967  0.00  0.00    -0.166 F 
ENDBRANCH  14  18
ENDBRANCH   9  12
ENDBRANCH   1   9
BRANCH   2  22
ATOM     22  C   UNL d   1      53.098  29.497  53.863  0.00  0.00     0.156 A 
ATOM     23  O   UNL d   1      52.535  29.208  54.396  0.00  0.00    -0.300 OA
ATOM     24  C   UNL d   1      52.915  28.736  54.943  0.00  0.00     0.123 A 
ATOM     25  C   UNL d   1      53.723  28.725  54.756  0.00  0.00     0.029 A 
ATOM     26  C   UNL d   1      53.837  29.197  54.085  0.00  0.00     0.032 A 
ENDBRANCH   2  22
TORSDOF 4
ENDMDL
MODEL 4
REMARK VINA RESULT:      -8.3      1.196      1.780
REMARK  4 active torsions:
REMARK  status: ('A' for Active; 'I' for Inactive)
REMARK    1  A    between atoms: N_2  and  S_1 
REMARK    2  A    between atoms: C_6  and  S_1 
REMARK       I    between atoms: C_3  and  N_5 
REMARK    3  A    between atoms: C_7  and  C_3 
REMARK    4  A    between atoms: C_4  and  C_8 
ROOT
ATOM      1  N   UNL d   1      53.909  32.219  53.421  0.00  0.00    -0.226 N 
ATOM      2  C   UNL d   1      52.959  29.947  53.510  0.00  0.00     0.288 C 
ATOM      3  N   UNL d   1      53.274  30.706  53.477  0.00  0.00    -0.267 N 
ATOM      4  C   UNL d   1      54.026  31.745  54.085  0.00  0.00     0.111 A 
ATOM      5  C   UNL d   1      53.467  31.928  52.778  0.00  0.00     0.111 A 
ATOM      6  C   UNL d   1      53.152  31.169  52.812  0.00  0.00     0.103 A 
ATOM      7  C   UNL d   1      53.709  30.995  54.108  0.00  0.00     0.103 A 
ATOM      8  O   UNL d   1      52.521  29.654  52.875  0.00  0.00    -0.264 OA
ENDROOT
BRANCH   1   9
ATOM      9  S   UNL d   1      54.219  32.967  53.388  0.00  0.00     0.271 S 
ATOM     10  O   UNL d   1      54.535  33.726  53.354  0.00  0.00    -0.200 OA
ATOM     11  O   UNL d   1      54.948  32.660  53.190  0.00  0.00    -0.200 OA
BRANCH   9  12
ATOM     12  C   UNL d   1      53.485  33.281  53.587  0.00  0.00     0.104 A 
ATOM     13  C   UNL d   1      52.973  33.553  53.000  0.00  0.00     0.017 A 
ATOM     14  C   UNL d   1      52.238  33.867  53.199  0.00  0.00     0.072 A 
ATOM     15  C   UNL d   1      52.010  33.912  53.987  0.00  0.00     0.004 A 
ATOM     16  C   UNL d   1      52.518  33.642  54.583  0.00  0.00     0.001 A 
ATOM     17  C   UNL d   1      53.259  33.325  54.382  0.00  0.00     0.013 A 
BRANCH  14  18
ATOM     18  C   UNL d   1      51.732  34.136  52.611  0.00  0.00     0.419 C 
ATOM     19  F   UNL d   1      51.808  34.827  52.112  0.00  0.00    -0.166 F 
ATOM     20  F   UNL d   1      50.991  33.799  52.335  0.00  0.00    -0.166 F 
ATOM     21  F   UNL d   1      51.271  34.384  52.072  0.00  0.00    -0.166 F 
ENDBRANCH  14  18
ENDBRANCH   9  12
ENDBRANCH   1   9
BRANCH   2  22
ATOM     22  C   UNL d   1      53.078  29.476  54.176  0.00  0.00     0.156 A 
ATOM     23  O   UNL d   1      52.645  29.503  54.880  0.00  0.00    -0.300 OA
ATOM     24  C   UNL d   1      52.948  28.943  55.391  0.00  0.00     0.123 A 
ATOM     25  C   UNL d   1      53.577  28.559  55.009  0.00  0.00     0.029 A 
ATOM     26  C   UNL d   1      53.658  28.890  54.254  0.00  0.00     0.032 A 
ENDBRANCH   2  22
TORSDOF 4
ENDMDL
MODEL 5
REMARK VINA RESULT:      -8.1      2.308      3.980
REMARK  4 active torsions:
REMARK  status: ('A' for Active; 'I' for Inactive)
REMARK    1  A    between atoms: N_2  and  S_1 
REMARK    2  A    between atoms: C_6  and  S_1 
REMARK       I    between atoms: C_3  and  N_5 
REMARK    3  A    between atoms: C_7  and  C_3 
REMARK    4  A    between atoms: C_4  and  C_8 
ROOT
ATOM      1  N   UNL d   1      52.743  32.203  53.296  0.00  0.00    -0.226 N 
ATOM      2  C   UNL d   1      51.423  33.994  52.239  0.00  0.00     0.288 C 
ATOM      3  N   UNL d   1      51.866  33.396  52.588  0.00  0.00    -0.267 N 
ATOM      4  C   UNL d   1      52.109  32.544  53.698  0.00  0.00     0.111 A 
ATOM      5  C   UNL d   1      52.938  32.465  52.530  0.00  0.00     0.111 A 
ATOM      6  C   UNL d   1      52.494  33.063  52.181  0.00  0.00     0.103 A 
ATOM      7  C   UNL d   1      51.677  33.136  53.342  0.00  0.00     0.103 A 
ATOM      8  O   UNL d   1      51.612  34.258  51.480  0.00  0.00    -0.264 OA
ENDROOT
BRANCH   1   9
ATOM      9  S   UNL d   1      53.180  31.613  53.641  0.00  0.00     0.271 S 
ATOM     10  O   UNL d   1      53.624  31.014  53.990  0.00  0.00    -0.200 OA
ATOM     11  O   UNL d   1      52.579  31.080  53.500  0.00  0.00    -0.200 OA
BRANCH   9  12
ATOM     12  C   UNL d   1      53.789  32.148  53.784  0.00  0.00     0.104 A 
ATOM     13  C   UNL d   1      53.841  32.540  54.508  0.00  0.00     0.017 A 
ATOM     14  C   UNL d   1      54.450  33.074  54.652  0.00  0.00     0.072 A 
ATOM     15  C   UNL d   1      55.013  33.222  54.072  0.00  0.00     0.004 A 
ATOM     16  C   UNL d   1      54.969  32.834  53.341  0.00  0.00     0.001 A 
ATOM     17  C   UNL d   1      54.354  32.294  53.197  0.00  0.00     0.013 A 
BRANCH  14  18
ATOM     18  C   UNL d   1      54.496  33.462  55.375  0.00  0.00     0.419 C 
ATOM     19  F   UNL d   1      54.962  33.259  56.063  0.00  0.00    -0.166 F 
ATOM     20  F   UNL d   1      54.092  34.172  55.638  0.00  0.00    -0.166 F 
ATOM     21  F   UNL d   1      54.541  33.814  56.038  0.00  0.00    -0.166 F 
ENDBRANCH  14  18
ENDBRANCH   9  12
ENDBRANCH   1   9
BRANCH   2  22
ATOM     22  C   UNL d   1      50.790  34.333  52.643  0.00  0.00     0.156 A 
ATOM     23  O   UNL d   1      50.837  34.813  53.315  0.00  0.00    -0.300 OA
ATOM     24  C   UNL d   1      50.080  35.028  53.533  0.00  0.00     0.123 A 
ATOM     25  C   UNL d   1      49.550  34.683  52.996  0.00  0.00     0.029 A 
ATOM     26  C   UNL d   1      49.991  34.251  52.443  0.00  0.00     0.032 A 
ENDBRANCH   2  22
TORSDOF 4
ENDMDL
MODEL 6
REMARK VINA RESULT:      -7.9      2.779      4.536
REMARK  4 active torsions:
REMARK  status: ('A' for Active; 'I' for Inactive)
REMARK    1  A    between atoms: N_2  and  S_1 
REMARK    2  A    between atoms: C_6  and  S_1 
REMARK       I    between atoms: C_3  and  N_5 
REMARK    3  A    between atoms: C_7  and  C_3 
REMARK    4  A    between atoms: C_4  and  C_8 
ROOT
ATOM      1  N   UNL d   1      53.127  31.212  53.010  0.00  0.00    -0.226 N 
ATOM      2  C   UNL d   1      53.288  33.286  54.331  0.00  0.00     0.288 C 
ATOM      3  N   UNL d   1      53.230  32.594  53.889  0.00  0.00    -0.267 N 
ATOM      4  C   UNL d   1      53.799  31.365  53.464  0.00  0.00     0.111 A 
ATOM      5  C   UNL d   1      52.501  31.761  52.999  0.00  0.00     0.111 A 
ATOM      6  C   UNL d   1      52.559  32.452  53.442  0.00  0.00     0.103 A 
ATOM      7  C   UNL d   1      53.845  32.053  53.898  0.00  0.00     0.103 A 
ATOM      8  O   UNL d   1      52.670  33.833  54.323  0.00  0.00    -0.264 OA
ENDROOT
BRANCH   1   9
ATOM      9  S   UNL d   1      53.070  30.531  52.574  0.00  0.00     0.271 S 
ATOM     10  O   UNL d   1      53.013  29.839  52.132  0.00  0.00    -0.200 OA
ATOM     11  O   UNL d   1      53.390  30.912  51.929  0.00  0.00    -0.200 OA
BRANCH   9  12
ATOM     12  C   UNL d   1      52.748  30.142  53.224  0.00  0.00     0.104 A 
ATOM     13  C   UNL d   1      53.220  29.666  53.705  0.00  0.00     0.017 A 
ATOM     14  C   UNL d   1      52.898  29.277  54.355  0.00  0.00     0.072 A 
ATOM     15  C   UNL d   1      52.099  29.360  54.529  0.00  0.00     0.004 A 
ATOM     16  C   UNL d   1      51.616  29.836  54.052  0.00  0.00     0.001 A 
ATOM     17  C   UNL d   1      51.942  30.228  53.396  0.00  0.00     0.013 A 
BRANCH  14  18
ATOM     18  C   UNL d   1      53.373  28.805  54.830  0.00  0.00     0.419 C 
ATOM     19  F   UNL d   1      53.605  28.926  55.645  0.00  0.00    -0.166 F 
ATOM     20  F   UNL d   1      53.766  28.065  54.642  0.00  0.00    -0.166 F 
ATOM     21  F   UNL d   1      53.808  28.376  55.268  0.00  0.00    -0.166 F 
ENDBRANCH  14  18
ENDBRANCH   9  12
ENDBRANCH   1   9
BRANCH   2  22
ATOM     22  C   UNL d   1      53.960  33.436  54.783  0.00  0.00     0.156 A 
ATOM     23  O   UNL d   1      54.119  33.139  55.539  0.00  0.00    -0.300 OA
ATOM     24  C   UNL d   1      54.845  33.427  55.782  0.00  0.00     0.123 A 
ATOM     25  C   UNL d   1      55.146  33.906  55.177  0.00  0.00     0.029 A 
ATOM     26  C   UNL d   1      54.598  33.913  54.556  0.00  0.00     0.032 A 
ENDBRANCH   2  22
TORSDOF 4
ENDMDL
