MODEL 1
REMARK VINA RESULT:      -4.7      0.000      0.000
REMARK  7 active torsions:
REMARK  status: ('A' for Active; 'I' for Inactive)
REMARK    1  A    between atoms: S_7  and  C_1 
REMARK    2  A    between atoms: C_6  and  C_8 
REMARK       I    between atoms: N_10  and  C_6 
REMARK    3  A    between atoms: C_13  and  S_7 
REMARK    4  A    between atoms: C_21  and  N_10 
REMARK    5  A    between atoms: C_14  and  C_13 
REMARK    6  A    between atoms: C_17  and  C_21 
REMARK    7  A    between atoms: C_22  and  C_17 
ROOT
ATOM      1  C   UNL d   1      59.939  -0.004  29.285  0.00  0.00     0.058 A 
ATOM      2  C   UNL d   1      59.208  -0.227  29.001  0.00  0.00     0.005 A 
ATOM      3  C   UNL d   1      59.998   0.324  30.055  0.00  0.00     0.005 A 
ATOM      4  C   UNL d   1      58.585   0.192  30.230  0.00  0.00     0.007 A 
ATOM      5  C   UNL d   1      59.347   0.419  30.510  0.00  0.00     0.001 A 
ATOM      6  C   UNL d   1      58.539  -0.130  29.468  0.00  0.00     0.001 A 
ENDROOT
BRANCH   4   7
ATOM      7  C   UNL d   1      57.934   0.287  30.685  0.00  0.00     0.038 C 
BRANCH   7   8
ATOM      8  S   UNL d   1      57.503  -0.385  30.954  0.00  0.00    -0.048 SA
BRANCH   8   9
ATOM      9  C   UNL d   1      56.968  -0.314  31.587  0.00  0.00     0.194 A 
ATOM     10  N   UNL d   1      56.604  -0.945  31.976  0.00  0.00    -0.220 NA
ATOM     11  C   UNL d   1      56.124  -0.629  32.558  0.00  0.00     0.101 A 
ATOM     12  C   UNL d   1      55.635  -0.964  33.112  0.00  0.00     0.021 A 
ATOM     13  C   UNL d   1      56.195   0.194  32.526  0.00  0.00     0.101 A 
ATOM     14  C   UNL d   1      55.229  -0.510  33.617  0.00  0.00     0.002 A 
ATOM     15  C   UNL d   1      55.300   0.313  33.585  0.00  0.00     0.002 A 
ATOM     16  C   UNL d   1      55.777   0.681  33.047  0.00  0.00     0.021 A 
ATOM     17  N   UNL d   1      56.718   0.377  31.923  0.00  0.00    -0.220 NA
ENDBRANCH   8   9
ENDBRANCH   7   8
ENDBRANCH   4   7
BRANCH   1  18
ATOM     18  C   UNL d   1      60.594  -0.114  28.791  0.00  0.00     0.279 C 
ATOM     19  O   UNL d   1      60.966   0.548  28.463  0.00  0.00    -0.265 OA
ATOM     20  N   UNL d   1      60.878  -0.869  28.624  0.00  0.00    -0.206 NA
BRANCH  20  21
ATOM     21  C   UNL d   1      60.511  -1.531  28.948  0.00  0.00     0.106 C 
BRANCH  21  22
ATOM     22  C   UNL d   1      60.835  -2.287  28.830  0.00  0.00     0.066 C 
BRANCH  22  23
ATOM     23  C   UNL d   1      60.390  -2.953  28.998  0.00  0.00     0.236 C 
ATOM     24  O   UNL d   1      60.625  -3.470  29.602  0.00  0.00    -0.283 OA
ENDBRANCH  22  23
ENDBRANCH  21  22
ENDBRANCH  20  21
ENDBRANCH   1  18
TORSDOF 7
ENDMDL
MODEL 2
REMARK VINA RESULT:      -2.6      2.584      5.764
REMARK  7 active torsions:
REMARK  status: ('A' for Active; 'I' for Inactive)
REMARK    1  A    between atoms: S_7  and  C_1 
REMARK    2  A    between atoms: C_6  and  C_8 
REMARK       I    between atoms: N_10  and  C_6 
REMARK    3  A    between atoms: C_13  and  S_7 
REMARK    4  A    between atoms: C_21  and  N_10 
REMARK    5  A    between atoms: C_14  and  C_13 
REMARK    6  A    between atoms: C_17  and  C_21 
REMARK    7  A    between atoms: C_22  and  C_17 
ROOT
ATOM      1  C   UNL d   1      56.088  -0.561  32.653  0.00  0.00     0.058 A 
ATOM      2  C   UNL d   1      56.853  -0.831  32.733  0.00  0.00     0.005 A 
ATOM      3  C   UNL d   1      55.921   0.037  32.088  0.00  0.00     0.005 A 
ATOM      4  C   UNL d   1      57.297   0.070  31.702  0.00  0.00     0.007 A 
ATOM      5  C   UNL d   1      56.503   0.340  31.630  0.00  0.00     0.001 A 
ATOM      6  C   UNL d   1      57.450  -0.520  32.263  0.00  0.00     0.001 A 
ENDROOT
BRANCH   4   7
ATOM      7  C   UNL d   1      57.879   0.373  31.244  0.00  0.00     0.038 C 
BRANCH   7   8
ATOM      8  S   UNL d   1      57.824   0.329  30.404  0.00  0.00    -0.048 SA
BRANCH   8   9
ATOM      9  C   UNL d   1      58.499   0.158  29.949  0.00  0.00     0.194 A 
ATOM     10  N   UNL d   1      58.685  -0.582  29.632  0.00  0.00    -0.220 NA
ATOM     11  C   UNL d   1      59.392  -0.503  29.227  0.00  0.00     0.101 A 
ATOM     12  C   UNL d   1      59.847  -1.027  28.807  0.00  0.00     0.021 A 
ATOM     13  C   UNL d   1      59.637   0.283  29.295  0.00  0.00     0.101 A 
ATOM     14  C   UNL d   1      60.521  -0.789  28.465  0.00  0.00     0.002 A 
ATOM     15  C   UNL d   1      60.766  -0.003  28.534  0.00  0.00     0.002 A 
ATOM     16  C   UNL d   1      60.338   0.546  28.944  0.00  0.00     0.021 A 
ATOM     17  N   UNL d   1      59.079   0.682  29.743  0.00  0.00    -0.220 NA
ENDBRANCH   8   9
ENDBRANCH   7   8
ENDBRANCH   4   7
BRANCH   1  18
ATOM     18  C   UNL d   1      55.508  -0.893  33.141  0.00  0.00     0.279 C 
ATOM     19  O   UNL d   1      55.207  -1.641  32.955  0.00  0.00    -0.265 OA
ATOM     20  N   UNL d   1      55.229  -0.491  33.804  0.00  0.00    -0.206 NA
BRANCH  20  21
ATOM     21  C   UNL d   1      55.525   0.253  33.993  0.00  0.00     0.106 C 
BRANCH  21  22
ATOM     22  C   UNL d   1      55.233   0.662  34.655  0.00  0.00     0.066 C 
BRANCH  22  23
ATOM     23  C   UNL d   1      55.668   0.682  35.348  0.00  0.00     0.236 C 
ATOM     24  O   UNL d   1      55.291   0.603  36.080  0.00  0.00    -0.283 OA
ENDBRANCH  22  23
ENDBRANCH  21  22
ENDBRANCH  20  21
ENDBRANCH   1  18
TORSDOF 7
ENDMDL
