MODEL 1
REMARK VINA RESULT:      -8.6      0.000      0.000
REMARK  4 active torsions:
REMARK  status: ('A' for Active; 'I' for Inactive)
REMARK    1  A    between atoms: C_2  and  C_1 
REMARK    2  A    between atoms: C_3  and  C_1 
REMARK    3  A    between atoms: C_4  and  C_2 
REMARK    4  A    between atoms: C_9  and  C_3 
ROOT
ATOM      1  C   UNL d   1      54.055  33.012  53.781  0.00  0.00     0.196 C 
ATOM      2  O   UNL d   1      54.855  32.982  53.581  0.00  0.00    -0.287 OA
ENDROOT
BRANCH   1   3
ATOM      3  C   UNL d   1      53.597  32.319  53.753  0.00  0.00     0.042 C 
BRANCH   3   4
ATOM      4  C   UNL d   1      53.906  31.635  53.412  0.00  0.00     0.005 C 
BRANCH   4   5
ATOM      5  C   UNL d   1      53.469  30.938  53.430  0.00  0.00     0.019 A 
ATOM      6  C   UNL d   1      52.806  30.852  52.944  0.00  0.00     0.099 A 
ATOM      7  N   UNL d   1      52.369  30.156  52.962  0.00  0.00    -0.242 NA
ATOM      8  C   UNL d   1      52.592  29.539  53.468  0.00  0.00     0.099 A 
ATOM      9  C   UNL d   1      53.251  29.622  53.953  0.00  0.00     0.021 A 
ATOM     10  C   UNL d   1      53.692  30.321  53.937  0.00  0.00     0.003 A 
ENDBRANCH   4   5
ENDBRANCH   3   4
ENDBRANCH   1   3
BRANCH   1  11
ATOM     11  C   UNL d   1      53.713  33.725  54.008  0.00  0.00     0.039 A 
ATOM     12  C   UNL d   1      53.793  33.981  54.784  0.00  0.00     0.006 A 
ATOM     13  C   UNL d   1      53.451  34.696  55.015  0.00  0.00     0.042 A 
ATOM     14  C   UNL d   1      53.028  35.154  54.462  0.00  0.00     0.196 A 
ATOM     15  C   UNL d   1      52.953  34.889  53.685  0.00  0.00     0.042 A 
ATOM     16  O   UNL d   1      52.687  35.870  54.697  0.00  0.00    -0.287 OA
ATOM     17  C   UNL d   1      53.294  34.176  53.458  0.00  0.00     0.006 A 
ENDBRANCH   1  11
TORSDOF 4
ENDMDL
MODEL 2
REMARK VINA RESULT:      -8.6      1.771      4.161
REMARK  4 active torsions:
REMARK  status: ('A' for Active; 'I' for Inactive)
REMARK    1  A    between atoms: C_2  and  C_1 
REMARK    2  A    between atoms: C_3  and  C_1 
REMARK    3  A    between atoms: C_4  and  C_2 
REMARK    4  A    between atoms: C_9  and  C_3 
ROOT
ATOM      1  C   UNL d   1      53.956  32.053  53.508  0.00  0.00     0.196 C 
ATOM      2  O   UNL d   1      54.729  32.124  53.228  0.00  0.00    -0.287 OA
ENDROOT
BRANCH   1   3
ATOM      3  C   UNL d   1      53.571  32.716  53.827  0.00  0.00     0.042 C 
BRANCH   3   4
ATOM      4  C   UNL d   1      53.969  33.436  53.882  0.00  0.00     0.005 C 
BRANCH   4   5
ATOM      5  C   UNL d   1      53.570  34.101  54.155  0.00  0.00     0.019 A 
ATOM      6  C   UNL d   1      53.629  34.323  54.950  0.00  0.00     0.099 A 
ATOM      7  N   UNL d   1      53.230  34.988  55.223  0.00  0.00    -0.242 NA
ATOM      8  C   UNL d   1      52.767  35.438  54.702  0.00  0.00     0.099 A 
ATOM      9  C   UNL d   1      52.707  35.219  53.911  0.00  0.00     0.021 A 
ATOM     10  C   UNL d   1      53.107  34.551  53.634  0.00  0.00     0.003 A 
ENDBRANCH   4   5
ENDBRANCH   3   4
ENDBRANCH   1   3
BRANCH   1  11
ATOM     11  C   UNL d   1      53.569  31.328  53.470  0.00  0.00     0.039 A 
ATOM     12  C   UNL d   1      53.781  30.730  53.992  0.00  0.00     0.006 A 
ATOM     13  C   UNL d   1      53.394  30.002  53.956  0.00  0.00     0.042 A 
ATOM     14  C   UNL d   1      52.793  29.875  53.393  0.00  0.00     0.196 A 
ATOM     15  C   UNL d   1      52.587  30.481  52.873  0.00  0.00     0.042 A 
ATOM     16  O   UNL d   1      52.408  29.144  53.361  0.00  0.00    -0.287 OA
ATOM     17  C   UNL d   1      52.974  31.206  52.910  0.00  0.00     0.006 A 
ENDBRANCH   1  11
TORSDOF 4
ENDMDL
MODEL 3
REMARK VINA RESULT:      -8.3      2.375      3.240
REMARK  4 active torsions:
REMARK  status: ('A' for Active; 'I' for Inactive)
REMARK    1  A    between atoms: C_2  and  C_1 
REMARK    2  A    between atoms: C_3  and  C_1 
REMARK    3  A    between atoms: C_4  and  C_2 
REMARK    4  A    between atoms: C_9  and  C_3 
ROOT
ATOM      1  C   UNL d   1      52.445  32.958  53.010  0.00  0.00     0.196 C 
ATOM      2  O   UNL d   1      52.626  32.281  52.575  0.00  0.00    -0.287 OA
ENDROOT
BRANCH   1   3
ATOM      3  C   UNL d   1      52.959  33.212  53.611  0.00  0.00     0.042 C 
BRANCH   3   4
ATOM      4  C   UNL d   1      53.649  32.788  53.768  0.00  0.00     0.005 C 
BRANCH   4   5
ATOM      5  C   UNL d   1      54.167  33.056  54.348  0.00  0.00     0.019 A 
ATOM      6  C   UNL d   1      54.034  32.867  55.142  0.00  0.00     0.099 A 
ATOM      7  N   UNL d   1      54.553  33.135  55.722  0.00  0.00    -0.242 NA
ATOM      8  C   UNL d   1      55.210  33.595  55.511  0.00  0.00     0.099 A 
ATOM      9  C   UNL d   1      55.344  33.784  54.722  0.00  0.00     0.021 A 
ATOM     10  C   UNL d   1      54.824  33.516  54.137  0.00  0.00     0.003 A 
ENDBRANCH   4   5
ENDBRANCH   3   4
ENDBRANCH   1   3
BRANCH   1  11
ATOM     11  C   UNL d   1      51.757  33.380  52.849  0.00  0.00     0.039 A 
ATOM     12  C   UNL d   1      51.083  33.239  53.296  0.00  0.00     0.006 A 
ATOM     13  C   UNL d   1      50.392  33.661  53.136  0.00  0.00     0.042 A 
ATOM     14  C   UNL d   1      50.379  34.226  52.525  0.00  0.00     0.196 A 
ATOM     15  C   UNL d   1      51.061  34.362  52.080  0.00  0.00     0.042 A 
ATOM     16  O   UNL d   1      49.685  34.646  52.368  0.00  0.00    -0.287 OA
ATOM     17  C   UNL d   1      51.748  33.940  52.242  0.00  0.00     0.006 A 
ENDBRANCH   1  11
TORSDOF 4
ENDMDL
MODEL 4
REMARK VINA RESULT:      -8.1      2.236      3.193
REMARK  4 active torsions:
REMARK  status: ('A' for Active; 'I' for Inactive)
REMARK    1  A    between atoms: C_2  and  C_1 
REMARK    2  A    between atoms: C_3  and  C_1 
REMARK    3  A    between atoms: C_4  and  C_2 
REMARK    4  A    between atoms: C_9  and  C_3 
ROOT
ATOM      1  C   UNL d   1      53.327  32.662  53.763  0.00  0.00     0.196 C 
ATOM      2  O   UNL d   1      53.400  31.903  53.446  0.00  0.00    -0.287 OA
ENDROOT
BRANCH   1   3
ATOM      3  C   UNL d   1      52.637  33.102  53.623  0.00  0.00     0.042 C 
BRANCH   3   4
ATOM      4  C   UNL d   1      52.140  32.900  52.997  0.00  0.00     0.005 C 
BRANCH   4   5
ATOM      5  C   UNL d   1      51.505  33.388  52.807  0.00  0.00     0.019 A 
ATOM      6  C   UNL d   1      50.822  33.378  53.273  0.00  0.00     0.099 A 
ATOM      7  N   UNL d   1      50.187  33.866  53.083  0.00  0.00    -0.242 NA
ATOM      8  C   UNL d   1      50.231  34.369  52.426  0.00  0.00     0.099 A 
ATOM      9  C   UNL d   1      50.910  34.381  51.962  0.00  0.00     0.021 A 
ATOM     10  C   UNL d   1      51.550  33.891  52.150  0.00  0.00     0.003 A 
ENDBRANCH   4   5
ENDBRANCH   3   4
ENDBRANCH   1   3
BRANCH   1  11
ATOM     11  C   UNL d   1      53.936  32.980  54.215  0.00  0.00     0.039 A 
ATOM     12  C   UNL d   1      54.613  33.258  53.842  0.00  0.00     0.006 A 
ATOM     13  C   UNL d   1      55.226  33.578  54.293  0.00  0.00     0.042 A 
ATOM     14  C   UNL d   1      55.157  33.618  55.122  0.00  0.00     0.196 A 
ATOM     15  C   UNL d   1      54.474  33.336  55.489  0.00  0.00     0.042 A 
ATOM     16  O   UNL d   1      55.773  33.939  55.571  0.00  0.00    -0.287 OA
ATOM     17  C   UNL d   1      53.865  33.018  55.037  0.00  0.00     0.006 A 
ENDBRANCH   1  11
TORSDOF 4
ENDMDL
MODEL 5
REMARK VINA RESULT:      -7.9      2.100      4.122
REMARK  4 active torsions:
REMARK  status: ('A' for Active; 'I' for Inactive)
REMARK    1  A    between atoms: C_2  and  C_1 
REMARK    2  A    between atoms: C_3  and  C_1 
REMARK    3  A    between atoms: C_4  and  C_2 
REMARK    4  A    between atoms: C_9  and  C_3 
ROOT
ATOM      1  C   UNL d   1      53.173  32.085  53.203  0.00  0.00     0.196 C 
ATOM      2  O   UNL d   1      53.878  32.512  53.194  0.00  0.00    -0.287 OA
ENDROOT
BRANCH   1   3
ATOM      3  C   UNL d   1      52.458  32.464  53.015  0.00  0.00     0.042 C 
BRANCH   3   4
ATOM      4  C   UNL d   1      52.415  33.288  53.022  0.00  0.00     0.005 C 
BRANCH   4   5
ATOM      5  C   UNL d   1      51.702  33.659  52.851  0.00  0.00     0.019 A 
ATOM      6  C   UNL d   1      51.095  33.670  53.413  0.00  0.00     0.099 A 
ATOM      7  N   UNL d   1      50.381  34.042  53.241  0.00  0.00    -0.242 NA
ATOM      8  C   UNL d   1      50.270  34.407  52.505  0.00  0.00     0.099 A 
ATOM      9  C   UNL d   1      50.872  34.397  51.945  0.00  0.00     0.021 A 
ATOM     10  C   UNL d   1      51.590  34.024  52.115  0.00  0.00     0.003 A 
ENDBRANCH   4   5
ENDBRANCH   3   4
ENDBRANCH   1   3
BRANCH   1  11
ATOM     11  C   UNL d   1      53.178  31.285  53.397  0.00  0.00     0.039 A 
ATOM     12  C   UNL d   1      53.520  31.044  54.104  0.00  0.00     0.006 A 
ATOM     13  C   UNL d   1      53.527  30.242  54.301  0.00  0.00     0.042 A 
ATOM     14  C   UNL d   1      53.187  29.683  53.786  0.00  0.00     0.196 A 
ATOM     15  C   UNL d   1      52.845  29.934  53.078  0.00  0.00     0.042 A 
ATOM     16  O   UNL d   1      53.196  28.881  53.987  0.00  0.00    -0.287 OA
ATOM     17  C   UNL d   1      52.840  30.733  52.884  0.00  0.00     0.006 A 
ENDBRANCH   1  11
TORSDOF 4
ENDMDL
MODEL 6
REMARK VINA RESULT:      -7.6      1.934      2.305
REMARK  4 active torsions:
REMARK  status: ('A' for Active; 'I' for Inactive)
REMARK    1  A    between atoms: C_2  and  C_1 
REMARK    2  A    between atoms: C_3  and  C_1 
REMARK    3  A    between atoms: C_4  and  C_2 
REMARK    4  A    between atoms: C_9  and  C_3 
ROOT
ATOM      1  C   UNL d   1      52.445  33.235  53.042  0.00  0.00     0.196 C 
ATOM      2  O   UNL d   1      53.137  33.673  53.140  0.00  0.00    -0.287 OA
ENDROOT
BRANCH   1   3
ATOM      3  C   UNL d   1      52.467  32.408  53.108  0.00  0.00     0.042 C 
BRANCH   3   4
ATOM      4  C   UNL d   1      53.192  32.019  53.162  0.00  0.00     0.005 C 
BRANCH   4   5
ATOM      5  C   UNL d   1      53.211  31.216  53.341  0.00  0.00     0.019 A 
ATOM      6  C   UNL d   1      53.557  30.957  54.046  0.00  0.00     0.099 A 
ATOM      7  N   UNL d   1      53.576  30.154  54.225  0.00  0.00    -0.242 NA
ATOM      8  C   UNL d   1      53.248  29.604  53.699  0.00  0.00     0.099 A 
ATOM      9  C   UNL d   1      52.903  29.859  52.997  0.00  0.00     0.021 A 
ATOM     10  C   UNL d   1      52.883  30.666  52.815  0.00  0.00     0.003 A 
ENDBRANCH   4   5
ENDBRANCH   3   4
ENDBRANCH   1   3
BRANCH   1  11
ATOM     11  C   UNL d   1      51.735  33.618  52.878  0.00  0.00     0.039 A 
ATOM     12  C   UNL d   1      51.631  33.980  52.148  0.00  0.00     0.006 A 
ATOM     13  C   UNL d   1      50.920  34.365  51.981  0.00  0.00     0.042 A 
ATOM     14  C   UNL d   1      50.312  34.385  52.551  0.00  0.00     0.196 A 
ATOM     15  C   UNL d   1      50.425  34.019  53.281  0.00  0.00     0.042 A 
ATOM     16  O   UNL d   1      49.602  34.771  52.380  0.00  0.00    -0.287 OA
ATOM     17  C   UNL d   1      51.135  33.636  53.445  0.00  0.00     0.006 A 
ENDBRANCH   1  11
TORSDOF 4
ENDMDL
