MODEL 1
REMARK VINA RESULT:      -6.0      0.000      0.000
REMARK  1 active torsions:
REMARK  status: ('A' for Active; 'I' for Inactive)
REMARK    1  A    between atoms: C_2  and  N_1 
ROOT
ATOM      1  C   UNL d   1      55.479   0.041  33.394  0.00  0.00     0.127 A 
ATOM      2  C   UNL d   1      55.895   0.512  32.855  0.00  0.00     0.025 A 
ATOM      3  C   UNL d   1      56.367   0.165  32.280  0.00  0.00     0.021 A 
ATOM      4  N   UNL d   1      57.252   0.288  31.168  0.00  0.00    -0.242 NA
ATOM      5  C   UNL d   1      56.427  -0.655  32.237  0.00  0.00     0.003 A 
ATOM      6  C   UNL d   1      55.546  -0.783  33.345  0.00  0.00     0.024 A 
ATOM      7  C   UNL d   1      56.017  -1.131  32.770  0.00  0.00     0.002 A 
ATOM      8  C   UNL d   1      56.780   0.636  31.744  0.00  0.00     0.099 A 
ATOM      9  C   UNL d   1      57.312  -0.532  31.126  0.00  0.00     0.099 A 
ATOM     10  C   UNL d   1      56.902  -1.015  31.658  0.00  0.00     0.021 A 
ENDROOT
BRANCH   1  11
ATOM     11  N   UNL d   1      55.005   0.388  33.973  0.00  0.00    -0.114 N 
ATOM     12  O   UNL d   1      54.263   0.682  33.773  0.00  0.00    -0.532 OA
ATOM     13  O   UNL d   1      55.272   0.444  34.755  0.00  0.00    -0.532 OA
ENDBRANCH   1  11
TORSDOF 1
ENDMDL
MODEL 2
REMARK VINA RESULT:      -5.5      1.907      2.820
REMARK  1 active torsions:
REMARK  status: ('A' for Active; 'I' for Inactive)
REMARK    1  A    between atoms: C_2  and  N_1 
ROOT
ATOM      1  C   UNL d   1      57.104   0.001  31.530  0.00  0.00     0.127 A 
ATOM      2  C   UNL d   1      56.660   0.500  32.020  0.00  0.00     0.025 A 
ATOM      3  C   UNL d   1      56.155   0.183  32.584  0.00  0.00     0.021 A 
ATOM      4  N   UNL d   1      55.208   0.364  33.635  0.00  0.00    -0.242 NA
ATOM      5  C   UNL d   1      56.087  -0.633  32.664  0.00  0.00     0.003 A 
ATOM      6  C   UNL d   1      57.030  -0.819  31.617  0.00  0.00     0.024 A 
ATOM      7  C   UNL d   1      56.525  -1.136  32.180  0.00  0.00     0.002 A 
ATOM      8  C   UNL d   1      55.714   0.682  33.071  0.00  0.00     0.099 A 
ATOM      9  C   UNL d   1      55.141  -0.452  33.715  0.00  0.00     0.099 A 
ATOM     10  C   UNL d   1      55.578  -0.963  33.232  0.00  0.00     0.021 A 
ENDROOT
BRANCH   1  11
ATOM     11  N   UNL d   1      57.612   0.318  30.963  0.00  0.00    -0.114 N 
ATOM     12  O   UNL d   1      57.383   0.338  30.172  0.00  0.00    -0.532 OA
ATOM     13  O   UNL d   1      58.352   0.617  31.184  0.00  0.00    -0.532 OA
ENDBRANCH   1  11
TORSDOF 1
ENDMDL
MODEL 3
REMARK VINA RESULT:      -5.3      2.113      3.156
REMARK  1 active torsions:
REMARK  status: ('A' for Active; 'I' for Inactive)
REMARK    1  A    between atoms: C_2  and  N_1 
ROOT
ATOM      1  C   UNL d   1      57.114  -0.445  31.323  0.00  0.00     0.127 A 
ATOM      2  C   UNL d   1      56.697  -0.951  31.829  0.00  0.00     0.025 A 
ATOM      3  C   UNL d   1      56.239  -0.643  32.437  0.00  0.00     0.021 A 
ATOM      4  N   UNL d   1      55.367  -0.841  33.547  0.00  0.00    -0.242 NA
ATOM      5  C   UNL d   1      56.194   0.171  32.547  0.00  0.00     0.003 A 
ATOM      6  C   UNL d   1      57.063   0.373  31.441  0.00  0.00     0.024 A 
ATOM      7  C   UNL d   1      56.606   0.682  32.048  0.00  0.00     0.002 A 
ATOM      8  C   UNL d   1      55.824  -1.149  32.939  0.00  0.00     0.099 A 
ATOM      9  C   UNL d   1      55.322  -0.027  33.657  0.00  0.00     0.099 A 
ATOM     10  C   UNL d   1      55.733   0.492  33.160  0.00  0.00     0.021 A 
ENDROOT
BRANCH   1  11
ATOM     11  N   UNL d   1      57.574  -0.752  30.712  0.00  0.00    -0.114 N 
ATOM     12  O   UNL d   1      58.030  -0.248  30.248  0.00  0.00    -0.532 OA
ATOM     13  O   UNL d   1      57.580  -1.567  30.562  0.00  0.00    -0.532 OA
ENDBRANCH   1  11
TORSDOF 1
ENDMDL
MODEL 4
REMARK VINA RESULT:      -4.7      1.219      1.779
REMARK  1 active torsions:
REMARK  status: ('A' for Active; 'I' for Inactive)
REMARK    1  A    between atoms: C_2  and  N_1 
ROOT
ATOM      1  C   UNL d   1      56.203  -0.563  32.574  0.00  0.00     0.127 A 
ATOM      2  C   UNL d   1      56.641  -0.975  32.005  0.00  0.00     0.025 A 
ATOM      3  C   UNL d   1      57.083  -0.564  31.447  0.00  0.00     0.021 A 
ATOM      4  N   UNL d   1      57.961  -0.566  30.323  0.00  0.00    -0.242 NA
ATOM      5  C   UNL d   1      57.092   0.258  31.453  0.00  0.00     0.003 A 
ATOM      6  C   UNL d   1      56.218   0.265  32.573  0.00  0.00     0.024 A 
ATOM      7  C   UNL d   1      56.659   0.675  32.016  0.00  0.00     0.002 A 
ATOM      8  C   UNL d   1      57.519  -0.976  30.881  0.00  0.00     0.099 A 
ATOM      9  C   UNL d   1      57.970   0.257  30.329  0.00  0.00     0.099 A 
ATOM     10  C   UNL d   1      57.537   0.682  30.892  0.00  0.00     0.021 A 
ENDROOT
BRANCH   1  11
ATOM     11  N   UNL d   1      55.759  -0.973  33.135  0.00  0.00    -0.114 N 
ATOM     12  O   UNL d   1      55.924  -1.764  33.290  0.00  0.00    -0.532 OA
ATOM     13  O   UNL d   1      55.147  -0.593  33.543  0.00  0.00    -0.532 OA
ENDBRANCH   1  11
TORSDOF 1
ENDMDL
MODEL 5
REMARK VINA RESULT:      -4.3      8.875      9.521
REMARK  1 active torsions:
REMARK  status: ('A' for Active; 'I' for Inactive)
REMARK    1  A    between atoms: C_2  and  N_1 
ROOT
ATOM      1  C   UNL d   1      60.203  -6.889  35.977  0.00  0.00     0.127 A 
ATOM      2  C   UNL d   1      59.530  -7.345  36.133  0.00  0.00     0.025 A 
ATOM      3  C   UNL d   1      59.581  -8.165  36.152  0.00  0.00     0.021 A 
ATOM      4  N   UNL d   1      58.961  -9.437  36.328  0.00  0.00    -0.242 NA
ATOM      5  C   UNL d   1      60.303  -8.536  36.017  0.00  0.00     0.003 A 
ATOM      6  C   UNL d   1      60.926  -7.270  35.841  0.00  0.00     0.024 A 
ATOM      7  C   UNL d   1      60.978  -8.089  35.861  0.00  0.00     0.002 A 
ATOM      8  C   UNL d   1      58.910  -8.618  36.308  0.00  0.00     0.099 A 
ATOM      9  C   UNL d   1      59.683  -9.808  36.192  0.00  0.00     0.099 A 
ATOM     10  C   UNL d   1      60.365  -9.364  36.035  0.00  0.00     0.021 A 
ENDROOT
BRANCH   1  11
ATOM     11  N   UNL d   1      60.153  -6.066  35.957  0.00  0.00    -0.114 N 
ATOM     12  O   UNL d   1      60.745  -5.611  36.303  0.00  0.00    -0.532 OA
ATOM     13  O   UNL d   1      59.511  -5.695  35.589  0.00  0.00    -0.532 OA
ENDBRANCH   1  11
TORSDOF 1
ENDMDL
MODEL 6
REMARK VINA RESULT:      -3.1      2.158      3.149
REMARK  1 active torsions:
REMARK  status: ('A' for Active; 'I' for Inactive)
REMARK    1  A    between atoms: C_2  and  N_1 
ROOT
ATOM      1  C   UNL d   1      57.359  -0.458  31.238  0.00  0.00     0.127 A 
ATOM      2  C   UNL d   1      57.758  -0.951  30.705  0.00  0.00     0.025 A 
ATOM      3  C   UNL d   1      58.152  -0.629  30.060  0.00  0.00     0.021 A 
ATOM      4  N   UNL d   1      58.943  -0.799  28.886  0.00  0.00    -0.242 NA
ATOM      5  C   UNL d   1      58.151   0.185  29.942  0.00  0.00     0.003 A 
ATOM      6  C   UNL d   1      57.364   0.360  31.111  0.00  0.00     0.024 A 
ATOM      7  C   UNL d   1      57.757   0.682  30.467  0.00  0.00     0.002 A 
ATOM      8  C   UNL d   1      58.549  -1.121  29.530  0.00  0.00     0.099 A 
ATOM      9  C   UNL d   1      58.942   0.015  28.767  0.00  0.00     0.099 A 
ATOM     10  C   UNL d   1      58.547   0.519  29.292  0.00  0.00     0.021 A 
ENDROOT
BRANCH   1  11
ATOM     11  N   UNL d   1      56.963  -0.780  31.886  0.00  0.00    -0.114 N 
ATOM     12  O   UNL d   1      56.634  -1.532  31.833  0.00  0.00    -0.532 OA
ATOM     13  O   UNL d   1      56.895  -0.350  32.590  0.00  0.00    -0.532 OA
ENDBRANCH   1  11
TORSDOF 1
ENDMDL
