MODEL 1
REMARK VINA RESULT:      13.1      0.000      0.000
REMARK  1 active torsions:
REMARK  status: ('A' for Active; 'I' for Inactive)
REMARK    1  A    between atoms: C_6  and  C_1 
ROOT
ATOM      1  C   UNL d   1      45.122 -15.456  36.621  0.00  0.00     0.148 A 
ATOM      2  N   UNL d   1      45.385 -14.796  37.042  0.00  0.00    -0.289 N 
ATOM      3  N   UNL d   1      45.768 -15.869  36.339  0.00  0.00    -0.225 NA
ATOM      4  C   UNL d   1      46.194 -14.800  37.021  0.00  0.00     0.085 A 
ATOM      5  C   UNL d   1      46.433 -15.463  36.587  0.00  0.00     0.118 A 
ATOM      6  C   UNL d   1      44.967 -14.204  37.434  0.00  0.00     0.082 A 
ATOM      7  C   UNL d   1      46.644 -14.213  37.390  0.00  0.00     0.019 A 
ATOM      8  C   UNL d   1      45.412 -13.591  37.820  0.00  0.00     0.019 A 
ATOM      9  C   UNL d   1      46.221 -13.596  37.799  0.00  0.00     0.003 A 
ENDROOT
BRANCH   1  10
ATOM     10  C   UNL d   1      44.310 -15.593  36.551  0.00  0.00     0.035 A 
ATOM     11  C   UNL d   1      43.737 -14.971  36.623  0.00  0.00     0.004 A 
ATOM     12  C   UNL d   1      42.936 -15.113  36.553  0.00  0.00     0.011 A 
ATOM     13  C   UNL d   1      42.692 -15.871  36.410  0.00  0.00     0.058 A 
ATOM     14  C   UNL d   1      43.225 -16.492  36.335  0.00  0.00     0.011 A 
ATOM     15 CL   UNL d   1      41.845 -16.006  36.338  0.00  0.00    -0.082 Cl
ATOM     16  C   UNL d   1      44.031 -16.355  36.405  0.00  0.00     0.004 A 
ENDBRANCH   1  10
TORSDOF 1
ENDMDL
MODEL 2
REMARK VINA RESULT:      13.3      7.650      8.112
REMARK  1 active torsions:
REMARK  status: ('A' for Active; 'I' for Inactive)
REMARK    1  A    between atoms: C_6  and  C_1 
ROOT
ATOM      1  C   UNL d   1      46.272 -18.838  43.917  0.00  0.00     0.148 A 
ATOM      2  N   UNL d   1      46.384 -19.091  43.139  0.00  0.00    -0.289 N 
ATOM      3  N   UNL d   1      46.330 -19.481  44.419  0.00  0.00    -0.225 NA
ATOM      4  C   UNL d   1      46.512 -19.889  43.158  0.00  0.00     0.085 A 
ATOM      5  C   UNL d   1      46.479 -20.133  43.948  0.00  0.00     0.118 A 
ATOM      6  C   UNL d   1      46.382 -18.671  42.429  0.00  0.00     0.082 A 
ATOM      7  C   UNL d   1      46.647 -20.327  42.469  0.00  0.00     0.019 A 
ATOM      8  C   UNL d   1      46.518 -19.104  41.711  0.00  0.00     0.019 A 
ATOM      9  C   UNL d   1      46.646 -19.902  41.730  0.00  0.00     0.003 A 
ENDROOT
BRANCH   1  10
ATOM     10  C   UNL d   1      46.128 -18.038  44.065  0.00  0.00     0.035 A 
ATOM     11  C   UNL d   1      45.805 -17.518  43.477  0.00  0.00     0.004 A 
ATOM     12  C   UNL d   1      45.666 -16.728  43.630  0.00  0.00     0.011 A 
ATOM     13  C   UNL d   1      45.845 -16.443  44.366  0.00  0.00     0.058 A 
ATOM     14  C   UNL d   1      46.158 -16.923  44.954  0.00  0.00     0.011 A 
ATOM     15 CL   UNL d   1      45.692 -15.609  44.513  0.00  0.00    -0.082 Cl
ATOM     16  C   UNL d   1      46.300 -17.717  44.806  0.00  0.00     0.004 A 
ENDBRANCH   1  10
TORSDOF 1
ENDMDL
