MODEL 1
REMARK VINA RESULT:      -1.6      0.000      0.000
REMARK  5 active torsions:
REMARK  status: ('A' for Active; 'I' for Inactive)
REMARK    1  A    between atoms: C_20  and  N_1 
REMARK       I    between atoms: C_6  and  N_7 
REMARK    2  A    between atoms: C_10  and  C_6 
REMARK    3  A    between atoms: N_7  and  C_8 
REMARK    4  A    between atoms: O_22  and  C_13 
REMARK    5  A    between atoms: O_23  and  C_16 
ROOT
ATOM      1  N   UNL d   1     -42.119-123.335 -47.940  0.00  0.00    -0.273 N 
ATOM      2  C   UNL d   1     -43.116-123.584 -47.968  0.00  0.00     0.265 A 
ATOM      3  C   UNL d   1     -41.917-123.303 -48.798  0.00  0.00     0.067 A 
ATOM      4  C   UNL d   1     -42.544-123.469 -49.236  0.00  0.00     0.022 A 
ATOM      5  C   UNL d   1     -43.261-123.640 -48.861  0.00  0.00     0.058 A 
ATOM      6  C   UNL d   1     -41.800-123.309 -50.419  0.00  0.00     0.085 A 
ATOM      7  C   UNL d   1     -42.488-123.473 -50.042  0.00  0.00     0.019 A 
ATOM      8  C   UNL d   1     -41.175-123.127 -49.187  0.00  0.00     0.019 A 
ATOM      9  O   UNL d   1     -43.583-123.687 -47.337  0.00  0.00    -0.267 OA
ATOM     10  C   UNL d   1     -41.135-123.134 -49.964  0.00  0.00     0.021 A 
ATOM     11  C   UNL d   1     -43.909-123.811 -49.311  0.00  0.00     0.005 A 
ATOM     12  C   UNL d   1     -43.156-123.649 -50.511  0.00  0.00     0.002 A 
ATOM     13  C   UNL d   1     -43.862-123.817 -50.141  0.00  0.00     0.000 A 
ENDROOT
BRANCH   6  14
ATOM     14  N   UNL d   1     -41.735-123.311 -51.254  0.00  0.00    -0.208 NA
ATOM     15  C   UNL d   1     -41.539-122.613 -51.626  0.00  0.00     0.279 C 
ATOM     16  O   UNL d   1     -41.410-121.937 -51.214  0.00  0.00    -0.265 OA
BRANCH  15  17
ATOM     17  C   UNL d   1     -41.475-122.606 -52.418  0.00  0.00     0.060 A 
ATOM     18  C   UNL d   1     -41.696-121.955 -52.767  0.00  0.00     0.031 A 
ATOM     19  C   UNL d   1     -41.635-121.920 -53.654  0.00  0.00     0.116 A 
ATOM     20  C   UNL d   1     -41.346-122.583 -54.068  0.00  0.00     0.116 A 
ATOM     21  C   UNL d   1     -41.123-123.252 -53.660  0.00  0.00     0.026 A 
ATOM     22  C   UNL d   1     -41.188-123.265 -52.825  0.00  0.00     0.007 A 
BRANCH  19  23
ATOM     23  O   UNL d   1     -41.848-121.278 -54.062  0.00  0.00    -0.326 OA
ATOM     24  C   UNL d   1     -42.591-120.954 -53.947  0.00  0.00     0.181 C 
ENDBRANCH  19  23
BRANCH  20  25
ATOM     25  O   UNL d   1     -41.282-122.567 -54.900  0.00  0.00    -0.326 OA
ATOM     26  C   UNL d   1     -41.252-123.277 -55.323  0.00  0.00     0.181 C 
ENDBRANCH  20  25
ENDBRANCH  15  17
ENDBRANCH   6  14
BRANCH   1  27
ATOM     27  C   UNL d   1     -41.305-123.122 -47.466  0.00  0.00     0.083 C 
ATOM     28  C   UNL d   1     -41.338-122.682 -46.791  0.00  0.00     0.021 C 
ENDBRANCH   1  27
TORSDOF 5
ENDMDL
MODEL 2
REMARK VINA RESULT:      -0.6      1.065      5.244
REMARK  5 active torsions:
REMARK  status: ('A' for Active; 'I' for Inactive)
REMARK    1  A    between atoms: C_20  and  N_1 
REMARK       I    between atoms: C_6  and  N_7 
REMARK    2  A    between atoms: C_10  and  C_6 
REMARK    3  A    between atoms: N_7  and  C_8 
REMARK    4  A    between atoms: O_22  and  C_13 
REMARK    5  A    between atoms: O_23  and  C_16 
ROOT
ATOM      1  N   UNL d   1     -41.388-122.644 -54.093  0.00  0.00    -0.273 N 
ATOM      2  C   UNL d   1     -41.564-121.632 -54.053  0.00  0.00     0.265 A 
ATOM      3  C   UNL d   1     -41.335-122.851 -53.237  0.00  0.00     0.067 A 
ATOM      4  C   UNL d   1     -41.437-122.215 -52.792  0.00  0.00     0.022 A 
ATOM      5  C   UNL d   1     -41.571-121.486 -53.159  0.00  0.00     0.058 A 
ATOM      6  C   UNL d   1     -41.280-122.974 -51.617  0.00  0.00     0.085 A 
ATOM      7  C   UNL d   1     -41.410-122.274 -51.986  0.00  0.00     0.019 A 
ATOM      8  C   UNL d   1     -41.196-123.605 -52.857  0.00  0.00     0.019 A 
ATOM      9  O   UNL d   1     -41.660-121.156 -54.679  0.00  0.00    -0.267 OA
ATOM     10  C   UNL d   1     -41.172-123.648 -52.079  0.00  0.00     0.021 A 
ATOM     11  C   UNL d   1     -41.676-120.829 -52.701  0.00  0.00     0.005 A 
ATOM     12  C   UNL d   1     -41.518-121.597 -51.509  0.00  0.00     0.002 A 
ATOM     13  C   UNL d   1     -41.651-120.879 -51.872  0.00  0.00     0.000 A 
ENDROOT
BRANCH   6  14
ATOM     14  N   UNL d   1     -41.252-123.042 -50.782  0.00  0.00    -0.208 NA
ATOM     15  C   UNL d   1     -41.852-123.447 -50.409  0.00  0.00     0.279 C 
ATOM     16  O   UNL d   1     -42.459-123.775 -50.818  0.00  0.00    -0.265 OA
BRANCH  15  17
ATOM     17  C   UNL d   1     -41.833-123.516 -49.617  0.00  0.00     0.060 A 
ATOM     18  C   UNL d   1     -42.491-123.356 -49.250  0.00  0.00     0.031 A 
ATOM     19  C   UNL d   1     -42.497-123.426 -48.363  0.00  0.00     0.116 A 
ATOM     20  C   UNL d   1     -41.801-123.657 -47.969  0.00  0.00     0.116 A 
ATOM     21  C   UNL d   1     -41.125-123.817 -48.395  0.00  0.00     0.026 A 
ATOM     22  C   UNL d   1     -41.140-123.745 -49.230  0.00  0.00     0.007 A 
BRANCH  19  23
ATOM     23  O   UNL d   1     -43.145-123.274 -47.937  0.00  0.00    -0.326 OA
ATOM     24  C   UNL d   1     -43.881-123.320 -48.291  0.00  0.00     0.181 C 
ENDBRANCH  19  23
BRANCH  20  25
ATOM     25  O   UNL d   1     -41.789-123.727 -47.137  0.00  0.00    -0.326 OA
ATOM     26  C   UNL d   1     -41.213-123.326 -46.699  0.00  0.00     0.181 C 
ENDBRANCH  20  25
ENDBRANCH  15  17
ENDBRANCH   6  14
BRANCH   1  27
ATOM     27  C   UNL d   1     -41.254-123.469 -54.576  0.00  0.00     0.083 C 
ATOM     28  C   UNL d   1     -41.284-123.471 -55.382  0.00  0.00     0.021 C 
ENDBRANCH   1  27
TORSDOF 5
ENDMDL
