MODEL 1
REMARK VINA RESULT:      53.6      0.000      0.000
REMARK  5 active torsions:
REMARK  status: ('A' for Active; 'I' for Inactive)
REMARK    1  A    between atoms: C_2  and  S_1 
REMARK    2  A    between atoms: N_4  and  S_1 
REMARK    3  A    between atoms: C_11  and  N_4 
REMARK    4  A    between atoms: O_14  and  C_5 
REMARK    5  A    between atoms: O_15  and  C_7 
ROOT
ATOM      1  C   UNL d   1      59.507  49.497  50.916  0.00  0.00     0.129 A 
ATOM      2  C   UNL d   1      58.906  49.486  50.349  0.00  0.00     0.040 A 
ATOM      3  C   UNL d   1      59.314  49.578  51.709  0.00  0.00     0.107 A 
ATOM      4  C   UNL d   1      58.532  49.647  51.947  0.00  0.00     0.034 A 
ATOM      5  C   UNL d   1      58.117  49.555  50.581  0.00  0.00     0.101 A 
ATOM      6  C   UNL d   1      57.931  49.636  51.381  0.00  0.00     0.059 A 
ATOM      7 BR   UNL d   1      57.136  49.706  51.607  0.00  0.00    -0.047 Br
ENDROOT
BRANCH   1   8
ATOM      8  S   UNL d   1      60.290  49.427  50.677  0.00  0.00     0.287 S 
ATOM      9  O   UNL d   1      60.518  49.248  51.441  0.00  0.00    -0.198 OA
ATOM     10  O   UNL d   1      60.063  49.607  49.905  0.00  0.00    -0.198 OA
BRANCH   8  11
ATOM     11  N   UNL d   1      61.074  49.358  50.431  0.00  0.00    -0.157 NA
BRANCH  11  12
ATOM     12  C   UNL d   1      61.402  48.611  50.309  0.00  0.00     0.113 A 
ATOM     13  C   UNL d   1      61.592  48.364  49.552  0.00  0.00     0.119 A 
ATOM     14  N   UNL d   1      61.920  47.617  49.432  0.00  0.00    -0.241 NA
ATOM     15  C   UNL d   1      62.058  47.112  50.078  0.00  0.00     0.099 A 
ATOM     16  C   UNL d   1      61.863  47.368  50.840  0.00  0.00     0.022 A 
ATOM     17  C   UNL d   1      61.535  48.115  50.960  0.00  0.00     0.023 A 
ENDBRANCH  11  12
ENDBRANCH   8  11
ENDBRANCH   1   8
BRANCH   3  18
ATOM     18  O   UNL d   1      59.916  49.589  52.276  0.00  0.00    -0.327 OA
ATOM     19  C   UNL d   1      59.732  49.708  53.072  0.00  0.00     0.181 C 
ENDBRANCH   3  18
BRANCH   5  20
ATOM     20  O   UNL d   1      57.516  49.544  50.014  0.00  0.00    -0.328 OA
ATOM     21  C   UNL d   1      56.976  48.920  49.996  0.00  0.00     0.181 C 
ENDBRANCH   5  20
TORSDOF 5
ENDMDL
MODEL 2
REMARK VINA RESULT:      54.6      1.903      3.754
REMARK  5 active torsions:
REMARK  status: ('A' for Active; 'I' for Inactive)
REMARK    1  A    between atoms: C_2  and  S_1 
REMARK    2  A    between atoms: N_4  and  S_1 
REMARK    3  A    between atoms: C_11  and  N_4 
REMARK    4  A    between atoms: O_14  and  C_5 
REMARK    5  A    between atoms: O_15  and  C_7 
ROOT
ATOM      1  C   UNL d   1      60.139  48.609  50.991  0.00  0.00     0.129 A 
ATOM      2  C   UNL d   1      60.195  47.865  51.345  0.00  0.00     0.040 A 
ATOM      3  C   UNL d   1      60.687  48.829  50.421  0.00  0.00     0.107 A 
ATOM      4  C   UNL d   1      61.290  48.319  50.198  0.00  0.00     0.034 A 
ATOM      5  C   UNL d   1      60.799  47.347  51.126  0.00  0.00     0.101 A 
ATOM      6  C   UNL d   1      61.347  47.574  50.552  0.00  0.00     0.059 A 
ATOM      7 BR   UNL d   1      61.951  47.049  50.336  0.00  0.00    -0.047 Br
ENDROOT
BRANCH   1   8
ATOM      8  S   UNL d   1      59.535  49.119  51.214  0.00  0.00     0.287 S 
ATOM      9  O   UNL d   1      58.978  48.538  51.075  0.00  0.00    -0.198 OA
ATOM     10  O   UNL d   1      60.095  49.708  51.355  0.00  0.00    -0.198 OA
BRANCH   8  11
ATOM     11  N   UNL d   1      58.934  49.637  51.439  0.00  0.00    -0.157 NA
BRANCH  11  12
ATOM     12  C   UNL d   1      58.229  49.658  51.011  0.00  0.00     0.113 A 
ATOM     13  C   UNL d   1      58.245  49.653  50.193  0.00  0.00     0.119 A 
ATOM     14  N   UNL d   1      57.539  49.674  49.766  0.00  0.00    -0.241 NA
ATOM     15  C   UNL d   1      56.810  49.699  50.165  0.00  0.00     0.099 A 
ATOM     16  C   UNL d   1      56.801  49.704  50.992  0.00  0.00     0.022 A 
ATOM     17  C   UNL d   1      57.507  49.683  51.419  0.00  0.00     0.023 A 
ENDBRANCH  11  12
ENDBRANCH   8  11
ENDBRANCH   1   8
BRANCH   3  18
ATOM     18  O   UNL d   1      60.631  49.574  50.066  0.00  0.00    -0.327 OA
ATOM     19  C   UNL d   1      60.921  49.691  49.303  0.00  0.00     0.181 C 
ENDBRANCH   3  18
BRANCH   5  20
ATOM     20  O   UNL d   1      60.855  46.601  51.480  0.00  0.00    -0.328 OA
ATOM     21  C   UNL d   1      60.792  45.920  51.021  0.00  0.00     0.181 C 
ENDBRANCH   5  20
TORSDOF 5
ENDMDL
