MODEL 1
REMARK VINA RESULT:      -2.8      0.000      0.000
REMARK  3 active torsions:
REMARK  status: ('A' for Active; 'I' for Inactive)
REMARK    1  A    between atoms: C_6  and  C_1 
REMARK    2  A    between atoms: C_5  and  N_2 
REMARK    3  A    between atoms: N_4  and  C_6 
ROOT
ATOM      1  N   UNL d   1      31.107  17.090 -24.062  0.00  0.00    -0.299 N 
ATOM      2  N   UNL d   1      32.461  17.913 -23.794  0.00  0.00    -0.300 N 
ATOM      3  C   UNL d   1      31.114  17.894 -24.161  0.00  0.00     0.100 A 
ATOM      4  C   UNL d   1      31.784  16.683 -23.826  0.00  0.00     0.100 A 
ATOM      5  C   UNL d   1      31.791  18.306 -24.026  0.00  0.00     0.100 A 
ATOM      6  C   UNL d   1      32.462  17.095 -23.692  0.00  0.00     0.100 A 
ENDROOT
BRANCH   2   7
ATOM      7  C   UNL d   1      33.178  18.331 -23.649  0.00  0.00     0.084 C 
BRANCH   7   8
ATOM      8  C   UNL d   1      33.197  19.175 -23.611  0.00  0.00     0.057 A 
ATOM      9  C   UNL d   1      33.209  19.511 -22.883  0.00  0.00     0.004 A 
ATOM     10  C   UNL d   1      33.228  20.372 -22.833  0.00  0.00     0.000 A 
ATOM     11  C   UNL d   1      33.205  19.062 -22.191  0.00  0.00     0.000 A 
ATOM     12  C   UNL d   1      33.241  20.730 -22.091  0.00  0.00     0.000 A 
ATOM     13  C   UNL d   1      33.232  20.810 -23.507  0.00  0.00     0.003 A 
ATOM     14  C   UNL d   1      33.235  20.242 -21.425  0.00  0.00     0.000 A 
ATOM     15  C   UNL d   1      33.219  19.472 -21.446  0.00  0.00     0.000 A 
ATOM     16  C   UNL d   1      33.218  20.409 -24.267  0.00  0.00     0.042 A 
ATOM     17  C   UNL d   1      33.201  19.640 -24.288  0.00  0.00     0.197 A 
ATOM     18  O   UNL d   1      33.188  19.271 -25.052  0.00  0.00    -0.286 OA
ENDBRANCH   7   8
ENDBRANCH   2   7
BRANCH   1  19
ATOM     19  C   UNL d   1      30.398  16.658 -24.203  0.00  0.00     0.092 A 
ATOM     20  C   UNL d   1      30.080  16.197 -23.592  0.00  0.00     0.156 A 
ATOM     21  F   UNL d   1      30.439  16.150 -22.851  0.00  0.00    -0.203 F 
ATOM     22  C   UNL d   1      29.364  15.762 -23.734  0.00  0.00     0.031 A 
ATOM     23  C   UNL d   1      29.004  15.811 -24.479  0.00  0.00     0.002 A 
ATOM     24  C   UNL d   1      29.323  16.264 -25.070  0.00  0.00     0.002 A 
ATOM     25  C   UNL d   1      30.039  16.700 -24.928  0.00  0.00     0.020 A 
ENDBRANCH   1  19
TORSDOF 3
ENDMDL
MODEL 2
REMARK VINA RESULT:      -2.5      1.708      4.559
REMARK  3 active torsions:
REMARK  status: ('A' for Active; 'I' for Inactive)
REMARK    1  A    between atoms: C_6  and  C_1 
REMARK    2  A    between atoms: C_5  and  N_2 
REMARK    3  A    between atoms: N_4  and  C_6 
ROOT
ATOM      1  N   UNL d   1      33.069  20.152 -22.109  0.00  0.00    -0.299 N 
ATOM      2  N   UNL d   1      33.180  19.009 -23.234  0.00  0.00    -0.300 N 
ATOM      3  C   UNL d   1      33.185  20.361 -22.884  0.00  0.00     0.100 A 
ATOM      4  C   UNL d   1      33.007  19.361 -21.886  0.00  0.00     0.100 A 
ATOM      5  C   UNL d   1      33.240  19.789 -23.447  0.00  0.00     0.100 A 
ATOM      6  C   UNL d   1      33.062  18.789 -22.448  0.00  0.00     0.100 A 
ENDROOT
BRANCH   2   7
ATOM      7  C   UNL d   1      33.236  18.399 -23.812  0.00  0.00     0.084 C 
BRANCH   7   8
ATOM      8  C   UNL d   1      32.548  18.080 -24.184  0.00  0.00     0.057 A 
ATOM      9  C   UNL d   1      32.324  17.340 -23.974  0.00  0.00     0.004 A 
ATOM     10  C   UNL d   1      31.622  17.005 -24.348  0.00  0.00     0.000 A 
ATOM     11  C   UNL d   1      32.740  16.896 -23.417  0.00  0.00     0.000 A 
ATOM     12  C   UNL d   1      31.382  16.245 -24.141  0.00  0.00     0.000 A 
ATOM     13  C   UNL d   1      31.216  17.437 -24.891  0.00  0.00     0.003 A 
ATOM     14  C   UNL d   1      31.828  15.836 -23.578  0.00  0.00     0.000 A 
ATOM     15  C   UNL d   1      32.457  16.115 -23.231  0.00  0.00     0.000 A 
ATOM     16  C   UNL d   1      31.491  18.227 -25.088  0.00  0.00     0.042 A 
ATOM     17  C   UNL d   1      32.120  18.505 -24.741  0.00  0.00     0.197 A 
ATOM     18  O   UNL d   1      32.367  19.288 -24.955  0.00  0.00    -0.286 OA
ENDBRANCH   7   8
ENDBRANCH   2   7
BRANCH   1  19
ATOM     19  C   UNL d   1      33.011  20.751 -21.520  0.00  0.00     0.092 A 
ATOM     20  C   UNL d   1      32.719  21.497 -21.733  0.00  0.00     0.156 A 
ATOM     21  F   UNL d   1      32.485  21.669 -22.505  0.00  0.00    -0.203 F 
ATOM     22  C   UNL d   1      32.661  22.102 -21.138  0.00  0.00     0.031 A 
ATOM     23  C   UNL d   1      32.897  21.927 -20.363  0.00  0.00     0.002 A 
ATOM     24  C   UNL d   1      33.181  21.195 -20.165  0.00  0.00     0.002 A 
ATOM     25  C   UNL d   1      33.240  20.591 -20.760  0.00  0.00     0.020 A 
ENDBRANCH   1  19
TORSDOF 3
ENDMDL
MODEL 3
REMARK VINA RESULT:      -1.8      0.874      1.544
REMARK  3 active torsions:
REMARK  status: ('A' for Active; 'I' for Inactive)
REMARK    1  A    between atoms: C_6  and  C_1 
REMARK    2  A    between atoms: C_5  and  N_2 
REMARK    3  A    between atoms: N_4  and  C_6 
ROOT
ATOM      1  N   UNL d   1      31.369  17.353 -24.333  0.00  0.00    -0.299 N 
ATOM      2  N   UNL d   1      32.591  18.380 -24.143  0.00  0.00    -0.300 N 
ATOM      3  C   UNL d   1      31.245  18.060 -23.957  0.00  0.00     0.100 A 
ATOM      4  C   UNL d   1      32.114  17.149 -24.621  0.00  0.00     0.100 A 
ATOM      5  C   UNL d   1      31.856  18.574 -23.862  0.00  0.00     0.100 A 
ATOM      6  C   UNL d   1      32.725  17.663 -24.526  0.00  0.00     0.100 A 
ENDROOT
BRANCH   2   7
ATOM      7  C   UNL d   1      33.241  18.908 -24.051  0.00  0.00     0.084 C 
BRANCH   7   8
ATOM      8  C   UNL d   1      33.241  19.508 -23.456  0.00  0.00     0.057 A 
ATOM      9  C   UNL d   1      33.241  20.271 -23.702  0.00  0.00     0.004 A 
ATOM     10  C   UNL d   1      33.240  20.892 -23.102  0.00  0.00     0.000 A 
ATOM     11  C   UNL d   1      33.241  20.476 -24.501  0.00  0.00     0.000 A 
ATOM     12  C   UNL d   1      33.240  21.680 -23.341  0.00  0.00     0.000 A 
ATOM     13  C   UNL d   1      33.240  20.692 -22.323  0.00  0.00     0.003 A 
ATOM     14  C   UNL d   1      33.241  21.840 -24.151  0.00  0.00     0.000 A 
ATOM     15  C   UNL d   1      33.241  21.302 -24.704  0.00  0.00     0.000 A 
ATOM     16  C   UNL d   1      33.240  19.862 -22.103  0.00  0.00     0.042 A 
ATOM     17  C   UNL d   1      33.240  19.325 -22.656  0.00  0.00     0.197 A 
ATOM     18  O   UNL d   1      33.240  18.513 -22.409  0.00  0.00    -0.286 OA
ENDBRANCH   7   8
ENDBRANCH   2   7
BRANCH   1  19
ATOM     19  C   UNL d   1      30.729  16.815 -24.432  0.00  0.00     0.092 A 
ATOM     20  C   UNL d   1      30.783  16.059 -24.097  0.00  0.00     0.156 A 
ATOM     21  F   UNL d   1      31.447  15.820 -23.669  0.00  0.00    -0.203 F 
ATOM     22  C   UNL d   1      30.137  15.516 -24.197  0.00  0.00     0.031 A 
ATOM     23  C   UNL d   1      29.471  15.758 -24.628  0.00  0.00     0.002 A 
ATOM     24  C   UNL d   1      29.428  16.499 -24.951  0.00  0.00     0.002 A 
ATOM     25  C   UNL d   1      30.074  17.043 -24.851  0.00  0.00     0.020 A 
ENDBRANCH   1  19
TORSDOF 3
ENDMDL
MODEL 4
REMARK VINA RESULT:      -1.6      1.869      2.984
REMARK  3 active torsions:
REMARK  status: ('A' for Active; 'I' for Inactive)
REMARK    1  A    between atoms: C_6  and  C_1 
REMARK    2  A    between atoms: C_5  and  N_2 
REMARK    3  A    between atoms: N_4  and  C_6 
ROOT
ATOM      1  N   UNL d   1      32.417  18.735 -23.451  0.00  0.00    -0.299 N 
ATOM      2  N   UNL d   1      32.952  20.102 -22.795  0.00  0.00    -0.300 N 
ATOM      3  C   UNL d   1      32.157  19.448 -23.738  0.00  0.00     0.100 A 
ATOM      4  C   UNL d   1      32.953  18.698 -22.826  0.00  0.00     0.100 A 
ATOM      5  C   UNL d   1      32.424  20.131 -23.409  0.00  0.00     0.100 A 
ATOM      6  C   UNL d   1      33.221  19.382 -22.498  0.00  0.00     0.100 A 
ENDROOT
BRANCH   2   7
ATOM      7  C   UNL d   1      33.241  20.810 -22.441  0.00  0.00     0.084 C 
BRANCH   7   8
ATOM      8  C   UNL d   1      32.842  21.172 -21.790  0.00  0.00     0.057 A 
ATOM      9  C   UNL d   1      32.625  21.939 -21.871  0.00  0.00     0.004 A 
ATOM     10  C   UNL d   1      32.216  22.318 -21.212  0.00  0.00     0.000 A 
ATOM     11  C   UNL d   1      32.779  22.369 -22.558  0.00  0.00     0.000 A 
ATOM     12  C   UNL d   1      31.988  23.106 -21.283  0.00  0.00     0.000 A 
ATOM     13  C   UNL d   1      32.066  21.899 -20.543  0.00  0.00     0.003 A 
ATOM     14  C   UNL d   1      32.162  23.500 -21.988  0.00  0.00     0.000 A 
ATOM     15  C   UNL d   1      32.525  23.181 -22.589  0.00  0.00     0.000 A 
ATOM     16  C   UNL d   1      32.316  21.078 -20.498  0.00  0.00     0.042 A 
ATOM     17  C   UNL d   1      32.679  20.761 -21.098  0.00  0.00     0.197 A 
ATOM     18  O   UNL d   1      32.915  19.949 -21.025  0.00  0.00    -0.286 OA
ENDBRANCH   7   8
ENDBRANCH   2   7
BRANCH   1  19
ATOM     19  C   UNL d   1      32.137  18.019 -23.794  0.00  0.00     0.092 A 
ATOM     20  C   UNL d   1      32.464  17.762 -24.511  0.00  0.00     0.156 A 
ATOM     21  F   UNL d   1      33.056  18.188 -24.896  0.00  0.00    -0.203 F 
ATOM     22  C   UNL d   1      32.181  17.040 -24.858  0.00  0.00     0.031 A 
ATOM     23  C   UNL d   1      31.586  16.613 -24.470  0.00  0.00     0.002 A 
ATOM     24  C   UNL d   1      31.272  16.873 -23.770  0.00  0.00     0.002 A 
ATOM     25  C   UNL d   1      31.555  17.596 -23.423  0.00  0.00     0.020 A 
ENDBRANCH   1  19
TORSDOF 3
ENDMDL
