MODEL 1
REMARK VINA RESULT:      34.6      0.000      0.000
REMARK  6 active torsions:
REMARK  status: ('A' for Active; 'I' for Inactive)
REMARK    1  A    between atoms: C_2  and  S_1 
REMARK    2  A    between atoms: N_5  and  S_1 
REMARK    3  A    between atoms: C_14  and  N_5 
REMARK    4  A    between atoms: C_7  and  C_6 
REMARK    5  A    between atoms: C_19  and  C_14 
REMARK    6  A    between atoms: O_18  and  C_19 
ROOT
ATOM      1  C   UNL d   1      45.130 -14.989  36.939  0.00  0.00     0.105 A 
ATOM      2  C   UNL d   1      43.598 -15.602  36.740  0.00  0.00     0.000 A 
ATOM      3  C   UNL d   1      44.900 -15.667  37.349  0.00  0.00     0.013 A 
ATOM      4  C   UNL d   1      44.598 -14.616  36.430  0.00  0.00     0.013 A 
ATOM      5  C   UNL d   1      43.828 -14.924  36.330  0.00  0.00     0.001 A 
ATOM      6  C   UNL d   1      44.129 -15.976  37.248  0.00  0.00     0.001 A 
ENDROOT
BRANCH   1   7
ATOM      7  S   UNL d   1      45.890 -14.681  37.036  0.00  0.00     0.285 S 
ATOM      8  O   UNL d   1      46.646 -14.379  37.129  0.00  0.00    -0.198 OA
ATOM      9  O   UNL d   1      46.201 -15.296  36.587  0.00  0.00    -0.198 OA
BRANCH   7  10
ATOM     10  N   UNL d   1      45.586 -14.067  37.483  0.00  0.00    -0.155 NA
BRANCH  10  11
ATOM     11  C   UNL d   1      46.058 -13.696  38.059  0.00  0.00     0.138 C 
BRANCH  11  12
ATOM     12  C   UNL d   1      45.772 -13.037  38.455  0.00  0.00     0.138 C 
BRANCH  12  13
ATOM     13  O   UNL d   1      45.140 -13.111  38.989  0.00  0.00    -0.325 OA
ATOM     14  C   UNL d   1      45.166 -12.743  39.723  0.00  0.00     0.182 C 
ENDBRANCH  12  13
ENDBRANCH  11  12
ENDBRANCH  10  11
ENDBRANCH   7  10
ENDBRANCH   1   7
BRANCH   2  15
ATOM     15  C   UNL d   1      42.843 -15.902  36.639  0.00  0.00     0.000 A 
ATOM     16  C   UNL d   1      42.218 -15.390  36.469  0.00  0.00     0.000 A 
ATOM     17  C   UNL d   1      41.454 -15.685  36.365  0.00  0.00     0.000 A 
ATOM     18  C   UNL d   1      41.318 -16.507  36.435  0.00  0.00     0.000 A 
ATOM     19  C   UNL d   1      41.943 -17.019  36.605  0.00  0.00     0.000 A 
ATOM     20  C   UNL d   1      40.554 -16.806  36.333  0.00  0.00     0.000 C 
ATOM     21  C   UNL d   1      42.706 -16.720  36.708  0.00  0.00     0.000 A 
ENDBRANCH   2  15
TORSDOF 6
ENDMDL
