MODEL 1
REMARK VINA RESULT:      31.5      0.000      0.000
REMARK  6 active torsions:
REMARK  status: ('A' for Active; 'I' for Inactive)
REMARK    1  A    between atoms: C_11  and  N_4 
REMARK    2  A    between atoms: C_19  and  C_7 
REMARK    3  A    between atoms: C_17  and  C_11 
REMARK    4  A    between atoms: O_21  and  C_16 
REMARK    5  A    between atoms: C_20  and  C_17 
REMARK    6  A    between atoms: C_25  and  C_19 
ROOT
ATOM      1  C   UNL d   1      46.016 -16.499  43.812  0.00  0.00     0.137 A 
ATOM      2  C   UNL d   1      45.705 -16.564  44.576  0.00  0.00     0.192 A 
ATOM      3  C   UNL d   1      46.318 -17.163  43.429  0.00  0.00     0.272 A 
ATOM      4  N   UNL d   1      46.310 -17.893  43.808  0.00  0.00    -0.258 N 
ATOM      5  N   UNL d   1      45.695 -17.290  44.955  0.00  0.00    -0.204 NA
ATOM      6  C   UNL d   1      46.024 -15.765  43.434  0.00  0.00     0.205 A 
ATOM      7  C   UNL d   1      45.999 -17.962  44.571  0.00  0.00     0.152 A 
ATOM      8  C   UNL d   1      45.726 -15.108  43.811  0.00  0.00     0.062 A 
ATOM      9  O   UNL d   1      45.406 -15.899  44.952  0.00  0.00    -0.289 OA
ATOM     10  C   UNL d   1      45.416 -15.169  44.570  0.00  0.00     0.107 A 
ATOM     11  C   UNL d   1      45.112 -14.497  44.954  0.00  0.00     0.049 A 
ATOM     12  C   UNL d   1      45.736 -14.374  43.427  0.00  0.00     0.007 A 
ATOM     13  O   UNL d   1      46.627 -17.094  42.669  0.00  0.00    -0.266 OA
ATOM     14  O   UNL d   1      46.334 -15.704  42.675  0.00  0.00    -0.286 OA
ATOM     15  C   UNL d   1      45.123 -13.770  44.571  0.00  0.00     0.096 A 
ATOM     16  C   UNL d   1      45.433 -13.709  43.812  0.00  0.00     0.024 A 
ENDROOT
BRANCH   4  17
ATOM     17  C   UNL d   1      46.612 -18.557  43.423  0.00  0.00     0.084 C 
BRANCH  17  18
ATOM     18  C   UNL d   1      46.109 -19.052  42.977  0.00  0.00     0.019 C 
BRANCH  18  19
ATOM     19  C   UNL d   1      46.287 -19.215  42.186  0.00  0.00     0.002 A 
ATOM     20  C   UNL d   1      46.441 -19.999  41.958  0.00  0.00     0.000 A 
ATOM     21  C   UNL d   1      46.621 -20.169  41.161  0.00  0.00     0.000 A 
ATOM     22  C   UNL d   1      46.647 -19.558  40.600  0.00  0.00     0.000 A 
ATOM     23  C   UNL d   1      46.491 -18.773  40.838  0.00  0.00     0.000 A 
ATOM     24  C   UNL d   1      46.313 -18.609  41.629  0.00  0.00     0.000 A 
ENDBRANCH  18  19
ENDBRANCH  17  18
ENDBRANCH   4  17
BRANCH   7  25
ATOM     25  C   UNL d   1      45.989 -18.693  44.954  0.00  0.00     0.038 C 
BRANCH  25  26
ATOM     26  C   UNL d   1      46.148 -19.384  44.537  0.00  0.00     0.003 C 
ATOM     27  C   UNL d   1      46.032 -20.110  44.895  0.00  0.00     0.000 C 
ENDBRANCH  25  26
ENDBRANCH   7  25
BRANCH  15  28
ATOM     28  O   UNL d   1      44.827 -13.105  44.940  0.00  0.00    -0.328 OA
ATOM     29  C   UNL d   1      44.026 -12.925  44.872  0.00  0.00     0.181 C 
ENDBRANCH  15  28
TORSDOF 6
ENDMDL
