MODEL 1
REMARK VINA RESULT:      17.3      0.000      0.000
REMARK  3 active torsions:
REMARK  status: ('A' for Active; 'I' for Inactive)
REMARK    1  A    between atoms: C_3  and  C_9 
REMARK    2  A    between atoms: C_6  and  C_4 
REMARK    3  A    between atoms: C_9  and  C_6 
ROOT
ATOM      1  C   UNL d   1     -57.003 -98.944 -45.232  0.00  0.00     0.199 A 
ATOM      2  C   UNL d   1     -56.190 -98.957 -45.283  0.00  0.00     0.084 A 
ATOM      3  C   UNL d   1     -57.374 -98.849 -44.502  0.00  0.00     0.039 A 
ATOM      4  C   UNL d   1     -56.926 -98.769 -43.832  0.00  0.00     0.006 A 
ATOM      5  C   UNL d   1     -55.742 -98.875 -44.601  0.00  0.00     0.199 A 
ATOM      6  O   UNL d   1     -57.454 -99.027 -45.922  0.00  0.00    -0.286 OA
ATOM      7  C   UNL d   1     -56.113 -98.780 -43.870  0.00  0.00     0.042 A 
ATOM      8  O   UNL d   1     -54.929 -98.888 -44.652  0.00  0.00    -0.286 OA
ENDROOT
BRANCH   3   9
ATOM      9  C   UNL d   1     -58.198 -98.836 -44.455  0.00  0.00     0.009 C 
BRANCH   9  10
ATOM     10  C   UNL d   1     -58.570 -98.859 -43.719  0.00  0.00     0.070 C 
BRANCH  10  11
ATOM     11  C   UNL d   1     -59.376 -99.030 -43.670  0.00  0.00     0.211 C 
ATOM     12  O   UNL d   1     -59.824 -99.081 -44.355  0.00  0.00    -0.644 OA
ATOM     13  O   UNL d   1     -59.721 -99.145 -42.949  0.00  0.00    -0.644 OA
ENDBRANCH  10  11
ENDBRANCH   9  10
ENDBRANCH   3   9
TORSDOF 3
ENDMDL
MODEL 2
REMARK VINA RESULT:      19.2      1.570      2.124
REMARK  3 active torsions:
REMARK  status: ('A' for Active; 'I' for Inactive)
REMARK    1  A    between atoms: C_3  and  C_9 
REMARK    2  A    between atoms: C_6  and  C_4 
REMARK    3  A    between atoms: C_9  and  C_6 
ROOT
ATOM      1  C   UNL d   1     -55.200 -99.657 -44.481  0.00  0.00     0.199 A 
ATOM      2  C   UNL d   1     -54.774-100.335 -44.630  0.00  0.00     0.084 A 
ATOM      3  C   UNL d   1     -55.999 -99.703 -44.279  0.00  0.00     0.039 A 
ATOM      4  C   UNL d   1     -56.359-100.426 -44.229  0.00  0.00     0.006 A 
ATOM      5  C   UNL d   1     -55.144-101.065 -44.578  0.00  0.00     0.199 A 
ATOM      6  O   UNL d   1     -54.824 -98.922 -44.534  0.00  0.00    -0.286 OA
ATOM      7  C   UNL d   1     -55.943-101.111 -44.376  0.00  0.00     0.042 A 
ATOM      8  O   UNL d   1     -54.718-101.743 -44.727  0.00  0.00    -0.286 OA
ENDROOT
BRANCH   3   9
ATOM      9  C   UNL d   1     -56.427 -99.013 -44.129  0.00  0.00     0.009 C 
BRANCH   9  10
ATOM     10  C   UNL d   1     -56.995 -98.756 -44.668  0.00  0.00     0.070 C 
BRANCH  10  11
ATOM     11  C   UNL d   1     -57.795 -98.768 -44.462  0.00  0.00     0.211 C 
ATOM     12  O   UNL d   1     -58.367 -98.786 -45.050  0.00  0.00    -0.644 OA
ATOM     13  O   UNL d   1     -58.011 -98.763 -43.685  0.00  0.00    -0.644 OA
ENDBRANCH  10  11
ENDBRANCH   9  10
ENDBRANCH   3   9
TORSDOF 3
ENDMDL
