MODEL 1
REMARK VINA RESULT:      37.0      0.000      0.000
REMARK  4 active torsions:
REMARK  status: ('A' for Active; 'I' for Inactive)
REMARK    1  A    between atoms: C_11  and  C_3 
REMARK    2  A    between atoms: C_10  and  N_5 
REMARK    3  A    between atoms: O_17  and  C_11 
REMARK    4  A    between atoms: C_22  and  O_17 
ROOT
ATOM      1  C   UNL d   1      14.088  14.023  -3.016  0.00  0.00     0.086 A 
ATOM      2  C   UNL d   1      13.811  13.561  -3.641  0.00  0.00     0.038 A 
ATOM      3  C   UNL d   1      13.692  12.747  -3.552  0.00  0.00     0.165 A 
ATOM      4  C   UNL d   1      14.248  13.657  -2.293  0.00  0.00     0.282 A 
ATOM      5  N   UNL d   1      14.135  12.859  -2.196  0.00  0.00    -0.194 N 
ATOM      6  N   UNL d   1      13.857  12.404  -2.826  0.00  0.00    -0.157 NA
ATOM      7  C   UNL d   1      14.147  14.804  -3.278  0.00  0.00     0.137 A 
ATOM      8  C   UNL d   1      13.697  14.061  -4.294  0.00  0.00     0.039 A 
ATOM      9  S   UNL d   1      13.905  14.826  -4.066  0.00  0.00    -0.066 SA
ATOM     10  O   UNL d   1      14.526  14.112  -1.663  0.00  0.00    -0.265 OA
ATOM     11  N   UNL d   1      14.401  15.441  -2.830  0.00  0.00    -0.141 N 
ENDROOT
BRANCH   5  12
ATOM     12  C   UNL d   1      14.297  12.498  -1.466  0.00  0.00     0.087 A 
ATOM     13  C   UNL d   1      15.069  12.331  -1.259  0.00  0.00     0.031 A 
ATOM     14  C   UNL d   1      15.246  11.976  -0.544  0.00  0.00     0.059 A 
ATOM     15 CL   UNL d   1      16.026  11.807  -0.335  0.00  0.00    -0.082 Cl
ATOM     16  C   UNL d   1      14.626  11.782  -0.020  0.00  0.00     0.011 A 
ATOM     17  C   UNL d   1      13.847  11.950  -0.229  0.00  0.00     0.002 A 
ATOM     18  C   UNL d   1      13.682  12.308  -0.952  0.00  0.00     0.019 A 
ENDBRANCH   5  12
BRANCH   3  19
ATOM     19  C   UNL d   1      13.415  12.293  -4.182  0.00  0.00     0.320 C 
ATOM     20  O   UNL d   1      12.779  11.781  -4.072  0.00  0.00    -0.257 OA
BRANCH  19  21
ATOM     21  O   UNL d   1      13.778  12.352  -4.925  0.00  0.00    -0.270 OA
BRANCH  21  22
ATOM     22  C   UNL d   1      13.523  11.881  -5.551  0.00  0.00     0.126 C 
ATOM     23  C   UNL d   1      13.880  11.949  -6.293  0.00  0.00     0.029 C 
ENDBRANCH  21  22
ENDBRANCH  19  21
ENDBRANCH   3  19
TORSDOF 4
ENDMDL
MODEL 2
REMARK VINA RESULT:      37.9      1.729      3.479
REMARK  4 active torsions:
REMARK  status: ('A' for Active; 'I' for Inactive)
REMARK    1  A    between atoms: C_11  and  C_3 
REMARK    2  A    between atoms: C_10  and  N_5 
REMARK    3  A    between atoms: O_17  and  C_11 
REMARK    4  A    between atoms: C_22  and  O_17 
ROOT
ATOM      1  C   UNL d   1      13.357  13.039  -3.884  0.00  0.00     0.086 A 
ATOM      2  C   UNL d   1      13.464  12.522  -3.249  0.00  0.00     0.038 A 
ATOM      3  C   UNL d   1      13.829  12.774  -2.551  0.00  0.00     0.165 A 
ATOM      4  C   UNL d   1      13.622  13.817  -3.812  0.00  0.00     0.282 A 
ATOM      5  N   UNL d   1      13.981  14.073  -3.130  0.00  0.00    -0.194 N 
ATOM      6  N   UNL d   1      14.084  13.551  -2.500  0.00  0.00    -0.157 NA
ATOM      7  C   UNL d   1      12.981  12.624  -4.492  0.00  0.00     0.137 A 
ATOM      8  C   UNL d   1      13.152  11.784  -3.466  0.00  0.00     0.039 A 
ATOM      9  S   UNL d   1      12.855  11.852  -4.233  0.00  0.00    -0.066 SA
ATOM     10  O   UNL d   1      13.518  14.339  -4.442  0.00  0.00    -0.265 OA
ATOM     11  N   UNL d   1      12.772  12.932  -5.222  0.00  0.00    -0.141 N 
ENDROOT
BRANCH   5  12
ATOM     12  C   UNL d   1      14.244  14.858  -3.064  0.00  0.00     0.087 A 
ATOM     13  C   UNL d   1      14.532  15.131  -2.351  0.00  0.00     0.031 A 
ATOM     14  C   UNL d   1      14.795  15.900  -2.269  0.00  0.00     0.059 A 
ATOM     15 CL   UNL d   1      15.086  16.176  -1.548  0.00  0.00    -0.082 Cl
ATOM     16  C   UNL d   1      14.768  16.413  -2.927  0.00  0.00     0.011 A 
ATOM     17  C   UNL d   1      14.478  16.138  -3.647  0.00  0.00     0.002 A 
ATOM     18  C   UNL d   1      14.216  15.361  -3.717  0.00  0.00     0.019 A 
ENDBRANCH   5  12
BRANCH   3  19
ATOM     19  C   UNL d   1      13.933  12.252  -1.920  0.00  0.00     0.320 C 
ATOM     20  O   UNL d   1      13.295  11.814  -1.638  0.00  0.00    -0.257 OA
BRANCH  19  21
ATOM     21  O   UNL d   1      14.681  12.170  -1.572  0.00  0.00    -0.270 OA
BRANCH  21  22
ATOM     22  C   UNL d   1      14.755  11.843  -0.820  0.00  0.00     0.126 C 
ATOM     23  C   UNL d   1      15.285  12.169  -0.276  0.00  0.00     0.029 C 
ENDBRANCH  21  22
ENDBRANCH  19  21
ENDBRANCH   3  19
TORSDOF 4
ENDMDL
MODEL 3
REMARK VINA RESULT:      39.1      2.035      3.658
REMARK  4 active torsions:
REMARK  status: ('A' for Active; 'I' for Inactive)
REMARK    1  A    between atoms: C_11  and  C_3 
REMARK    2  A    between atoms: C_10  and  N_5 
REMARK    3  A    between atoms: O_17  and  C_11 
REMARK    4  A    between atoms: C_22  and  O_17 
ROOT
ATOM      1  C   UNL d   1      14.814  14.493  -1.192  0.00  0.00     0.086 A 
ATOM      2  C   UNL d   1      14.955  13.804  -0.760  0.00  0.00     0.038 A 
ATOM      3  C   UNL d   1      14.743  13.062  -1.057  0.00  0.00     0.165 A 
ATOM      4  C   UNL d   1      14.454  14.430  -1.933  0.00  0.00     0.282 A 
ATOM      5  N   UNL d   1      14.242  13.706  -2.233  0.00  0.00    -0.194 N 
ATOM      6  N   UNL d   1      14.387  13.022  -1.795  0.00  0.00    -0.157 NA
ATOM      7  C   UNL d   1      15.086  15.135  -0.749  0.00  0.00     0.137 A 
ATOM      8  C   UNL d   1      15.317  14.022  -0.045  0.00  0.00     0.039 A 
ATOM      9  S   UNL d   1      15.396  14.843  -0.043  0.00  0.00    -0.066 SA
ATOM     10  O   UNL d   1      14.310  15.114  -2.371  0.00  0.00    -0.265 OA
ATOM     11  N   UNL d   1      15.052  15.922  -0.977  0.00  0.00    -0.141 N 
ENDROOT
BRANCH   5  12
ATOM     12  C   UNL d   1      13.881  13.651  -2.979  0.00  0.00     0.087 A 
ATOM     13  C   UNL d   1      13.686  12.918  -3.281  0.00  0.00     0.031 A 
ATOM     14  C   UNL d   1      13.330  12.846  -4.013  0.00  0.00     0.059 A 
ATOM     15 CL   UNL d   1      13.133  12.106  -4.319  0.00  0.00    -0.082 Cl
ATOM     16  C   UNL d   1      13.165  13.534  -4.456  0.00  0.00     0.011 A 
ATOM     17  C   UNL d   1      13.362  14.273  -4.151  0.00  0.00     0.002 A 
ATOM     18  C   UNL d   1      13.720  14.333  -3.412  0.00  0.00     0.019 A 
ENDBRANCH   5  12
BRANCH   3  19
ATOM     19  C   UNL d   1      14.887  12.378  -0.619  0.00  0.00     0.320 C 
ATOM     20  O   UNL d   1      15.618  12.002  -0.670  0.00  0.00    -0.257 OA
BRANCH  19  21
ATOM     21  O   UNL d   1      14.294  12.070  -0.128  0.00  0.00    -0.270 OA
BRANCH  21  22
ATOM     22  C   UNL d   1      13.595  11.780  -0.454  0.00  0.00     0.126 C 
ATOM     23  C   UNL d   1      12.891  11.812  -0.021  0.00  0.00     0.029 C 
ENDBRANCH  21  22
ENDBRANCH  19  21
ENDBRANCH   3  19
TORSDOF 4
ENDMDL
