MODEL 1
REMARK VINA RESULT:      -4.7      0.000      0.000
REMARK  6 active torsions:
REMARK  status: ('A' for Active; 'I' for Inactive)
REMARK    1  A    between atoms: C_2  and  S_1 
REMARK    2  A    between atoms: N_3  and  S_1 
REMARK    3  A    between atoms: C_10  and  N_3 
REMARK    4  A    between atoms: O_15  and  C_5 
REMARK    5  A    between atoms: C_13  and  C_10 
REMARK    6  A    between atoms: C_17  and  O_15 
ROOT
ATOM      1  S   UNL d   1      57.882   0.232  30.681  0.00  0.00     0.285 S 
ATOM      2  O   UNL d   1      57.326   0.224  30.065  0.00  0.00    -0.198 OA
ATOM      3  O   UNL d   1      58.434   0.240  31.292  0.00  0.00    -0.198 OA
ENDROOT
BRANCH   1   4
ATOM      4  C   UNL d   1      58.487   0.097  30.136  0.00  0.00     0.107 A 
ATOM      5  C   UNL d   1      58.530  -0.627  29.738  0.00  0.00     0.038 A 
ATOM      6  C   UNL d   1      59.141  -0.763  29.188  0.00  0.00     0.111 A 
ATOM      7  C   UNL d   1      59.703  -0.174  29.041  0.00  0.00     0.081 A 
ATOM      8  C   UNL d   1      59.658   0.545  29.438  0.00  0.00     0.014 A 
ATOM      9 CL   UNL d   1      60.308  -0.309  28.496  0.00  0.00    -0.080 Cl
ATOM     10  C   UNL d   1      59.047   0.682  29.988  0.00  0.00     0.014 A 
BRANCH   6  11
ATOM     11  O   UNL d   1      59.185  -1.484  28.790  0.00  0.00    -0.304 OA
BRANCH  11  12
ATOM     12  C   UNL d   1      58.973  -2.178  29.178  0.00  0.00     0.123 C 
ATOM     13  C   UNL d   1      58.920  -2.883  28.754  0.00  0.00     0.029 C 
ENDBRANCH  11  12
ENDBRANCH   6  11
ENDBRANCH   1   4
BRANCH   1  14
ATOM     14  N   UNL d   1      57.277   0.367  31.225  0.00  0.00    -0.155 NA
BRANCH  14  15
ATOM     15  C   UNL d   1      57.280  -0.030  31.951  0.00  0.00     0.131 C 
BRANCH  15  16
ATOM     16  C   UNL d   1      56.602  -0.031  32.421  0.00  0.00     0.101 A 
ATOM     17  N   UNL d   1      56.279   0.680  32.682  0.00  0.00    -0.242 NA
ATOM     18  C   UNL d   1      55.601   0.678  33.152  0.00  0.00     0.099 A 
ATOM     19  C   UNL d   1      55.247  -0.035  33.361  0.00  0.00     0.021 A 
ATOM     20  C   UNL d   1      55.569  -0.750  33.101  0.00  0.00     0.003 A 
ATOM     21  C   UNL d   1      56.247  -0.749  32.630  0.00  0.00     0.021 A 
ENDBRANCH  15  16
ENDBRANCH  14  15
ENDBRANCH   1  14
TORSDOF 6
ENDMDL
MODEL 2
REMARK VINA RESULT:      -3.0      2.322      4.831
REMARK  6 active torsions:
REMARK  status: ('A' for Active; 'I' for Inactive)
REMARK    1  A    between atoms: C_2  and  S_1 
REMARK    2  A    between atoms: N_3  and  S_1 
REMARK    3  A    between atoms: C_10  and  N_3 
REMARK    4  A    between atoms: O_15  and  C_5 
REMARK    5  A    between atoms: C_13  and  C_10 
REMARK    6  A    between atoms: C_17  and  O_15 
ROOT
ATOM      1  S   UNL d   1      56.692  -0.479  31.672  0.00  0.00     0.285 S 
ATOM      2  O   UNL d   1      56.748  -1.282  31.876  0.00  0.00    -0.198 OA
ATOM      3  O   UNL d   1      56.637   0.318  31.470  0.00  0.00    -0.198 OA
ENDROOT
BRANCH   1   4
ATOM      4  C   UNL d   1      56.344  -0.318  32.403  0.00  0.00     0.107 A 
ATOM      5  C   UNL d   1      56.766   0.101  32.978  0.00  0.00     0.038 A 
ATOM      6  C   UNL d   1      56.414   0.264  33.715  0.00  0.00     0.111 A 
ATOM      7  C   UNL d   1      55.643   0.007  33.871  0.00  0.00     0.081 A 
ATOM      8  C   UNL d   1      55.225  -0.410  33.297  0.00  0.00     0.014 A 
ATOM      9 CL   UNL d   1      55.294   0.168  34.601  0.00  0.00    -0.080 Cl
ATOM     10  C   UNL d   1      55.577  -0.573  32.560  0.00  0.00     0.014 A 
BRANCH   6  11
ATOM     11  O   UNL d   1      56.832   0.681  34.290  0.00  0.00    -0.304 OA
BRANCH  11  12
ATOM     12  C   UNL d   1      57.655   0.678  34.279  0.00  0.00     0.123 C 
ATOM     13  C   UNL d   1      58.074   0.682  34.989  0.00  0.00     0.029 C 
ENDBRANCH  11  12
ENDBRANCH   6  11
ENDBRANCH   1   4
BRANCH   1  14
ATOM     14  N   UNL d   1      57.041  -0.640  30.942  0.00  0.00    -0.155 NA
BRANCH  14  15
ATOM     15  C   UNL d   1      57.865  -0.666  30.876  0.00  0.00     0.131 C 
BRANCH  15  16
ATOM     16  C   UNL d   1      58.214  -0.765  30.135  0.00  0.00     0.101 A 
ATOM     17  N   UNL d   1      58.364  -1.523  29.847  0.00  0.00    -0.242 NA
ATOM     18  C   UNL d   1      58.714  -1.621  29.106  0.00  0.00     0.099 A 
ATOM     19  C   UNL d   1      58.914  -0.963  28.654  0.00  0.00     0.021 A 
ATOM     20  C   UNL d   1      58.765  -0.202  28.941  0.00  0.00     0.003 A 
ATOM     21  C   UNL d   1      58.415  -0.103  29.681  0.00  0.00     0.021 A 
ENDBRANCH  15  16
ENDBRANCH  14  15
ENDBRANCH   1  14
TORSDOF 6
ENDMDL
MODEL 3
REMARK VINA RESULT:      -2.1      0.896      1.637
REMARK  6 active torsions:
REMARK  status: ('A' for Active; 'I' for Inactive)
REMARK    1  A    between atoms: C_2  and  S_1 
REMARK    2  A    between atoms: N_3  and  S_1 
REMARK    3  A    between atoms: C_10  and  N_3 
REMARK    4  A    between atoms: O_15  and  C_5 
REMARK    5  A    between atoms: C_13  and  C_10 
REMARK    6  A    between atoms: C_17  and  O_15 
ROOT
ATOM      1  S   UNL d   1      57.456  -0.128  30.977  0.00  0.00     0.285 S 
ATOM      2  O   UNL d   1      57.767  -0.696  31.496  0.00  0.00    -0.198 OA
ATOM      3  O   UNL d   1      57.148   0.436  30.461  0.00  0.00    -0.198 OA
ENDROOT
BRANCH   1   4
ATOM      4  C   UNL d   1      58.004  -0.353  30.403  0.00  0.00     0.107 A 
ATOM      5  C   UNL d   1      58.607   0.169  30.180  0.00  0.00     0.038 A 
ATOM      6  C   UNL d   1      59.160  -0.058  29.601  0.00  0.00     0.111 A 
ATOM      7  C   UNL d   1      59.107  -0.805  29.249  0.00  0.00     0.081 A 
ATOM      8  C   UNL d   1      58.507  -1.322  29.472  0.00  0.00     0.014 A 
ATOM      9 CL   UNL d   1      59.655  -1.029  28.675  0.00  0.00    -0.080 Cl
ATOM     10  C   UNL d   1      57.953  -1.095  30.051  0.00  0.00     0.014 A 
BRANCH   6  11
ATOM     11  O   UNL d   1      59.761   0.461  29.378  0.00  0.00    -0.304 OA
BRANCH  11  12
ATOM     12  C   UNL d   1      60.341   0.673  29.922  0.00  0.00     0.123 C 
ATOM     13  C   UNL d   1      61.133   0.679  29.695  0.00  0.00     0.029 C 
ENDBRANCH  11  12
ENDBRANCH   6  11
ENDBRANCH   1   4
BRANCH   1  14
ATOM     14  N   UNL d   1      56.908   0.097  31.551  0.00  0.00    -0.155 NA
BRANCH  14  15
ATOM     15  C   UNL d   1      56.747  -0.407  32.186  0.00  0.00     0.131 C 
BRANCH  15  16
ATOM     16  C   UNL d   1      56.204  -0.179  32.765  0.00  0.00     0.101 A 
ATOM     17  N   UNL d   1      55.694   0.454  32.626  0.00  0.00    -0.242 NA
ATOM     18  C   UNL d   1      55.152   0.682  33.204  0.00  0.00     0.099 A 
ATOM     19  C   UNL d   1      55.120   0.278  33.921  0.00  0.00     0.021 A 
ATOM     20  C   UNL d   1      55.631  -0.357  34.063  0.00  0.00     0.003 A 
ATOM     21  C   UNL d   1      56.173  -0.585  33.485  0.00  0.00     0.021 A 
ENDBRANCH  15  16
ENDBRANCH  14  15
ENDBRANCH   1  14
TORSDOF 6
ENDMDL
