MODEL 1
REMARK VINA RESULT:      23.1      0.000      0.000
REMARK  5 active torsions:
REMARK  status: ('A' for Active; 'I' for Inactive)
REMARK    1  A    between atoms: C_6  and  N_1 
REMARK    2  A    between atoms: C_8  and  C_3 
REMARK    3  A    between atoms: C_7  and  C_6 
REMARK    4  A    between atoms: C_9  and  C_7 
REMARK    5  A    between atoms: C_14  and  C_8 
ROOT
ATOM      1  N   UNL d   1     -58.350 -98.757 -44.515  0.00  0.00    -0.289 N 
ATOM      2  N   UNL d   1     -59.689 -98.758 -44.613  0.00  0.00    -0.227 NA
ATOM      3  C   UNL d   1     -58.983 -98.758 -45.050  0.00  0.00     0.148 A 
ATOM      4  C   UNL d   1     -58.664 -98.757 -43.748  0.00  0.00     0.083 A 
ATOM      5  C   UNL d   1     -59.487 -98.758 -43.806  0.00  0.00     0.099 A 
ATOM      6  C   UNL d   1     -58.309 -98.757 -42.997  0.00  0.00     0.019 A 
ATOM      7  C   UNL d   1     -59.954 -98.759 -43.127  0.00  0.00     0.021 A 
ATOM      8  C   UNL d   1     -58.777 -98.757 -42.322  0.00  0.00     0.002 A 
ATOM      9  C   UNL d   1     -59.599 -98.758 -42.387  0.00  0.00     0.002 A 
ENDROOT
BRANCH   1  10
ATOM     10  C   UNL d   1     -57.556 -98.756 -44.708  0.00  0.00     0.082 C 
BRANCH  10  11
ATOM     11  C   UNL d   1     -57.202 -99.412 -44.349  0.00  0.00     0.019 C 
BRANCH  11  12
ATOM     12  C   UNL d   1     -56.389 -99.524 -44.412  0.00  0.00     0.002 A 
ATOM     13  C   UNL d   1     -55.907 -98.899 -44.656  0.00  0.00     0.000 A 
ATOM     14  C   UNL d   1     -55.092 -99.012 -44.718  0.00  0.00     0.000 A 
ATOM     15  C   UNL d   1     -54.766 -99.743 -44.538  0.00  0.00     0.000 A 
ATOM     16  C   UNL d   1     -55.253-100.364 -44.294  0.00  0.00     0.000 A 
ATOM     17  C   UNL d   1     -56.059-100.251 -44.233  0.00  0.00     0.000 A 
ENDBRANCH  11  12
ENDBRANCH  10  11
ENDBRANCH   1  10
BRANCH   3  18
ATOM     18  C   UNL d   1     -58.925 -98.757 -45.868  0.00  0.00     0.037 C 
BRANCH  18  19
ATOM     19  C   UNL d   1     -59.611 -98.805 -46.329  0.00  0.00     0.003 C 
ATOM     20  C   UNL d   1     -59.565 -99.080 -47.097  0.00  0.00     0.000 C 
ENDBRANCH  18  19
ENDBRANCH   3  18
TORSDOF 5
ENDMDL
