MODEL 1
REMARK VINA RESULT:      84.8      0.000      0.000
REMARK  6 active torsions:
REMARK  status: ('A' for Active; 'I' for Inactive)
REMARK    1  A    between atoms: N_9  and  C_1 
REMARK    2  A    between atoms: C_15  and  N_4 
REMARK    3  A    between atoms: C_7  and  N_9 
REMARK    4  A    between atoms: C_12  and  C_11 
REMARK    5  A    between atoms: C_13  and  C_12 
REMARK       I    between atoms: N_16  and  C_13 
REMARK    6  A    between atoms: C_20  and  N_16 
ROOT
ATOM      1  N   UNL d   1     -55.636-101.147 -42.740  0.00  0.00    -0.182 NA
ATOM      2  C   UNL d   1     -55.444-100.478 -42.293  0.00  0.00     0.197 A 
ATOM      3  C   UNL d   1     -55.387-101.813 -42.326  0.00  0.00     0.287 A 
ATOM      4  S   UNL d   1     -55.073-100.736 -41.598  0.00  0.00    -0.043 SA
ATOM      5  C   UNL d   1     -55.041-101.556 -41.623  0.00  0.00     0.095 A 
ATOM      6  O   UNL d   1     -55.470-102.600 -42.572  0.00  0.00    -0.265 OA
ENDROOT
BRANCH   2   7
ATOM      7  N   UNL d   1     -55.596 -99.695 -42.506  0.00  0.00    -0.215 NA
BRANCH   7   8
ATOM      8  C   UNL d   1     -55.959 -99.529 -43.218  0.00  0.00     0.159 A 
ATOM      9  C   UNL d   1     -56.770 -99.393 -43.324  0.00  0.00     0.298 A 
ATOM     10  N   UNL d   1     -56.896 -99.246 -44.131  0.00  0.00    -0.209 N 
ATOM     11  O   UNL d   1     -57.343 -99.402 -42.738  0.00  0.00    -0.263 OA
ATOM     12  N   UNL d   1     -56.169 -99.291 -44.516  0.00  0.00    -0.238 N 
ATOM     13  C   UNL d   1     -55.588 -99.466 -43.951  0.00  0.00     0.104 A 
ATOM     14  C   UNL d   1     -56.038 -99.183 -45.318  0.00  0.00     0.120 C 
ATOM     15  C   UNL d   1     -54.787 -99.562 -44.090  0.00  0.00     0.022 C 
BRANCH  10  16
ATOM     16  C   UNL d   1     -57.615 -99.085 -44.481  0.00  0.00     0.085 A 
ATOM     17  C   UNL d   1     -58.299 -99.037 -44.017  0.00  0.00     0.019 A 
ATOM     18  C   UNL d   1     -59.018 -98.876 -44.368  0.00  0.00     0.002 A 
ATOM     19  C   UNL d   1     -59.072 -98.758 -45.190  0.00  0.00     0.000 A 
ATOM     20  C   UNL d   1     -58.390 -98.806 -45.650  0.00  0.00     0.002 A 
ATOM     21  C   UNL d   1     -57.663 -98.969 -45.297  0.00  0.00     0.019 A 
ENDBRANCH  10  16
ENDBRANCH   7   8
ENDBRANCH   2   7
BRANCH   5  22
ATOM     22  C   UNL d   1     -54.717-102.045 -41.044  0.00  0.00     0.074 C 
BRANCH  22  23
ATOM     23  C   UNL d   1     -55.012-102.025 -40.277  0.00  0.00     0.280 C 
ATOM     24  N   UNL d   1     -54.972-102.688 -39.798  0.00  0.00    -0.208 NA
ATOM     25  O   UNL d   1     -55.354-101.331 -39.984  0.00  0.00    -0.265 OA
BRANCH  24  26
ATOM     26  C   UNL d   1     -55.268-102.664 -39.032  0.00  0.00     0.085 A 
ATOM     27  C   UNL d   1     -56.069-102.808 -38.900  0.00  0.00     0.020 A 
ATOM     28  C   UNL d   1     -56.370-102.785 -38.131  0.00  0.00     0.013 A 
ATOM     29  C   UNL d   1     -55.860-102.616 -37.497  0.00  0.00     0.058 A 
ATOM     30  C   UNL d   1     -55.066-102.474 -37.634  0.00  0.00     0.013 A 
ATOM     31 CL   UNL d   1     -56.161-102.593 -36.728  0.00  0.00    -0.082 Cl
ATOM     32  C   UNL d   1     -54.765-102.497 -38.402  0.00  0.00     0.020 A 
ENDBRANCH  24  26
ENDBRANCH  22  23
ENDBRANCH   5  22
TORSDOF 6
ENDMDL
