MODEL 1
REMARK VINA RESULT:      47.4      0.000      0.000
REMARK  4 active torsions:
REMARK  status: ('A' for Active; 'I' for Inactive)
REMARK    1  A    between atoms: N_3  and  S_1 
REMARK    2  A    between atoms: C_4  and  S_1 
REMARK    3  A    between atoms: C_2  and  N_3 
REMARK    4  A    between atoms: O_18  and  C_13 
ROOT
ATOM      1  S   UNL d   1      13.269  12.484  -2.768  0.00  0.00     0.285 S 
ATOM      2  O   UNL d   1      13.736  13.195  -2.896  0.00  0.00    -0.198 OA
ATOM      3  O   UNL d   1      12.814  11.780  -2.633  0.00  0.00    -0.198 OA
ENDROOT
BRANCH   1   4
ATOM      4  N   UNL d   1      12.825  12.646  -3.449  0.00  0.00    -0.157 NA
BRANCH   4   5
ATOM      5  C   UNL d   1      13.139  13.169  -4.039  0.00  0.00     0.113 A 
ATOM      6  C   UNL d   1      13.325  12.867  -4.783  0.00  0.00     0.100 A 
ATOM      7  C   UNL d   1      13.630  13.376  -5.356  0.00  0.00     0.021 A 
ATOM      8  N   UNL d   1      13.216  12.079  -4.966  0.00  0.00    -0.242 NA
ATOM      9  C   UNL d   1      13.820  13.086  -6.101  0.00  0.00     0.003 A 
ATOM     10  C   UNL d   1      13.743  14.176  -5.174  0.00  0.00     0.026 A 
ATOM     11  C   UNL d   1      13.707  12.290  -6.279  0.00  0.00     0.021 A 
ATOM     12  C   UNL d   1      13.402  11.781  -5.705  0.00  0.00     0.099 A 
ATOM     13  C   UNL d   1      13.553  14.470  -4.426  0.00  0.00     0.096 A 
ATOM     14  C   UNL d   1      13.248  13.961  -3.853  0.00  0.00     0.046 A 
BRANCH  13  15
ATOM     15  O   UNL d   1      13.657  15.268  -4.219  0.00  0.00    -0.328 OA
ATOM     16  C   UNL d   1      14.420  15.602  -4.210  0.00  0.00     0.181 C 
ENDBRANCH  13  15
ENDBRANCH   4   5
ENDBRANCH   1   4
BRANCH   1  17
ATOM     17  C   UNL d   1      13.720  12.309  -2.066  0.00  0.00     0.105 A 
ATOM     18  C   UNL d   1      14.535  12.404  -2.063  0.00  0.00     0.013 A 
ATOM     19  C   UNL d   1      14.965  12.233  -1.381  0.00  0.00     0.001 A 
ATOM     20  C   UNL d   1      15.776  12.327  -1.377  0.00  0.00     0.000 A 
ATOM     21  C   UNL d   1      14.581  11.965  -0.698  0.00  0.00     0.000 A 
ATOM     22  C   UNL d   1      16.201  12.154  -0.692  0.00  0.00     0.000 A 
ATOM     23  C   UNL d   1      15.822  11.889  -0.014  0.00  0.00     0.000 A 
ATOM     24  C   UNL d   1      15.011  11.794  -0.017  0.00  0.00     0.000 A 
ATOM     25  C   UNL d   1      13.741  11.867  -0.702  0.00  0.00     0.001 A 
ATOM     26  C   UNL d   1      13.316  12.040  -1.387  0.00  0.00     0.013 A 
ENDBRANCH   1  17
TORSDOF 4
ENDMDL
MODEL 2
REMARK VINA RESULT:      49.9      1.939      4.525
REMARK  4 active torsions:
REMARK  status: ('A' for Active; 'I' for Inactive)
REMARK    1  A    between atoms: N_3  and  S_1 
REMARK    2  A    between atoms: C_4  and  S_1 
REMARK    3  A    between atoms: C_2  and  N_3 
REMARK    4  A    between atoms: O_18  and  C_13 
ROOT
ATOM      1  S   UNL d   1      13.766  14.045  -3.039  0.00  0.00     0.285 S 
ATOM      2  O   UNL d   1      12.972  14.373  -3.054  0.00  0.00    -0.198 OA
ATOM      3  O   UNL d   1      14.548  13.714  -3.032  0.00  0.00    -0.198 OA
ENDROOT
BRANCH   1   4
ATOM      4  N   UNL d   1      13.992  14.602  -2.468  0.00  0.00    -0.157 NA
BRANCH   4   5
ATOM      5  C   UNL d   1      14.392  14.343  -1.766  0.00  0.00     0.113 A 
ATOM      6  C   UNL d   1      14.797  14.898  -1.310  0.00  0.00     0.100 A 
ATOM      7  C   UNL d   1      15.186  14.647  -0.627  0.00  0.00     0.021 A 
ATOM      8  N   UNL d   1      14.823  15.687  -1.516  0.00  0.00    -0.242 NA
ATOM      9  C   UNL d   1      15.593  15.190  -0.165  0.00  0.00     0.003 A 
ATOM     10  C   UNL d   1      15.162  13.846  -0.414  0.00  0.00     0.026 A 
ATOM     11  C   UNL d   1      15.615  15.985  -0.379  0.00  0.00     0.021 A 
ATOM     12  C   UNL d   1      15.226  16.236  -1.062  0.00  0.00     0.099 A 
ATOM     13  C   UNL d   1      14.753  13.298  -0.877  0.00  0.00     0.096 A 
ATOM     14  C   UNL d   1      14.364  13.550  -1.560  0.00  0.00     0.046 A 
BRANCH  13  15
ATOM     15  O   UNL d   1      14.715  12.490  -0.685  0.00  0.00    -0.328 OA
ATOM     16  C   UNL d   1      15.123  12.199  -0.021  0.00  0.00     0.181 C 
ENDBRANCH  13  15
ENDBRANCH   4   5
ENDBRANCH   1   4
BRANCH   1  17
ATOM     17  C   UNL d   1      13.545  13.468  -3.626  0.00  0.00     0.105 A 
ATOM     18  C   UNL d   1      13.867  13.500  -4.381  0.00  0.00     0.013 A 
ATOM     19  C   UNL d   1      13.648  12.939  -4.944  0.00  0.00     0.001 A 
ATOM     20  C   UNL d   1      13.969  12.970  -5.693  0.00  0.00     0.000 A 
ATOM     21  C   UNL d   1      13.106  12.343  -4.754  0.00  0.00     0.000 A 
ATOM     22  C   UNL d   1      13.746  12.406  -6.253  0.00  0.00     0.000 A 
ATOM     23  C   UNL d   1      13.208  11.814  -6.067  0.00  0.00     0.000 A 
ATOM     24  C   UNL d   1      12.888  11.783  -5.317  0.00  0.00     0.000 A 
ATOM     25  C   UNL d   1      12.774  12.310  -3.977  0.00  0.00     0.001 A 
ATOM     26  C   UNL d   1      12.997  12.874  -3.417  0.00  0.00     0.013 A 
ENDBRANCH   1  17
TORSDOF 4
ENDMDL
