MODEL 1
REMARK VINA RESULT:      -5.6      0.000      0.000
REMARK  5 active torsions:
REMARK  status: ('A' for Active; 'I' for Inactive)
REMARK    1  A    between atoms: N_3  and  C_1 
REMARK       I    between atoms: C_6  and  N_3 
REMARK    2  A    between atoms: C_9  and  C_6 
REMARK    3  A    between atoms: C_12  and  C_7 
REMARK    4  A    between atoms: S_8  and  C_9 
REMARK    5  A    between atoms: C_11  and  S_8 
ROOT
ATOM      1  N   UNL d   1     -41.676-122.341 -51.352  0.00  0.00    -0.181 NA
ATOM      2  C   UNL d   1     -41.473-122.821 -51.991  0.00  0.00     0.287 C 
ATOM      3  O   UNL d   1     -41.368-123.627 -51.875  0.00  0.00    -0.265 OA
ENDROOT
BRANCH   2   4
ATOM      4  C   UNL d   1     -41.376-122.490 -52.739  0.00  0.00     0.087 C 
ATOM      5  C   UNL d   1     -41.123-121.713 -52.814  0.00  0.00     0.012 C 
BRANCH   4   6
ATOM      6  S   UNL d   1     -41.535-122.948 -53.410  0.00  0.00    -0.082 SA
BRANCH   6   7
ATOM      7  C   UNL d   1     -41.720-122.590 -54.115  0.00  0.00     0.030 A 
ATOM      8  C   UNL d   1     -41.187-122.623 -54.744  0.00  0.00     0.006 A 
ATOM      9  C   UNL d   1     -41.376-122.257 -55.464  0.00  0.00     0.001 A 
ATOM     10  C   UNL d   1     -42.100-121.862 -55.541  0.00  0.00     0.000 A 
ATOM     11  C   UNL d   1     -42.626-121.833 -54.915  0.00  0.00     0.001 A 
ATOM     12  C   UNL d   1     -42.445-122.195 -54.193  0.00  0.00     0.006 A 
ENDBRANCH   6   7
ENDBRANCH   4   6
ENDBRANCH   2   4
BRANCH   1  13
ATOM     13  C   UNL d   1     -41.775-122.664 -50.604  0.00  0.00     0.219 A 
ATOM     14  S   UNL d   1     -42.475-122.692 -50.173  0.00  0.00    -0.026 SA
ATOM     15  C   UNL d   1     -42.322-123.064 -49.452  0.00  0.00     0.135 A 
ATOM     16  N   UNL d   1     -41.519-123.266 -49.441  0.00  0.00    -0.139 NA
ATOM     17  N   UNL d   1     -41.182-123.020 -50.151  0.00  0.00    -0.121 NA
BRANCH  15  18
ATOM     18  C   UNL d   1     -42.865-123.211 -48.849  0.00  0.00     0.028 C 
ATOM     19  C   UNL d   1     -42.594-123.289 -48.070  0.00  0.00     0.002 C 
ENDBRANCH  15  18
ENDBRANCH   1  13
TORSDOF 5
ENDMDL
MODEL 2
REMARK VINA RESULT:      -5.1      1.119      4.964
REMARK  5 active torsions:
REMARK  status: ('A' for Active; 'I' for Inactive)
REMARK    1  A    between atoms: N_3  and  C_1 
REMARK       I    between atoms: C_6  and  N_3 
REMARK    2  A    between atoms: C_9  and  C_6 
REMARK    3  A    between atoms: C_12  and  C_7 
REMARK    4  A    between atoms: S_8  and  C_9 
REMARK    5  A    between atoms: C_11  and  S_8 
ROOT
ATOM      1  N   UNL d   1     -41.373-122.751 -51.380  0.00  0.00    -0.181 NA
ATOM      2  C   UNL d   1     -41.853-123.202 -50.883  0.00  0.00     0.287 C 
ATOM      3  O   UNL d   1     -42.298-123.816 -51.199  0.00  0.00    -0.265 OA
ENDROOT
BRANCH   2   4
ATOM      4  C   UNL d   1     -41.882-123.036 -50.077  0.00  0.00     0.087 C 
ATOM      5  C   UNL d   1     -42.280-122.370 -49.810  0.00  0.00     0.012 C 
BRANCH   4   6
ATOM      6  S   UNL d   1     -41.507-123.546 -49.543  0.00  0.00    -0.082 SA
BRANCH   6   7
ATOM      7  C   UNL d   1     -41.663-123.491 -48.748  0.00  0.00     0.030 A 
ATOM      8  C   UNL d   1     -41.124-123.115 -48.249  0.00  0.00     0.006 A 
ATOM      9  C   UNL d   1     -41.283-123.059 -47.437  0.00  0.00     0.001 A 
ATOM     10  C   UNL d   1     -41.984-123.383 -47.138  0.00  0.00     0.000 A 
ATOM     11  C   UNL d   1     -42.515-123.755 -47.636  0.00  0.00     0.001 A 
ATOM     12  C   UNL d   1     -42.364-123.815 -48.448  0.00  0.00     0.006 A 
ENDBRANCH   6   7
ENDBRANCH   4   6
ENDBRANCH   2   4
BRANCH   1  13
ATOM     13  C   UNL d   1     -41.339-122.911 -52.184  0.00  0.00     0.219 A 
ATOM     14  S   UNL d   1     -41.281-122.357 -52.790  0.00  0.00    -0.026 SA
ATOM     15  C   UNL d   1     -41.263-122.761 -53.510  0.00  0.00     0.135 A 
ATOM     16  N   UNL d   1     -41.310-123.570 -53.344  0.00  0.00    -0.139 NA
ATOM     17  N   UNL d   1     -41.357-123.663 -52.527  0.00  0.00    -0.121 NA
BRANCH  15  18
ATOM     18  C   UNL d   1     -41.208-122.424 -54.261  0.00  0.00     0.028 C 
ATOM     19  C   UNL d   1     -41.871-122.430 -54.757  0.00  0.00     0.002 C 
ENDBRANCH  15  18
ENDBRANCH   1  13
TORSDOF 5
ENDMDL
MODEL 3
REMARK VINA RESULT:      -5.0      1.279      4.686
REMARK  5 active torsions:
REMARK  status: ('A' for Active; 'I' for Inactive)
REMARK    1  A    between atoms: N_3  and  C_1 
REMARK       I    between atoms: C_6  and  N_3 
REMARK    2  A    between atoms: C_9  and  C_6 
REMARK    3  A    between atoms: C_12  and  C_7 
REMARK    4  A    between atoms: S_8  and  C_9 
REMARK    5  A    between atoms: C_11  and  S_8 
ROOT
ATOM      1  N   UNL d   1     -41.469-123.055 -52.681  0.00  0.00    -0.181 NA
ATOM      2  C   UNL d   1     -41.290-122.621 -52.003  0.00  0.00     0.287 C 
ATOM      3  O   UNL d   1     -41.123-121.819 -52.067  0.00  0.00    -0.265 OA
ENDROOT
BRANCH   2   4
ATOM      4  C   UNL d   1     -41.280-122.992 -51.268  0.00  0.00     0.087 C 
ATOM      5  C   UNL d   1     -41.137-123.798 -51.218  0.00  0.00     0.012 C 
BRANCH   4   6
ATOM      6  S   UNL d   1     -41.416-122.544 -50.585  0.00  0.00    -0.082 SA
BRANCH   6   7
ATOM      7  C   UNL d   1     -41.819-122.867 -49.958  0.00  0.00     0.030 A 
ATOM      8  C   UNL d   1     -41.437-123.396 -49.454  0.00  0.00     0.006 A 
ATOM      9  C   UNL d   1     -41.849-123.726 -48.813  0.00  0.00     0.001 A 
ATOM     10  C   UNL d   1     -42.641-123.518 -48.690  0.00  0.00     0.000 A 
ATOM     11  C   UNL d   1     -43.015-122.992 -49.193  0.00  0.00     0.001 A 
ATOM     12  C   UNL d   1     -42.612-122.659 -49.834  0.00  0.00     0.006 A 
ENDBRANCH   6   7
ENDBRANCH   4   6
ENDBRANCH   2   4
BRANCH   1  13
ATOM     13  C   UNL d   1     -41.481-122.691 -53.417  0.00  0.00     0.219 A 
ATOM     14  S   UNL d   1     -41.848-122.977 -54.096  0.00  0.00    -0.026 SA
ATOM     15  C   UNL d   1     -41.720-122.435 -54.707  0.00  0.00     0.135 A 
ATOM     16  N   UNL d   1     -41.270-121.813 -54.399  0.00  0.00    -0.139 NA
ATOM     17  N   UNL d   1     -41.122-121.971 -53.604  0.00  0.00    -0.121 NA
BRANCH  15  18
ATOM     18  C   UNL d   1     -41.989-122.499 -55.484  0.00  0.00     0.028 C 
ATOM     19  C   UNL d   1     -42.596-122.000 -55.744  0.00  0.00     0.002 C 
ENDBRANCH  15  18
ENDBRANCH   1  13
TORSDOF 5
ENDMDL
MODEL 4
REMARK VINA RESULT:      -4.6      0.861      1.116
REMARK  5 active torsions:
REMARK  status: ('A' for Active; 'I' for Inactive)
REMARK    1  A    between atoms: N_3  and  C_1 
REMARK       I    between atoms: C_6  and  N_3 
REMARK    2  A    between atoms: C_9  and  C_6 
REMARK    3  A    between atoms: C_12  and  C_7 
REMARK    4  A    between atoms: S_8  and  C_9 
REMARK    5  A    between atoms: C_11  and  S_8 
ROOT
ATOM      1  N   UNL d   1     -42.301-122.988 -51.471  0.00  0.00    -0.181 NA
ATOM      2  C   UNL d   1     -41.685-122.572 -51.827  0.00  0.00     0.287 C 
ATOM      3  O   UNL d   1     -41.163-122.142 -51.360  0.00  0.00    -0.265 OA
ENDROOT
BRANCH   2   4
ATOM      4  C   UNL d   1     -41.596-122.589 -52.645  0.00  0.00     0.087 C 
ATOM      5  C   UNL d   1     -41.320-123.268 -53.014  0.00  0.00     0.012 C 
BRANCH   4   6
ATOM      6  S   UNL d   1     -41.786-121.916 -53.089  0.00  0.00    -0.082 SA
BRANCH   6   7
ATOM      7  C   UNL d   1     -41.887-121.972 -53.893  0.00  0.00     0.030 A 
ATOM      8  C   UNL d   1     -42.615-121.781 -54.229  0.00  0.00     0.006 A 
ATOM      9  C   UNL d   1     -42.718-121.838 -55.051  0.00  0.00     0.001 A 
ATOM     10  C   UNL d   1     -42.084-122.086 -55.523  0.00  0.00     0.000 A 
ATOM     11  C   UNL d   1     -41.364-122.274 -55.184  0.00  0.00     0.001 A 
ATOM     12  C   UNL d   1     -41.253-122.220 -54.366  0.00  0.00     0.006 A 
ENDBRANCH   6   7
ENDBRANCH   4   6
ENDBRANCH   2   4
BRANCH   1  13
ATOM     13  C   UNL d   1     -42.396-122.976 -50.655  0.00  0.00     0.219 A 
ATOM     14  S   UNL d   1     -42.135-123.548 -50.126  0.00  0.00    -0.026 SA
ATOM     15  C   UNL d   1     -42.349-123.312 -49.363  0.00  0.00     0.135 A 
ATOM     16  N   UNL d   1     -42.744-122.588 -49.427  0.00  0.00    -0.139 NA
ATOM     17  N   UNL d   1     -42.773-122.381 -50.224  0.00  0.00    -0.121 NA
BRANCH  15  18
ATOM     18  C   UNL d   1     -42.198-123.720 -48.662  0.00  0.00     0.028 C 
ATOM     19  C   UNL d   1     -42.003-123.294 -47.980  0.00  0.00     0.002 C 
ENDBRANCH  15  18
ENDBRANCH   1  13
TORSDOF 5
ENDMDL
