MODEL 1
REMARK VINA RESULT:      -6.6      0.000      0.000
REMARK  3 active torsions:
REMARK  status: ('A' for Active; 'I' for Inactive)
REMARK    1  A    between atoms: C_9  and  C_1 
REMARK    2  A    between atoms: C_4  and  C_5 
REMARK       I    between atoms: C_5  and  N_8 
REMARK    3  A    between atoms: N_8  and  C_16 
ROOT
ATOM      1  C   UNL d   1     -41.496-122.761 -52.009  0.00  0.00     0.024 A 
ATOM      2  C   UNL d   1     -41.436-123.527 -51.742  0.00  0.00     0.004 A 
ATOM      3  C   UNL d   1     -41.495-122.128 -51.490  0.00  0.00     0.004 A 
ATOM      4  C   UNL d   1     -41.374-123.039 -50.407  0.00  0.00     0.085 A 
ATOM      5  C   UNL d   1     -41.435-122.264 -50.687  0.00  0.00     0.019 A 
ATOM      6  C   UNL d   1     -41.375-123.671 -50.935  0.00  0.00     0.019 A 
ENDROOT
BRANCH   1   7
ATOM      7  C   UNL d   1     -41.557-122.623 -52.818  0.00  0.00     0.111 A 
ATOM      8  N   UNL d   1     -42.046-122.055 -53.179  0.00  0.00    -0.239 NA
ATOM      9  C   UNL d   1     -41.933-122.107 -54.001  0.00  0.00     0.088 A 
ATOM     10  C   UNL d   1     -42.259-121.695 -54.627  0.00  0.00     0.020 A 
ATOM     11  C   UNL d   1     -41.374-122.706 -54.146  0.00  0.00     0.049 A 
ATOM     12  C   UNL d   1     -42.037-121.870 -55.403  0.00  0.00     0.002 A 
ATOM     13  C   UNL d   1     -41.483-122.463 -55.550  0.00  0.00     0.001 A 
ATOM     14  C   UNL d   1     -41.150-122.883 -54.921  0.00  0.00     0.008 A 
ATOM     15  S   UNL d   1     -41.146-123.020 -53.419  0.00  0.00    -0.066 SA
ENDBRANCH   1   7
BRANCH   4  16
ATOM     16  N   UNL d   1     -41.312-123.176 -49.594  0.00  0.00    -0.206 NA
ATOM     17  C   UNL d   1     -41.982-123.107 -49.117  0.00  0.00     0.304 C 
ATOM     18  O   UNL d   1     -42.705-122.905 -49.440  0.00  0.00    -0.263 OA
BRANCH  17  19
ATOM     19  C   UNL d   1     -41.909-123.248 -48.300  0.00  0.00     0.182 A 
ATOM     20  O   UNL d   1     -41.254-122.943 -47.896  0.00  0.00    -0.296 OA
ATOM     21  C   UNL d   1     -41.185-123.084 -47.086  0.00  0.00     0.150 A 
ATOM     22  C   UNL d   1     -41.761-123.521 -46.684  0.00  0.00     0.149 A 
ATOM     23  O   UNL d   1     -42.404-123.816 -47.093  0.00  0.00    -0.299 OA
ATOM     24  C   UNL d   1     -42.484-123.684 -47.899  0.00  0.00     0.152 A 
ENDBRANCH  17  19
ENDBRANCH   4  16
TORSDOF 3
ENDMDL
