MODEL 1
REMARK VINA RESULT:      41.6      0.000      0.000
REMARK  2 active torsions:
REMARK  status: ('A' for Active; 'I' for Inactive)
REMARK    1  A    between atoms: C_5  and  C_1 
REMARK    2  A    between atoms: C_7  and  C_5 
ROOT
ATOM      1  C   UNL d   1      58.992  49.594  50.601  0.00  0.00     0.158 A 
ATOM      2  C   UNL d   1      58.944  49.571  49.779  0.00  0.00     0.131 A 
ATOM      3  O   UNL d   1      58.293  49.619  51.050  0.00  0.00    -0.302 OA
ATOM      4  C   UNL d   1      57.491  49.597  49.863  0.00  0.00     0.044 A 
ATOM      5  C   UNL d   1      57.540  49.621  50.686  0.00  0.00     0.102 A 
ATOM      6  N   UNL d   1      59.631  49.547  49.337  0.00  0.00    -0.146 N 
ATOM      7  C   UNL d   1      56.745  49.599  49.501  0.00  0.00     0.004 A 
ATOM      8  C   UNL d   1      56.841  49.645  51.135  0.00  0.00     0.025 A 
ATOM      9  C   UNL d   1      56.053  49.623  49.947  0.00  0.00     0.000 A 
ATOM     10  C   UNL d   1      56.101  49.646  50.769  0.00  0.00     0.002 A 
ENDROOT
BRANCH   1  11
ATOM     11  C   UNL d   1      59.726  49.593  50.960  0.00  0.00     0.220 C 
ATOM     12  O   UNL d   1      60.392  49.581  50.501  0.00  0.00    -0.284 OA
BRANCH  11  13
ATOM     13  C   UNL d   1      59.810  49.603  51.755  0.00  0.00     0.041 A 
ATOM     14  C   UNL d   1      59.155  49.651  52.252  0.00  0.00     0.003 A 
ATOM     15  C   UNL d   1      59.261  49.661  53.080  0.00  0.00     0.000 A 
ATOM     16  C   UNL d   1      60.042  49.620  53.405  0.00  0.00     0.000 A 
ATOM     17  C   UNL d   1      60.689  49.572  52.891  0.00  0.00     0.000 A 
ATOM     18  C   UNL d   1      60.156  49.629  54.225  0.00  0.00     0.000 C 
ATOM     19  C   UNL d   1      60.591  49.563  52.080  0.00  0.00     0.003 A 
ENDBRANCH  11  13
ENDBRANCH   1  11
TORSDOF 2
ENDMDL
