MODEL 1
REMARK VINA RESULT:      -9.7      0.000      0.000
REMARK  4 active torsions:
REMARK  status: ('A' for Active; 'I' for Inactive)
REMARK    1  A    between atoms: C_10  and  C_2 
REMARK    2  A    between atoms: C_13  and  C_6 
REMARK    3  A    between atoms: O_17  and  C_10 
REMARK    4  A    between atoms: C_23  and  O_17 
ROOT
ATOM      1  C   UNL d   1      52.585  33.138  53.405  0.00  0.00     0.081 A 
ATOM      2  C   UNL d   1      53.106  31.804  53.340  0.00  0.00     0.106 A 
ATOM      3  C   UNL d   1      52.498  31.587  52.819  0.00  0.00     0.208 A 
ATOM      4  C   UNL d   1      51.976  32.920  52.884  0.00  0.00     0.108 A 
ATOM      5  C   UNL d   1      52.624  33.912  53.695  0.00  0.00     0.281 A 
ATOM      6  C   UNL d   1      53.152  32.581  53.635  0.00  0.00     0.015 A 
ATOM      7  O   UNL d   1      51.934  32.152  52.595  0.00  0.00    -0.288 OA
ATOM      8  N   UNL d   1      52.057  34.470  53.465  0.00  0.00    -0.208 NA
ATOM      9  C   UNL d   1      51.406  33.475  52.651  0.00  0.00     0.044 A 
ATOM     10  C   UNL d   1      51.442  34.258  52.941  0.00  0.00     0.087 A 
ATOM     11  O   UNL d   1      53.227  34.125  54.211  0.00  0.00    -0.265 OA
ATOM     12  N   UNL d   1      52.458  30.824  52.533  0.00  0.00    -0.121 N 
ATOM     13  C   UNL d   1      50.884  34.809  52.716  0.00  0.00     0.021 C 
ENDROOT
BRANCH   6  14
ATOM     14  C   UNL d   1      53.754  32.798  54.151  0.00  0.00     0.004 A 
ATOM     15  C   UNL d   1      54.470  33.070  53.847  0.00  0.00     0.021 A 
ATOM     16  C   UNL d   1      55.072  33.287  54.363  0.00  0.00     0.099 A 
ATOM     17  N   UNL d   1      54.956  33.231  55.174  0.00  0.00    -0.242 NA
ATOM     18  C   UNL d   1      54.235  32.957  55.474  0.00  0.00     0.099 A 
ATOM     19  C   UNL d   1      53.639  32.743  54.963  0.00  0.00     0.021 A 
ENDBRANCH   6  14
BRANCH   2  20
ATOM     20  C   UNL d   1      53.667  31.246  53.565  0.00  0.00     0.304 C 
ATOM     21  O   UNL d   1      54.419  31.269  53.232  0.00  0.00    -0.259 OA
BRANCH  20  22
ATOM     22  O   UNL d   1      53.481  30.673  54.114  0.00  0.00    -0.271 OA
BRANCH  22  23
ATOM     23  C   UNL d   1      53.757  29.903  54.034  0.00  0.00     0.126 C 
ATOM     24  C   UNL d   1      53.535  29.329  54.582  0.00  0.00     0.029 C 
ENDBRANCH  22  23
ENDBRANCH  20  22
ENDBRANCH   2  20
TORSDOF 4
ENDMDL
MODEL 2
REMARK VINA RESULT:      -9.7      0.952      3.010
REMARK  4 active torsions:
REMARK  status: ('A' for Active; 'I' for Inactive)
REMARK    1  A    between atoms: C_10  and  C_2 
REMARK    2  A    between atoms: C_13  and  C_6 
REMARK    3  A    between atoms: O_17  and  C_10 
REMARK    4  A    between atoms: C_23  and  O_17 
ROOT
ATOM      1  C   UNL d   1      53.242  32.040  53.496  0.00  0.00     0.081 A 
ATOM      2  C   UNL d   1      52.892  33.419  53.324  0.00  0.00     0.106 A 
ATOM      3  C   UNL d   1      52.260  33.203  52.831  0.00  0.00     0.208 A 
ATOM      4  C   UNL d   1      52.609  31.824  53.003  0.00  0.00     0.108 A 
ATOM      5  C   UNL d   1      53.728  31.457  53.825  0.00  0.00     0.281 A 
ATOM      6  C   UNL d   1      53.386  32.839  53.658  0.00  0.00     0.015 A 
ATOM      7  O   UNL d   1      52.125  32.399  52.675  0.00  0.00    -0.288 OA
ATOM      8  N   UNL d   1      53.585  30.658  53.663  0.00  0.00    -0.208 NA
ATOM      9  C   UNL d   1      52.462  31.024  52.839  0.00  0.00     0.044 A 
ATOM     10  C   UNL d   1      52.951  30.432  53.168  0.00  0.00     0.087 A 
ATOM     11  O   UNL d   1      54.354  31.674  54.312  0.00  0.00    -0.265 OA
ATOM     12  N   UNL d   1      51.780  33.776  52.506  0.00  0.00    -0.121 N 
ATOM     13  C   UNL d   1      52.812  29.644  53.011  0.00  0.00     0.021 C 
ENDROOT
BRANCH   6  14
ATOM     14  C   UNL d   1      54.012  33.052  54.146  0.00  0.00     0.004 A 
ATOM     15  C   UNL d   1      54.737  33.252  53.810  0.00  0.00     0.021 A 
ATOM     16  C   UNL d   1      55.363  33.465  54.298  0.00  0.00     0.099 A 
ATOM     17  N   UNL d   1      55.263  33.477  55.113  0.00  0.00    -0.242 NA
ATOM     18  C   UNL d   1      54.531  33.275  55.444  0.00  0.00     0.099 A 
ATOM     19  C   UNL d   1      53.911  33.064  54.961  0.00  0.00     0.021 A 
ENDBRANCH   6  14
BRANCH   2  20
ATOM     20  C   UNL d   1      53.030  34.215  53.481  0.00  0.00     0.304 C 
ATOM     21  O   UNL d   1      53.580  34.628  53.031  0.00  0.00    -0.259 OA
BRANCH  20  22
ATOM     22  O   UNL d   1      52.625  34.593  54.080  0.00  0.00    -0.271 OA
BRANCH  22  23
ATOM     23  C   UNL d   1      52.520  35.408  54.071  0.00  0.00     0.126 C 
ATOM     24  C   UNL d   1      52.341  35.805  54.772  0.00  0.00     0.029 C 
ENDBRANCH  22  23
ENDBRANCH  20  22
ENDBRANCH   2  20
TORSDOF 4
ENDMDL
MODEL 3
REMARK VINA RESULT:      -9.4      1.040      3.733
REMARK  4 active torsions:
REMARK  status: ('A' for Active; 'I' for Inactive)
REMARK    1  A    between atoms: C_10  and  C_2 
REMARK    2  A    between atoms: C_13  and  C_6 
REMARK    3  A    between atoms: O_17  and  C_10 
REMARK    4  A    between atoms: C_23  and  O_17 
ROOT
ATOM      1  C   UNL d   1      52.904  32.271  53.373  0.00  0.00     0.081 A 
ATOM      2  C   UNL d   1      53.368  33.575  53.742  0.00  0.00     0.106 A 
ATOM      3  C   UNL d   1      54.061  33.245  54.058  0.00  0.00     0.208 A 
ATOM      4  C   UNL d   1      53.597  31.940  53.690  0.00  0.00     0.108 A 
ATOM      5  C   UNL d   1      52.330  31.781  53.032  0.00  0.00     0.281 A 
ATOM      6  C   UNL d   1      52.787  33.089  53.398  0.00  0.00     0.015 A 
ATOM      7  O   UNL d   1      54.168  32.423  54.028  0.00  0.00    -0.288 OA
ATOM      8  N   UNL d   1      52.447  30.962  53.007  0.00  0.00    -0.208 NA
ATOM      9  C   UNL d   1      53.717  31.120  53.667  0.00  0.00     0.044 A 
ATOM     10  C   UNL d   1      53.141  30.622  53.324  0.00  0.00     0.087 A 
ATOM     11  O   UNL d   1      51.645  32.111  52.719  0.00  0.00    -0.265 OA
ATOM     12  N   UNL d   1      54.627  33.726  54.394  0.00  0.00    -0.121 N 
ATOM     13  C   UNL d   1      53.252  29.815  53.298  0.00  0.00     0.021 C 
ENDROOT
BRANCH   6  14
ATOM     14  C   UNL d   1      52.101  33.415  53.084  0.00  0.00     0.004 A 
ATOM     15  C   UNL d   1      51.416  33.435  53.541  0.00  0.00     0.021 A 
ATOM     16  C   UNL d   1      50.730  33.761  53.227  0.00  0.00     0.099 A 
ATOM     17  N   UNL d   1      50.732  34.064  52.463  0.00  0.00    -0.242 NA
ATOM     18  C   UNL d   1      51.423  34.041  52.009  0.00  0.00     0.099 A 
ATOM     19  C   UNL d   1      52.102  33.718  52.320  0.00  0.00     0.021 A 
ENDBRANCH   6  14
BRANCH   2  20
ATOM     20  C   UNL d   1      53.258  34.391  53.769  0.00  0.00     0.304 C 
ATOM     21  O   UNL d   1      53.390  34.840  53.094  0.00  0.00    -0.259 OA
BRANCH  20  22
ATOM     22  O   UNL d   1      53.020  34.750  54.461  0.00  0.00    -0.271 OA
BRANCH  22  23
ATOM     23  C   UNL d   1      53.193  35.540  54.609  0.00  0.00     0.126 C 
ATOM     24  C   UNL d   1      52.774  35.949  55.189  0.00  0.00     0.029 C 
ENDBRANCH  22  23
ENDBRANCH  20  22
ENDBRANCH   2  20
TORSDOF 4
ENDMDL
MODEL 4
REMARK VINA RESULT:      -8.5      1.275      2.678
REMARK  4 active torsions:
REMARK  status: ('A' for Active; 'I' for Inactive)
REMARK    1  A    between atoms: C_10  and  C_2 
REMARK    2  A    between atoms: C_13  and  C_6 
REMARK    3  A    between atoms: O_17  and  C_10 
REMARK    4  A    between atoms: C_23  and  O_17 
ROOT
ATOM      1  C   UNL d   1      52.355  33.444  53.253  0.00  0.00     0.081 A 
ATOM      2  C   UNL d   1      53.266  33.686  54.332  0.00  0.00     0.106 A 
ATOM      3  C   UNL d   1      52.940  34.441  54.445  0.00  0.00     0.208 A 
ATOM      4  C   UNL d   1      52.028  34.199  53.366  0.00  0.00     0.108 A 
ATOM      5  C   UNL d   1      52.060  32.950  52.658  0.00  0.00     0.281 A 
ATOM      6  C   UNL d   1      52.974  33.184  53.736  0.00  0.00     0.015 A 
ATOM      7  O   UNL d   1      52.319  34.691  53.955  0.00  0.00    -0.288 OA
ATOM      8  N   UNL d   1      51.440  33.209  52.174  0.00  0.00    -0.208 NA
ATOM      9  C   UNL d   1      51.407  34.462  52.884  0.00  0.00     0.044 A 
ATOM     10  C   UNL d   1      51.106  33.967  52.282  0.00  0.00     0.087 A 
ATOM     11  O   UNL d   1      52.385  32.203  52.548  0.00  0.00    -0.265 OA
ATOM     12  N   UNL d   1      53.229  34.928  55.031  0.00  0.00    -0.121 N 
ATOM     13  C   UNL d   1      50.495  34.220  51.804  0.00  0.00     0.021 C 
ENDROOT
BRANCH   6  14
ATOM     14  C   UNL d   1      53.297  32.437  53.623  0.00  0.00     0.004 A 
ATOM     15  C   UNL d   1      52.990  31.797  54.042  0.00  0.00     0.021 A 
ATOM     16  C   UNL d   1      53.313  31.049  53.930  0.00  0.00     0.099 A 
ATOM     17  N   UNL d   1      53.935  30.945  53.404  0.00  0.00    -0.242 NA
ATOM     18  C   UNL d   1      54.238  31.592  52.986  0.00  0.00     0.099 A 
ATOM     19  C   UNL d   1      53.919  32.333  53.097  0.00  0.00     0.021 A 
ENDBRANCH   6  14
BRANCH   2  20
ATOM     20  C   UNL d   1      53.882  33.434  54.816  0.00  0.00     0.304 C 
ATOM     21  O   UNL d   1      53.723  32.933  55.448  0.00  0.00    -0.259 OA
BRANCH  20  22
ATOM     22  O   UNL d   1      54.646  33.678  54.670  0.00  0.00    -0.271 OA
BRANCH  22  23
ATOM     23  C   UNL d   1      55.201  33.720  55.276  0.00  0.00     0.126 C 
ATOM     24  C   UNL d   1      55.939  34.057  55.133  0.00  0.00     0.029 C 
ENDBRANCH  22  23
ENDBRANCH  20  22
ENDBRANCH   2  20
TORSDOF 4
ENDMDL
MODEL 5
REMARK VINA RESULT:      -8.1      1.101      3.528
REMARK  4 active torsions:
REMARK  status: ('A' for Active; 'I' for Inactive)
REMARK    1  A    between atoms: C_10  and  C_2 
REMARK    2  A    between atoms: C_13  and  C_6 
REMARK    3  A    between atoms: O_17  and  C_10 
REMARK    4  A    between atoms: C_23  and  O_17 
ROOT
ATOM      1  C   UNL d   1      53.503  33.323  54.195  0.00  0.00     0.081 A 
ATOM      2  C   UNL d   1      52.524  33.872  53.304  0.00  0.00     0.106 A 
ATOM      3  C   UNL d   1      52.715  34.639  53.559  0.00  0.00     0.208 A 
ATOM      4  C   UNL d   1      53.694  34.090  54.450  0.00  0.00     0.108 A 
ATOM      5  C   UNL d   1      53.899  32.670  54.514  0.00  0.00     0.281 A 
ATOM      6  C   UNL d   1      52.917  33.211  53.621  0.00  0.00     0.015 A 
ATOM      7  O   UNL d   1      53.304  34.740  54.135  0.00  0.00    -0.288 OA
ATOM      8  N   UNL d   1      54.485  32.781  55.089  0.00  0.00    -0.208 NA
ATOM      9  C   UNL d   1      54.280  34.205  55.025  0.00  0.00     0.044 A 
ATOM     10  C   UNL d   1      54.682  33.549  55.350  0.00  0.00     0.087 A 
ATOM     11  O   UNL d   1      53.708  31.912  54.260  0.00  0.00    -0.265 OA
ATOM     12  N   UNL d   1      52.326  35.283  53.245  0.00  0.00    -0.121 N 
ATOM     13  C   UNL d   1      55.260  33.655  55.916  0.00  0.00     0.021 C 
ENDROOT
BRANCH   6  14
ATOM     14  C   UNL d   1      52.729  32.452  53.369  0.00  0.00     0.004 A 
ATOM     15  C   UNL d   1      53.152  32.115  52.747  0.00  0.00     0.021 A 
ATOM     16  C   UNL d   1      52.964  31.356  52.495  0.00  0.00     0.099 A 
ATOM     17  N   UNL d   1      52.358  30.940  52.863  0.00  0.00    -0.242 NA
ATOM     18  C   UNL d   1      51.937  31.284  53.487  0.00  0.00     0.099 A 
ATOM     19  C   UNL d   1      52.124  32.036  53.737  0.00  0.00     0.021 A 
ENDBRANCH   6  14
BRANCH   2  20
ATOM     20  C   UNL d   1      51.940  33.768  52.733  0.00  0.00     0.304 C 
ATOM     21  O   UNL d   1      52.157  33.594  51.959  0.00  0.00    -0.259 OA
BRANCH  20  22
ATOM     22  O   UNL d   1      51.153  33.837  52.932  0.00  0.00    -0.271 OA
BRANCH  22  23
ATOM     23  C   UNL d   1      50.600  34.104  52.386  0.00  0.00     0.126 C 
ATOM     24  C   UNL d   1      49.816  34.216  52.617  0.00  0.00     0.029 C 
ENDBRANCH  22  23
ENDBRANCH  20  22
ENDBRANCH   2  20
TORSDOF 4
ENDMDL
MODEL 6
REMARK VINA RESULT:      -7.9      1.108      2.688
REMARK  4 active torsions:
REMARK  status: ('A' for Active; 'I' for Inactive)
REMARK    1  A    between atoms: C_10  and  C_2 
REMARK    2  A    between atoms: C_13  and  C_6 
REMARK    3  A    between atoms: O_17  and  C_10 
REMARK    4  A    between atoms: C_23  and  O_17 
ROOT
ATOM      1  C   UNL d   1      53.536  33.237  54.144  0.00  0.00     0.081 A 
ATOM      2  C   UNL d   1      53.187  32.019  53.474  0.00  0.00     0.106 A 
ATOM      3  C   UNL d   1      53.866  31.652  53.778  0.00  0.00     0.208 A 
ATOM      4  C   UNL d   1      54.216  32.869  54.448  0.00  0.00     0.108 A 
ATOM      5  C   UNL d   1      53.376  34.028  54.329  0.00  0.00     0.281 A 
ATOM      6  C   UNL d   1      53.019  32.814  53.656  0.00  0.00     0.015 A 
ATOM      7  O   UNL d   1      54.378  32.086  54.266  0.00  0.00    -0.288 OA
ATOM      8  N   UNL d   1      53.892  34.452  54.817  0.00  0.00    -0.208 NA
ATOM      9  C   UNL d   1      54.736  33.291  54.937  0.00  0.00     0.044 A 
ATOM     10  C   UNL d   1      54.578  34.090  55.126  0.00  0.00     0.087 A 
ATOM     11  O   UNL d   1      52.702  34.390  54.027  0.00  0.00    -0.265 OA
ATOM     12  N   UNL d   1      54.026  30.873  53.596  0.00  0.00    -0.121 N 
ATOM     13  C   UNL d   1      55.085  34.510  55.607  0.00  0.00     0.021 C 
ENDROOT
BRANCH   6  14
ATOM     14  C   UNL d   1      52.347  33.179  53.356  0.00  0.00     0.004 A 
ATOM     15  C   UNL d   1      52.388  33.572  52.633  0.00  0.00     0.021 A 
ATOM     16  C   UNL d   1      51.715  33.937  52.333  0.00  0.00     0.099 A 
ATOM     17  N   UNL d   1      51.010  33.907  52.753  0.00  0.00    -0.242 NA
ATOM     18  C   UNL d   1      50.975  33.511  53.479  0.00  0.00     0.099 A 
ATOM     19  C   UNL d   1      51.642  33.150  53.777  0.00  0.00     0.021 A 
ENDBRANCH   6  14
BRANCH   2  20
ATOM     20  C   UNL d   1      52.677  31.592  52.990  0.00  0.00     0.304 C 
ATOM     21  O   UNL d   1      52.697  31.710  52.176  0.00  0.00    -0.259 OA
BRANCH  20  22
ATOM     22  O   UNL d   1      52.155  31.056  53.313  0.00  0.00    -0.271 OA
BRANCH  22  23
ATOM     23  C   UNL d   1      52.007  30.336  52.946  0.00  0.00     0.126 C 
ATOM     24  C   UNL d   1      51.532  29.776  53.321  0.00  0.00     0.029 C 
ENDBRANCH  22  23
ENDBRANCH  20  22
ENDBRANCH   2  20
TORSDOF 4
ENDMDL
MODEL 7
REMARK VINA RESULT:      -7.3      1.558      2.039
REMARK  4 active torsions:
REMARK  status: ('A' for Active; 'I' for Inactive)
REMARK    1  A    between atoms: C_10  and  C_2 
REMARK    2  A    between atoms: C_13  and  C_6 
REMARK    3  A    between atoms: O_17  and  C_10 
REMARK    4  A    between atoms: C_23  and  O_17 
ROOT
ATOM      1  C   UNL d   1      51.693  33.928  53.144  0.00  0.00     0.081 A 
ATOM      2  C   UNL d   1      52.822  33.081  53.395  0.00  0.00     0.106 A 
ATOM      3  C   UNL d   1      52.480  32.481  52.935  0.00  0.00     0.208 A 
ATOM      4  C   UNL d   1      51.351  33.327  52.684  0.00  0.00     0.108 A 
ATOM      5  C   UNL d   1      51.297  34.648  53.246  0.00  0.00     0.281 A 
ATOM      6  C   UNL d   1      52.429  33.807  53.501  0.00  0.00     0.015 A 
ATOM      7  O   UNL d   1      51.741  32.612  52.581  0.00  0.00    -0.288 OA
ATOM      8  N   UNL d   1      50.560  34.769  52.889  0.00  0.00    -0.208 NA
ATOM      9  C   UNL d   1      50.613  33.445  52.324  0.00  0.00     0.044 A 
ATOM     10  C   UNL d   1      50.210  34.171  52.424  0.00  0.00     0.087 A 
ATOM     11  O   UNL d   1      51.638  35.240  53.702  0.00  0.00    -0.265 OA
ATOM     12  N   UNL d   1      52.868  31.771  52.833  0.00  0.00    -0.121 N 
ATOM     13  C   UNL d   1      49.484  34.293  52.074  0.00  0.00     0.021 C 
ENDROOT
BRANCH   6  14
ATOM     14  C   UNL d   1      52.767  34.402  53.957  0.00  0.00     0.004 A 
ATOM     15  C   UNL d   1      53.174  35.015  53.586  0.00  0.00     0.021 A 
ATOM     16  C   UNL d   1      53.512  35.610  54.042  0.00  0.00     0.099 A 
ATOM     17  N   UNL d   1      53.442  35.589  54.860  0.00  0.00    -0.242 NA
ATOM     18  C   UNL d   1      53.032  34.971  55.227  0.00  0.00     0.099 A 
ATOM     19  C   UNL d   1      52.698  34.382  54.775  0.00  0.00     0.021 A 
ENDBRANCH   6  14
BRANCH   2  20
ATOM     20  C   UNL d   1      53.554  32.954  53.747  0.00  0.00     0.304 C 
ATOM     21  O   UNL d   1      53.590  32.698  54.528  0.00  0.00    -0.259 OA
BRANCH  20  22
ATOM     22  O   UNL d   1      54.241  33.081  53.327  0.00  0.00    -0.271 OA
BRANCH  22  23
ATOM     23  C   UNL d   1      54.936  32.689  53.522  0.00  0.00     0.126 C 
ATOM     24  C   UNL d   1      55.650  32.928  53.186  0.00  0.00     0.029 C 
ENDBRANCH  22  23
ENDBRANCH  20  22
ENDBRANCH   2  20
TORSDOF 4
ENDMDL
