MODEL 1
REMARK VINA RESULT:      -7.7      0.000      0.000
REMARK  2 active torsions:
REMARK  status: ('A' for Active; 'I' for Inactive)
REMARK    1  A    between atoms: C_6  and  C_3 
REMARK    2  A    between atoms: O_13  and  C_10 
ROOT
ATOM      1  C   UNL d   1      52.838  32.586  53.324  0.00  0.00     0.018 A 
ATOM      2  C   UNL d   1      53.469  32.424  53.810  0.00  0.00     0.004 A 
ATOM      3  C   UNL d   1      52.497  31.985  52.886  0.00  0.00     0.004 A 
ATOM      4  C   UNL d   1      53.420  31.052  53.417  0.00  0.00     0.094 A 
ATOM      5  C   UNL d   1      52.788  31.214  52.931  0.00  0.00     0.024 A 
ATOM      6  C   UNL d   1      53.774  31.657  53.868  0.00  0.00     0.024 A 
ENDROOT
BRANCH   1   7
ATOM      7  C   UNL d   1      52.866  33.384  53.554  0.00  0.00     0.090 A 
ATOM      8  N   UNL d   1      53.249  33.938  54.040  0.00  0.00    -0.219 NA
ATOM      9  C   UNL d   1      52.889  34.664  53.900  0.00  0.00     0.215 A 
ATOM     10  S   UNL d   1      52.315  34.555  53.355  0.00  0.00    -0.045 SA
ATOM     11  N   UNL d   1      53.068  35.405  54.250  0.00  0.00    -0.120 N 
ATOM     12  C   UNL d   1      52.287  33.777  53.132  0.00  0.00     0.058 A 
ENDBRANCH   1   7
BRANCH   4  13
ATOM     13  O   UNL d   1      53.724  30.271  53.470  0.00  0.00    -0.328 OA
ATOM     14  C   UNL d   1      53.292  29.679  53.861  0.00  0.00     0.181 C 
ENDBRANCH   4  13
TORSDOF 2
ENDMDL
MODEL 2
REMARK VINA RESULT:      -7.6      2.260      3.537
REMARK  2 active torsions:
REMARK  status: ('A' for Active; 'I' for Inactive)
REMARK    1  A    between atoms: C_6  and  C_3 
REMARK    2  A    between atoms: O_13  and  C_10 
ROOT
ATOM      1  C   UNL d   1      53.737  32.610  54.208  0.00  0.00     0.018 A 
ATOM      2  C   UNL d   1      53.156  33.073  53.878  0.00  0.00     0.004 A 
ATOM      3  C   UNL d   1      54.262  32.936  54.745  0.00  0.00     0.004 A 
ATOM      4  C   UNL d   1      53.627  34.196  54.624  0.00  0.00     0.094 A 
ATOM      5  C   UNL d   1      54.208  33.733  54.955  0.00  0.00     0.024 A 
ATOM      6  C   UNL d   1      53.088  33.873  54.077  0.00  0.00     0.024 A 
ENDROOT
BRANCH   1   7
ATOM      7  C   UNL d   1      53.463  31.957  53.774  0.00  0.00     0.090 A 
ATOM      8  N   UNL d   1      52.951  31.711  53.168  0.00  0.00    -0.219 NA
ATOM      9  C   UNL d   1      53.044  30.896  53.097  0.00  0.00     0.215 A 
ATOM     10  S   UNL d   1      53.587  30.661  53.634  0.00  0.00    -0.045 SA
ATOM     11  N   UNL d   1      52.655  30.377  52.566  0.00  0.00    -0.120 N 
ATOM     12  C   UNL d   1      53.854  31.298  54.057  0.00  0.00     0.058 A 
ENDBRANCH   1   7
BRANCH   4  13
ATOM     13  O   UNL d   1      53.564  35.007  54.831  0.00  0.00    -0.328 OA
ATOM     14  C   UNL d   1      53.016  35.497  54.443  0.00  0.00     0.181 C 
ENDBRANCH   4  13
TORSDOF 2
ENDMDL
MODEL 3
REMARK VINA RESULT:      -7.3      2.096      3.011
REMARK  2 active torsions:
REMARK  status: ('A' for Active; 'I' for Inactive)
REMARK    1  A    between atoms: C_6  and  C_3 
REMARK    2  A    between atoms: O_13  and  C_10 
ROOT
ATOM      1  C   UNL d   1      52.679  33.422  53.710  0.00  0.00     0.018 A 
ATOM      2  C   UNL d   1      52.674  34.228  53.602  0.00  0.00     0.004 A 
ATOM      3  C   UNL d   1      52.088  32.964  53.379  0.00  0.00     0.004 A 
ATOM      4  C   UNL d   1      51.480  34.117  52.828  0.00  0.00     0.094 A 
ATOM      5  C   UNL d   1      51.485  33.311  52.936  0.00  0.00     0.024 A 
ATOM      6  C   UNL d   1      52.078  34.593  53.161  0.00  0.00     0.024 A 
ENDROOT
BRANCH   1   7
ATOM      7  C   UNL d   1      53.374  33.487  54.161  0.00  0.00     0.090 A 
ATOM      8  N   UNL d   1      53.924  34.016  54.489  0.00  0.00    -0.219 NA
ATOM      9  C   UNL d   1      54.484  33.559  54.883  0.00  0.00     0.215 A 
ATOM     10  S   UNL d   1      54.283  32.791  54.797  0.00  0.00    -0.045 SA
ATOM     11  N   UNL d   1      55.158  33.822  55.308  0.00  0.00    -0.120 N 
ATOM     12  C   UNL d   1      53.605  32.728  54.358  0.00  0.00     0.058 A 
ENDBRANCH   1   7
BRANCH   4  13
ATOM     13  O   UNL d   1      50.871  34.481  52.378  0.00  0.00    -0.328 OA
ATOM     14  C   UNL d   1      50.085  34.468  52.648  0.00  0.00     0.181 C 
ENDBRANCH   4  13
TORSDOF 2
ENDMDL
MODEL 4
REMARK VINA RESULT:      -6.9      1.764      2.346
REMARK  2 active torsions:
REMARK  status: ('A' for Active; 'I' for Inactive)
REMARK    1  A    between atoms: C_6  and  C_3 
REMARK    2  A    between atoms: O_13  and  C_10 
ROOT
ATOM      1  C   UNL d   1      52.806  33.238  53.500  0.00  0.00     0.018 A 
ATOM      2  C   UNL d   1      52.801  33.679  54.183  0.00  0.00     0.004 A 
ATOM      3  C   UNL d   1      53.434  32.737  53.344  0.00  0.00     0.004 A 
ATOM      4  C   UNL d   1      54.059  33.117  54.556  0.00  0.00     0.094 A 
ATOM      5  C   UNL d   1      54.064  32.676  53.873  0.00  0.00     0.024 A 
ATOM      6  C   UNL d   1      53.424  33.630  54.725  0.00  0.00     0.024 A 
ENDROOT
BRANCH   1   7
ATOM      7  C   UNL d   1      52.074  33.565  53.283  0.00  0.00     0.090 A 
ATOM      8  N   UNL d   1      51.347  33.852  53.566  0.00  0.00    -0.219 NA
ATOM      9  C   UNL d   1      50.913  34.086  52.907  0.00  0.00     0.215 A 
ATOM     10  S   UNL d   1      51.356  33.948  52.257  0.00  0.00    -0.045 SA
ATOM     11  N   UNL d   1      50.142  34.415  52.888  0.00  0.00    -0.120 N 
ATOM     12  C   UNL d   1      52.070  33.629  52.468  0.00  0.00     0.058 A 
ENDBRANCH   1   7
BRANCH   4  13
ATOM     13  O   UNL d   1      54.696  33.062  55.102  0.00  0.00    -0.328 OA
ATOM     14  C   UNL d   1      55.191  33.715  55.236  0.00  0.00     0.181 C 
ENDBRANCH   4  13
TORSDOF 2
ENDMDL
