MODEL 1
REMARK VINA RESULT:      -0.7      0.000      0.000
REMARK  4 active torsions:
REMARK  status: ('A' for Active; 'I' for Inactive)
REMARK    1  A    between atoms: C_2  and  N_1 
REMARK       I    between atoms: C_4  and  N_1 
REMARK    2  A    between atoms: C_3  and  C_2 
REMARK    3  A    between atoms: N_5  and  C_2 
REMARK    4  A    between atoms: C_6  and  C_4 
ROOT
ATOM      1  C   UNL d   1      31.769  17.358 -24.495  0.00  0.00     0.170 C 
ENDROOT
BRANCH   1   2
ATOM      2  N   UNL d   1      32.224  17.881 -24.972  0.00  0.00    -0.191 NA
ATOM      3  C   UNL d   1      32.757  18.435 -24.610  0.00  0.00     0.280 C 
ATOM      4  O   UNL d   1      33.234  18.983 -25.092  0.00  0.00    -0.265 OA
BRANCH   3   5
ATOM      5  C   UNL d   1      32.817  18.447 -23.780  0.00  0.00     0.058 A 
ATOM      6  C   UNL d   1      33.181  17.826 -23.357  0.00  0.00     0.007 A 
ATOM      7  C   UNL d   1      33.230  17.858 -22.531  0.00  0.00     0.030 A 
ATOM      8  C   UNL d   1      32.923  18.498 -22.109  0.00  0.00     0.140 A 
ATOM      9  C   UNL d   1      32.559  19.118 -22.531  0.00  0.00     0.030 A 
ATOM     10  F   UNL d   1      32.959  18.542 -21.360  0.00  0.00    -0.204 F 
ATOM     11  C   UNL d   1      32.505  19.092 -23.383  0.00  0.00     0.007 A 
ENDBRANCH   3   5
ENDBRANCH   1   2
BRANCH   1  12
ATOM     12  C   UNL d   1      31.992  16.720 -24.091  0.00  0.00     0.249 C 
ATOM     13 CL   UNL d   1      32.376  15.869 -23.737  0.00  0.00    -0.075 Cl
ATOM     14 CL   UNL d   1      32.516  16.225 -24.535  0.00  0.00    -0.075 Cl
ATOM     15 CL   UNL d   1      31.743  16.742 -23.583  0.00  0.00    -0.075 Cl
ENDBRANCH   1  12
BRANCH   1  16
ATOM     16  N   UNL d   1      30.978  17.494 -24.411  0.00  0.00    -0.286 N 
ATOM     17  C   UNL d   1      30.539  17.094 -23.866  0.00  0.00     0.108 A 
ATOM     18  C   UNL d   1      29.739  17.236 -23.786  0.00  0.00     0.142 A 
ATOM     19  O   UNL d   1      29.387  17.788 -24.264  0.00  0.00    -0.300 OA
ATOM     20  C   UNL d   1      29.818  18.184 -24.803  0.00  0.00     0.142 A 
ATOM     21  C   UNL d   1      30.613  18.034 -24.874  0.00  0.00     0.108 A 
ENDBRANCH   1  16
TORSDOF 4
ENDMDL
MODEL 2
REMARK VINA RESULT:      -0.1      1.868      3.027
REMARK  4 active torsions:
REMARK  status: ('A' for Active; 'I' for Inactive)
REMARK    1  A    between atoms: C_2  and  N_1 
REMARK       I    between atoms: C_4  and  N_1 
REMARK    2  A    between atoms: C_3  and  C_2 
REMARK    3  A    between atoms: N_5  and  C_2 
REMARK    4  A    between atoms: C_6  and  C_4 
ROOT
ATOM      1  C   UNL d   1      31.636  17.530 -24.366  0.00  0.00     0.170 C 
ENDROOT
BRANCH   1   2
ATOM      2  N   UNL d   1      32.001  16.913 -24.808  0.00  0.00    -0.191 NA
ATOM      3  C   UNL d   1      31.810  16.101 -24.646  0.00  0.00     0.280 C 
ATOM      4  O   UNL d   1      32.180  15.453 -25.096  0.00  0.00    -0.265 OA
BRANCH   3   5
ATOM      5  C   UNL d   1      31.259  15.933 -24.045  0.00  0.00     0.058 A 
ATOM      6  C   UNL d   1      31.500  15.748 -23.267  0.00  0.00     0.007 A 
ATOM      7  C   UNL d   1      30.936  15.585 -22.685  0.00  0.00     0.030 A 
ATOM      8  C   UNL d   1      30.128  15.599 -22.855  0.00  0.00     0.140 A 
ATOM      9  C   UNL d   1      29.887  15.783 -23.633  0.00  0.00     0.030 A 
ATOM     10  F   UNL d   1      29.604  15.453 -22.339  0.00  0.00    -0.204 F 
ATOM     11  C   UNL d   1      30.464  15.953 -24.239  0.00  0.00     0.007 A 
ENDBRANCH   3   5
ENDBRANCH   1   2
BRANCH   1  12
ATOM     12  C   UNL d   1      30.895  17.794 -24.384  0.00  0.00     0.249 C 
ATOM     13 CL   UNL d   1      30.004  18.199 -24.579  0.00  0.00    -0.075 Cl
ATOM     14 CL   UNL d   1      30.721  18.216 -25.097  0.00  0.00    -0.075 Cl
ATOM     15 CL   UNL d   1      30.644  17.635 -23.902  0.00  0.00    -0.075 Cl
ENDBRANCH   1  12
BRANCH   1  16
ATOM     16  N   UNL d   1      32.079  17.940 -23.830  0.00  0.00    -0.286 N 
ATOM     17  C   UNL d   1      32.470  17.564 -23.234  0.00  0.00     0.108 A 
ATOM     18  C   UNL d   1      32.916  17.984 -22.695  0.00  0.00     0.142 A 
ATOM     19  O   UNL d   1      32.962  18.790 -22.765  0.00  0.00    -0.300 OA
ATOM     20  C   UNL d   1      32.577  19.164 -23.352  0.00  0.00     0.142 A 
ATOM     21  C   UNL d   1      32.136  18.736 -23.882  0.00  0.00     0.108 A 
ENDBRANCH   1  16
TORSDOF 4
ENDMDL
MODEL 3
REMARK VINA RESULT:       1.7      1.585      2.098
REMARK  4 active torsions:
REMARK  status: ('A' for Active; 'I' for Inactive)
REMARK    1  A    between atoms: C_2  and  N_1 
REMARK       I    between atoms: C_4  and  N_1 
REMARK    2  A    between atoms: C_3  and  C_2 
REMARK    3  A    between atoms: N_5  and  C_2 
REMARK    4  A    between atoms: C_6  and  C_4 
ROOT
ATOM      1  C   UNL d   1      32.025  17.580 -24.314  0.00  0.00     0.170 C 
ENDROOT
BRANCH   1   2
ATOM      2  N   UNL d   1      32.471  17.092 -24.835  0.00  0.00    -0.191 NA
ATOM      3  C   UNL d   1      32.776  16.346 -24.568  0.00  0.00     0.280 C 
ATOM      4  O   UNL d   1      33.239  15.832 -25.097  0.00  0.00    -0.265 OA
BRANCH   3   5
ATOM      5  C   UNL d   1      32.623  16.111 -23.783  0.00  0.00     0.058 A 
ATOM      6  C   UNL d   1      31.926  15.701 -23.575  0.00  0.00     0.007 A 
ATOM      7  C   UNL d   1      31.794  15.477 -22.789  0.00  0.00     0.030 A 
ATOM      8  C   UNL d   1      32.342  15.652 -22.197  0.00  0.00     0.140 A 
ATOM      9  C   UNL d   1      33.039  16.062 -22.405  0.00  0.00     0.030 A 
ATOM     10  F   UNL d   1      32.238  15.455 -21.480  0.00  0.00    -0.204 F 
ATOM     11  C   UNL d   1      33.182  16.296 -23.214  0.00  0.00     0.007 A 
ENDBRANCH   3   5
ENDBRANCH   1   2
BRANCH   1  12
ATOM     12  C   UNL d   1      32.264  18.025 -23.710  0.00  0.00     0.249 C 
ATOM     13 CL   UNL d   1      32.701  18.652 -23.068  0.00  0.00    -0.075 Cl
ATOM     14 CL   UNL d   1      32.932  18.505 -23.909  0.00  0.00    -0.075 Cl
ATOM     15 CL   UNL d   1      31.924  17.917 -23.271  0.00  0.00    -0.075 Cl
ENDBRANCH   1  12
BRANCH   1  16
ATOM     16  N   UNL d   1      31.225  17.627 -24.412  0.00  0.00    -0.286 N 
ATOM     17  C   UNL d   1      30.825  17.089 -24.859  0.00  0.00     0.108 A 
ATOM     18  C   UNL d   1      30.016  17.143 -24.954  0.00  0.00     0.142 A 
ATOM     19  O   UNL d   1      29.615  17.746 -24.592  0.00  0.00    -0.300 OA
ATOM     20  C   UNL d   1      30.007  18.279 -24.150  0.00  0.00     0.142 A 
ATOM     21  C   UNL d   1      30.812  18.216 -24.062  0.00  0.00     0.108 A 
ENDBRANCH   1  16
TORSDOF 4
ENDMDL
