MODEL 1
REMARK VINA RESULT:      39.7      0.000      0.000
REMARK  7 active torsions:
REMARK  status: ('A' for Active; 'I' for Inactive)
REMARK    1  A    between atoms: C_8  and  N_1 
REMARK    2  A    between atoms: C_7  and  C_3 
REMARK    3  A    between atoms: C_10  and  C_6 
REMARK    4  A    between atoms: C_11  and  C_7 
REMARK    5  A    between atoms: C_14  and  C_8 
REMARK    6  A    between atoms: C_12  and  C_14 
REMARK       I    between atoms: N_17  and  C_12 
REMARK    7  A    between atoms: C_20  and  N_17 
ROOT
ATOM      1  C   UNL d   1      46.424 -18.514  40.504  0.00  0.00     0.089 C 
ENDROOT
BRANCH   1   2
ATOM      2  N   UNL d   1      46.502 -18.947  41.201  0.00  0.00    -0.259 N 
ATOM      3  C   UNL d   1      46.581 -19.776  41.287  0.00  0.00     0.153 A 
ATOM      4  S   UNL d   1      46.644 -19.958  42.099  0.00  0.00    -0.053 SA
ATOM      5  S   UNL d   1      46.595 -20.326  40.655  0.00  0.00    -0.052 SA
ATOM      6  C   UNL d   1      46.604 -19.239  42.527  0.00  0.00     0.090 A 
ATOM      7  C   UNL d   1      46.518 -18.629  41.981  0.00  0.00     0.272 A 
ATOM      8  O   UNL d   1      46.456 -17.804  42.187  0.00  0.00    -0.266 OA
BRANCH   6   9
ATOM      9  C   UNL d   1      46.646 -19.178  43.348  0.00  0.00     0.036 C 
BRANCH   9  10
ATOM     10  C   UNL d   1      46.082 -19.588  43.808  0.00  0.00     0.101 A 
ATOM     11  O   UNL d   1      45.454 -20.086  43.594  0.00  0.00    -0.305 OA
ATOM     12  C   UNL d   1      45.091 -20.326  44.320  0.00  0.00     0.123 A 
ATOM     13  C   UNL d   1      45.480 -19.992  44.917  0.00  0.00     0.029 A 
ATOM     14  C   UNL d   1      46.098 -19.531  44.632  0.00  0.00     0.027 A 
ENDBRANCH   9  10
ENDBRANCH   6   9
ENDBRANCH   1   2
BRANCH   1  15
ATOM     15  C   UNL d   1      45.656 -18.274  40.220  0.00  0.00     0.082 C 
BRANCH  15  16
ATOM     16  C   UNL d   1      45.594 -17.852  39.520  0.00  0.00     0.281 C 
ATOM     17  N   UNL d   1      45.147 -17.156  39.501  0.00  0.00    -0.208 NA
ATOM     18  O   UNL d   1      45.978 -18.127  38.842  0.00  0.00    -0.265 OA
BRANCH  17  19
ATOM     19  C   UNL d   1      45.084 -16.732  38.798  0.00  0.00     0.088 A 
ATOM     20  C   UNL d   1      44.380 -16.729  38.394  0.00  0.00     0.061 A 
ATOM     21  C   UNL d   1      44.295 -16.318  37.699  0.00  0.00     0.203 A 
ATOM     22  O   UNL d   1      43.555 -16.326  37.291  0.00  0.00    -0.286 OA
ATOM     23  C   UNL d   1      44.985 -15.886  37.410  0.00  0.00     0.103 A 
ATOM     24  C   UNL d   1      45.688 -15.887  37.811  0.00  0.00     0.011 A 
ATOM     25  C   UNL d   1      45.728 -16.327  38.527  0.00  0.00     0.020 A 
BRANCH  23  26
ATOM     26  C   UNL d   1      44.946 -15.450  36.702  0.00  0.00     0.214 C 
ATOM     27  O   UNL d   1      45.655 -15.175  36.331  0.00  0.00    -0.644 OA
ATOM     28  O   UNL d   1      44.229 -15.272  36.342  0.00  0.00    -0.644 OA
ENDBRANCH  23  26
ENDBRANCH  17  19
ENDBRANCH  15  16
ENDBRANCH   1  15
TORSDOF 7
ENDMDL
MODEL 2
REMARK VINA RESULT:      41.1      3.060      5.142
REMARK  7 active torsions:
REMARK  status: ('A' for Active; 'I' for Inactive)
REMARK    1  A    between atoms: C_8  and  N_1 
REMARK    2  A    between atoms: C_7  and  C_3 
REMARK    3  A    between atoms: C_10  and  C_6 
REMARK    4  A    between atoms: C_11  and  C_7 
REMARK    5  A    between atoms: C_14  and  C_8 
REMARK    6  A    between atoms: C_12  and  C_14 
REMARK       I    between atoms: N_17  and  C_12 
REMARK    7  A    between atoms: C_20  and  N_17 
ROOT
ATOM      1  C   UNL d   1      46.478 -18.331  43.440  0.00  0.00     0.089 C 
ENDROOT
BRANCH   1   2
ATOM      2  N   UNL d   1      46.428 -18.780  42.751  0.00  0.00    -0.259 N 
ATOM      3  C   UNL d   1      46.294 -19.603  42.678  0.00  0.00     0.153 A 
ATOM      4  S   UNL d   1      46.288 -19.806  41.870  0.00  0.00    -0.053 SA
ATOM      5  S   UNL d   1      46.184 -20.130  43.321  0.00  0.00    -0.052 SA
ATOM      6  C   UNL d   1      46.419 -19.106  41.428  0.00  0.00     0.090 A 
ATOM      7  C   UNL d   1      46.503 -18.487  41.964  0.00  0.00     0.272 A 
ATOM      8  O   UNL d   1      46.645 -17.676  41.743  0.00  0.00    -0.266 OA
BRANCH   6   9
ATOM      9  C   UNL d   1      46.454 -19.069  40.605  0.00  0.00     0.036 C 
BRANCH   9  10
ATOM     10  C   UNL d   1      46.038 -18.459  40.216  0.00  0.00     0.101 A 
ATOM     11  O   UNL d   1      46.297 -17.755  39.860  0.00  0.00    -0.305 OA
ATOM     12  C   UNL d   1      45.601 -17.376  39.562  0.00  0.00     0.123 A 
ATOM     13  C   UNL d   1      44.978 -17.826  39.732  0.00  0.00     0.029 A 
ATOM     14  C   UNL d   1      45.217 -18.502  40.135  0.00  0.00     0.027 A 
ENDBRANCH   9  10
ENDBRANCH   6   9
ENDBRANCH   1   2
BRANCH   1  15
ATOM     15  C   UNL d   1      45.805 -17.897  43.732  0.00  0.00     0.082 C 
BRANCH  15  16
ATOM     16  C   UNL d   1      45.893 -17.115  43.963  0.00  0.00     0.281 C 
ATOM     17  N   UNL d   1      45.367 -16.544  43.679  0.00  0.00    -0.208 NA
ATOM     18  O   UNL d   1      46.506 -16.908  44.477  0.00  0.00    -0.265 OA
BRANCH  17  19
ATOM     19  C   UNL d   1      45.455 -15.758  43.912  0.00  0.00     0.088 A 
ATOM     20  C   UNL d   1      45.744 -15.215  43.382  0.00  0.00     0.061 A 
ATOM     21  C   UNL d   1      45.840 -14.436  43.588  0.00  0.00     0.203 A 
ATOM     22  O   UNL d   1      46.142 -13.883  43.024  0.00  0.00    -0.286 OA
ATOM     23  C   UNL d   1      45.622 -14.212  44.394  0.00  0.00     0.103 A 
ATOM     24  C   UNL d   1      45.334 -14.752  44.924  0.00  0.00     0.011 A 
ATOM     25  C   UNL d   1      45.252 -15.548  44.664  0.00  0.00     0.020 A 
BRANCH  23  26
ATOM     26  C   UNL d   1      45.702 -13.425  44.651  0.00  0.00     0.214 C 
ATOM     27  O   UNL d   1      46.453 -13.036  44.606  0.00  0.00    -0.644 OA
ATOM     28  O   UNL d   1      45.067 -13.000  44.953  0.00  0.00    -0.644 OA
ENDBRANCH  23  26
ENDBRANCH  17  19
ENDBRANCH  15  16
ENDBRANCH   1  15
TORSDOF 7
ENDMDL
