MODEL 1
REMARK VINA RESULT:      -6.4      0.000      0.000
REMARK  3 active torsions:
REMARK  status: ('A' for Active; 'I' for Inactive)
REMARK    1  A    between atoms: C_6  and  C_1 
REMARK    2  A    between atoms: C_5  and  N_2 
REMARK    3  A    between atoms: N_4  and  C_6 
ROOT
ATOM      1  N   UNL d   1     -41.395-122.791 -52.827  0.00  0.00    -0.299 N 
ATOM      2  N   UNL d   1     -41.312-122.644 -51.228  0.00  0.00    -0.300 N 
ATOM      3  C   UNL d   1     -41.475-123.448 -52.358  0.00  0.00     0.100 A 
ATOM      4  C   UNL d   1     -41.271-122.045 -52.499  0.00  0.00     0.100 A 
ATOM      5  C   UNL d   1     -41.433-123.374 -51.559  0.00  0.00     0.100 A 
ATOM      6  C   UNL d   1     -41.230-121.971 -51.699  0.00  0.00     0.100 A 
ENDROOT
BRANCH   2   7
ATOM      7  C   UNL d   1     -41.266-122.550 -50.393  0.00  0.00     0.084 C 
BRANCH   7   8
ATOM      8  C   UNL d   1     -41.952-122.613 -49.904  0.00  0.00     0.057 A 
ATOM      9  C   UNL d   1     -41.878-123.013 -49.213  0.00  0.00     0.004 A 
ATOM     10  C   UNL d   1     -42.573-123.083 -48.707  0.00  0.00     0.000 A 
ATOM     11  C   UNL d   1     -41.165-123.354 -48.977  0.00  0.00     0.000 A 
ATOM     12  C   UNL d   1     -42.510-123.491 -47.994  0.00  0.00     0.000 A 
ATOM     13  C   UNL d   1     -43.268-122.750 -48.937  0.00  0.00     0.003 A 
ATOM     14  C   UNL d   1     -41.777-123.817 -47.797  0.00  0.00     0.000 A 
ATOM     15  C   UNL d   1     -41.144-123.767 -48.233  0.00  0.00     0.000 A 
ATOM     16  C   UNL d   1     -43.304-122.330 -49.686  0.00  0.00     0.042 A 
ATOM     17  C   UNL d   1     -42.671-122.281 -50.121  0.00  0.00     0.197 A 
ATOM     18  O   UNL d   1     -42.736-121.860 -50.855  0.00  0.00    -0.286 OA
ENDBRANCH   7   8
ENDBRANCH   2   7
BRANCH   1  19
ATOM     19  C   UNL d   1     -41.439-122.869 -53.665  0.00  0.00     0.092 A 
ATOM     20  C   UNL d   1     -41.803-122.269 -54.105  0.00  0.00     0.156 A 
ATOM     21  F   UNL d   1     -42.124-121.599 -53.746  0.00  0.00    -0.203 F 
ATOM     22  C   UNL d   1     -41.847-122.347 -54.951  0.00  0.00     0.031 A 
ATOM     23  C   UNL d   1     -41.524-123.021 -55.310  0.00  0.00     0.002 A 
ATOM     24  C   UNL d   1     -41.170-123.601 -54.870  0.00  0.00     0.002 A 
ATOM     25  C   UNL d   1     -41.126-123.523 -54.025  0.00  0.00     0.020 A 
ENDBRANCH   1  19
TORSDOF 3
ENDMDL
MODEL 2
REMARK VINA RESULT:      -5.6      1.331      4.884
REMARK  3 active torsions:
REMARK  status: ('A' for Active; 'I' for Inactive)
REMARK    1  A    between atoms: C_6  and  C_1 
REMARK    2  A    between atoms: C_5  and  N_2 
REMARK    3  A    between atoms: N_4  and  C_6 
ROOT
ATOM      1  N   UNL d   1     -42.154-122.777 -50.101  0.00  0.00    -0.299 N 
ATOM      2  N   UNL d   1     -41.639-122.320 -51.554  0.00  0.00    -0.300 N 
ATOM      3  C   UNL d   1     -42.615-122.289 -50.556  0.00  0.00     0.100 A 
ATOM      4  C   UNL d   1     -41.422-123.046 -50.371  0.00  0.00     0.100 A 
ATOM      5  C   UNL d   1     -42.357-122.061 -51.282  0.00  0.00     0.100 A 
ATOM      6  C   UNL d   1     -41.165-122.817 -51.098  0.00  0.00     0.100 A 
ENDROOT
BRANCH   2   7
ATOM      7  C   UNL d   1     -41.356-122.090 -52.313  0.00  0.00     0.084 C 
BRANCH   7   8
ATOM      8  C   UNL d   1     -41.500-122.561 -52.999  0.00  0.00     0.057 A 
ATOM      9  C   UNL d   1     -41.750-122.184 -53.661  0.00  0.00     0.004 A 
ATOM     10  C   UNL d   1     -41.900-122.657 -54.367  0.00  0.00     0.000 A 
ATOM     11  C   UNL d   1     -41.867-121.368 -53.684  0.00  0.00     0.000 A 
ATOM     12  C   UNL d   1     -42.157-122.282 -55.053  0.00  0.00     0.000 A 
ATOM     13  C   UNL d   1     -41.786-123.453 -54.344  0.00  0.00     0.003 A 
ATOM     14  C   UNL d   1     -42.261-121.462 -55.032  0.00  0.00     0.000 A 
ATOM     15  C   UNL d   1     -42.134-121.020 -54.414  0.00  0.00     0.000 A 
ATOM     16  C   UNL d   1     -41.517-123.817 -53.614  0.00  0.00     0.042 A 
ATOM     17  C   UNL d   1     -41.390-123.375 -52.996  0.00  0.00     0.197 A 
ATOM     18  O   UNL d   1     -41.125-123.762 -52.290  0.00  0.00    -0.286 OA
ENDBRANCH   7   8
ENDBRANCH   2   7
BRANCH   1  19
ATOM     19  C   UNL d   1     -42.423-123.017 -49.340  0.00  0.00     0.092 A 
ATOM     20  C   UNL d   1     -43.074-123.528 -49.286  0.00  0.00     0.156 A 
ATOM     21  F   UNL d   1     -43.463-123.808 -49.957  0.00  0.00    -0.203 F 
ATOM     22  C   UNL d   1     -43.346-123.770 -48.518  0.00  0.00     0.031 A 
ATOM     23  C   UNL d   1     -42.953-123.487 -47.845  0.00  0.00     0.002 A 
ATOM     24  C   UNL d   1     -42.318-122.988 -47.908  0.00  0.00     0.002 A 
ATOM     25  C   UNL d   1     -42.046-122.746 -48.677  0.00  0.00     0.020 A 
ENDBRANCH   1  19
TORSDOF 3
ENDMDL
MODEL 3
REMARK VINA RESULT:      -5.3      1.150      4.725
REMARK  3 active torsions:
REMARK  status: ('A' for Active; 'I' for Inactive)
REMARK    1  A    between atoms: C_6  and  C_1 
REMARK    2  A    between atoms: C_5  and  N_2 
REMARK    3  A    between atoms: N_4  and  C_6 
ROOT
ATOM      1  N   UNL d   1     -41.852-123.118 -50.415  0.00  0.00    -0.299 N 
ATOM      2  N   UNL d   1     -41.379-122.934 -51.940  0.00  0.00    -0.300 N 
ATOM      3  C   UNL d   1     -42.098-123.646 -50.978  0.00  0.00     0.100 A 
ATOM      4  C   UNL d   1     -41.361-122.485 -50.610  0.00  0.00     0.100 A 
ATOM      5  C   UNL d   1     -41.862-123.554 -51.741  0.00  0.00     0.100 A 
ATOM      6  C   UNL d   1     -41.124-122.393 -51.373  0.00  0.00     0.100 A 
ENDROOT
BRANCH   2   7
ATOM      7  C   UNL d   1     -41.123-122.825 -52.735  0.00  0.00     0.084 C 
BRANCH   7   8
ATOM      8  C   UNL d   1     -41.569-122.361 -53.282  0.00  0.00     0.057 A 
ATOM      9  C   UNL d   1     -41.789-122.710 -53.969  0.00  0.00     0.004 A 
ATOM     10  C   UNL d   1     -42.246-122.245 -54.535  0.00  0.00     0.000 A 
ATOM     11  C   UNL d   1     -41.593-123.492 -54.147  0.00  0.00     0.000 A 
ATOM     12  C   UNL d   1     -42.478-122.592 -55.244  0.00  0.00     0.000 A 
ATOM     13  C   UNL d   1     -42.436-121.483 -54.361  0.00  0.00     0.003 A 
ATOM     14  C   UNL d   1     -42.260-123.377 -55.382  0.00  0.00     0.000 A 
ATOM     15  C   UNL d   1     -41.853-123.811 -54.892  0.00  0.00     0.000 A 
ATOM     16  C   UNL d   1     -42.181-121.148 -53.613  0.00  0.00     0.042 A 
ATOM     17  C   UNL d   1     -41.774-121.582 -53.123  0.00  0.00     0.197 A 
ATOM     18  O   UNL d   1     -41.535-121.224 -52.393  0.00  0.00    -0.286 OA
ENDBRANCH   7   8
ENDBRANCH   2   7
BRANCH   1  19
ATOM     19  C   UNL d   1     -42.100-123.214 -49.616  0.00  0.00     0.092 A 
ATOM     20  C   UNL d   1     -42.817-122.877 -49.374  0.00  0.00     0.156 A 
ATOM     21  F   UNL d   1     -43.294-122.450 -49.894  0.00  0.00    -0.203 F 
ATOM     22  C   UNL d   1     -43.067-122.974 -48.567  0.00  0.00     0.031 A 
ATOM     23  C   UNL d   1     -42.586-123.403 -48.046  0.00  0.00     0.002 A 
ATOM     24  C   UNL d   1     -41.887-123.728 -48.292  0.00  0.00     0.002 A 
ATOM     25  C   UNL d   1     -41.636-123.631 -49.099  0.00  0.00     0.020 A 
ENDBRANCH   1  19
TORSDOF 3
ENDMDL
