MODEL 1
REMARK VINA RESULT:      41.3      0.000      0.000
REMARK  2 active torsions:
REMARK  status: ('A' for Active; 'I' for Inactive)
REMARK    1  A    between atoms: C_9  and  C_2 
REMARK    2  A    between atoms: C_12  and  C_7 
ROOT
ATOM      1  N   UNL d   1      44.642 -14.414  44.549  0.00  0.00    -0.186 N 
ATOM      2  C   UNL d   1      44.683 -13.587  44.486  0.00  0.00     0.187 A 
ATOM      3  N   UNL d   1      45.189 -14.998  44.382  0.00  0.00    -0.162 NA
ATOM      4  C   UNL d   1      43.890 -14.610  44.834  0.00  0.00     0.217 A 
ATOM      5  N   UNL d   1      43.959 -13.282  44.733  0.00  0.00    -0.127 NA
ATOM      6  N   UNL d   1      43.470 -13.914  44.948  0.00  0.00    -0.120 NA
ATOM      7  C   UNL d   1      44.998 -15.796  44.497  0.00  0.00     0.108 A 
ATOM      8  S   UNL d   1      43.692 -15.402  44.951  0.00  0.00    -0.045 SA
ATOM      9  C   UNL d   1      44.247 -15.998  44.783  0.00  0.00     0.059 A 
ENDROOT
BRANCH   2  10
ATOM     10  C   UNL d   1      45.341 -13.154  44.221  0.00  0.00     0.038 A 
ATOM     11  C   UNL d   1      45.342 -12.839  43.458  0.00  0.00     0.003 A 
ATOM     12  C   UNL d   1      45.985 -12.413  43.191  0.00  0.00     0.000 A 
ATOM     13  C   UNL d   1      45.981 -12.103  42.434  0.00  0.00     0.000 C 
ATOM     14  C   UNL d   1      46.630 -12.303  43.695  0.00  0.00     0.000 A 
ATOM     15  C   UNL d   1      46.631 -12.616  44.455  0.00  0.00     0.000 A 
ATOM     16  C   UNL d   1      45.982 -13.042  44.716  0.00  0.00     0.003 A 
ENDBRANCH   2  10
BRANCH   7  17
ATOM     17  C   UNL d   1      45.546 -16.387  44.331  0.00  0.00     0.020 A 
ATOM     18  C   UNL d   1      45.674 -16.624  43.549  0.00  0.00     0.002 A 
ATOM     19  C   UNL d   1      46.225 -17.217  43.390  0.00  0.00     0.000 A 
ATOM     20  C   UNL d   1      46.645 -17.572  43.998  0.00  0.00     0.000 A 
ATOM     21  C   UNL d   1      46.517 -17.334  44.782  0.00  0.00     0.000 A 
ATOM     22  C   UNL d   1      45.963 -16.737  44.949  0.00  0.00     0.002 A 
ENDBRANCH   7  17
TORSDOF 2
ENDMDL
