MODEL 1
REMARK VINA RESULT:      -7.4      0.000      0.000
REMARK  5 active torsions:
REMARK  status: ('A' for Active; 'I' for Inactive)
REMARK       I    between atoms: C_2  and  N_1 
REMARK    1  A    between atoms: C_4  and  N_1 
REMARK    2  A    between atoms: C_14  and  C_2 
REMARK       I    between atoms: C_3  and  N_6 
REMARK    3  A    between atoms: C_5  and  C_3 
REMARK    4  A    between atoms: N_8  and  C_4 
REMARK    5  A    between atoms: N_6  and  N_8 
ROOT
ATOM      1  C   UNL d   1      52.638  32.488  53.033  0.00  0.00     0.243 C 
ATOM      2  S   UNL d   1      52.566  31.675  52.978  0.00  0.00    -0.035 SA
ENDROOT
BRANCH   1   3
ATOM      3  N   UNL d   1      53.068  32.829  53.652  0.00  0.00    -0.177 NA
ATOM      4  C   UNL d   1      53.869  32.656  53.739  0.00  0.00     0.281 C 
ATOM      5  O   UNL d   1      54.240  32.141  53.206  0.00  0.00    -0.265 OA
BRANCH   4   6
ATOM      6  C   UNL d   1      54.295  32.995  54.354  0.00  0.00     0.058 A 
ATOM      7  C   UNL d   1      54.081  32.850  55.132  0.00  0.00     0.005 A 
ATOM      8  C   UNL d   1      54.507  33.190  55.751  0.00  0.00     0.000 A 
ATOM      9  C   UNL d   1      55.150  33.677  55.582  0.00  0.00     0.000 A 
ATOM     10  C   UNL d   1      55.368  33.824  54.794  0.00  0.00     0.000 A 
ATOM     11  C   UNL d   1      54.938  33.482  54.179  0.00  0.00     0.005 A 
ENDBRANCH   4   6
ENDBRANCH   1   3
BRANCH   1  12
ATOM     12  N   UNL d   1      52.279  32.971  52.468  0.00  0.00    -0.114 NA
BRANCH  12  13
ATOM     13  N   UNL d   1      51.544  33.310  52.614  0.00  0.00    -0.103 NA
ATOM     14  C   UNL d   1      51.262  33.920  52.136  0.00  0.00     0.303 C 
ATOM     15  O   UNL d   1      51.716  34.191  51.513  0.00  0.00    -0.263 OA
BRANCH  14  16
ATOM     16  C   UNL d   1      50.527  34.251  52.291  0.00  0.00     0.089 A 
ATOM     17  S   UNL d   1      49.856  34.263  51.749  0.00  0.00    -0.082 SA
ATOM     18  C   UNL d   1      49.195  34.670  52.146  0.00  0.00     0.036 A 
ATOM     19  C   UNL d   1      49.465  34.905  52.931  0.00  0.00     0.008 A 
ATOM     20  C   UNL d   1      50.281  34.650  53.024  0.00  0.00     0.012 A 
ENDBRANCH  14  16
ENDBRANCH  12  13
ENDBRANCH   1  12
TORSDOF 5
ENDMDL
MODEL 2
REMARK VINA RESULT:      -7.3      1.798      4.428
REMARK  5 active torsions:
REMARK  status: ('A' for Active; 'I' for Inactive)
REMARK       I    between atoms: C_2  and  N_1 
REMARK    1  A    between atoms: C_4  and  N_1 
REMARK    2  A    between atoms: C_14  and  C_2 
REMARK       I    between atoms: C_3  and  N_6 
REMARK    3  A    between atoms: C_5  and  C_3 
REMARK    4  A    between atoms: N_8  and  C_4 
REMARK    5  A    between atoms: N_6  and  N_8 
ROOT
ATOM      1  C   UNL d   1      52.988  33.579  54.009  0.00  0.00     0.243 C 
ATOM      2  S   UNL d   1      53.216  34.128  54.570  0.00  0.00    -0.035 SA
ENDROOT
BRANCH   1   3
ATOM      3  N   UNL d   1      52.249  33.639  53.642  0.00  0.00    -0.177 NA
ATOM      4  C   UNL d   1      52.076  34.294  53.173  0.00  0.00     0.281 C 
ATOM      5  O   UNL d   1      52.643  34.890  53.071  0.00  0.00    -0.265 OA
BRANCH   4   6
ATOM      6  C   UNL d   1      51.342  34.353  52.809  0.00  0.00     0.058 A 
ATOM      7  C   UNL d   1      50.678  34.543  53.250  0.00  0.00     0.005 A 
ATOM      8  C   UNL d   1      49.940  34.602  52.887  0.00  0.00     0.000 A 
ATOM      9  C   UNL d   1      49.874  34.468  52.076  0.00  0.00     0.000 A 
ATOM     10  C   UNL d   1      50.547  34.275  51.628  0.00  0.00     0.000 A 
ATOM     11  C   UNL d   1      51.282  34.217  51.997  0.00  0.00     0.005 A 
ENDBRANCH   4   6
ENDBRANCH   1   3
BRANCH   1  12
ATOM     12  N   UNL d   1      53.497  32.962  53.807  0.00  0.00    -0.114 NA
BRANCH  12  13
ATOM     13  N   UNL d   1      53.232  32.183  53.811  0.00  0.00    -0.103 NA
ATOM     14  C   UNL d   1      53.724  31.572  53.558  0.00  0.00     0.303 C 
ATOM     15  O   UNL d   1      54.482  31.740  53.301  0.00  0.00    -0.263 OA
BRANCH  14  16
ATOM     16  C   UNL d   1      53.449  30.798  53.566  0.00  0.00     0.089 A 
ATOM     17  S   UNL d   1      53.623  30.208  54.171  0.00  0.00    -0.082 SA
ATOM     18  C   UNL d   1      53.216  29.470  53.953  0.00  0.00     0.036 A 
ATOM     19  C   UNL d   1      52.794  29.611  53.214  0.00  0.00     0.008 A 
ATOM     20  C   UNL d   1      52.934  30.424  52.973  0.00  0.00     0.012 A 
ENDBRANCH  14  16
ENDBRANCH  12  13
ENDBRANCH   1  12
TORSDOF 5
ENDMDL
MODEL 3
REMARK VINA RESULT:      -7.1      1.671      2.434
REMARK  5 active torsions:
REMARK  status: ('A' for Active; 'I' for Inactive)
REMARK       I    between atoms: C_2  and  N_1 
REMARK    1  A    between atoms: C_4  and  N_1 
REMARK    2  A    between atoms: C_14  and  C_2 
REMARK       I    between atoms: C_3  and  N_6 
REMARK    3  A    between atoms: C_5  and  C_3 
REMARK    4  A    between atoms: N_8  and  C_4 
REMARK    5  A    between atoms: N_6  and  N_8 
ROOT
ATOM      1  C   UNL d   1      53.416  33.064  54.121  0.00  0.00     0.243 C 
ATOM      2  S   UNL d   1      53.934  33.241  54.729  0.00  0.00    -0.035 SA
ENDROOT
BRANCH   1   3
ATOM      3  N   UNL d   1      53.164  32.285  54.000  0.00  0.00    -0.177 NA
ATOM      4  C   UNL d   1      53.701  31.716  53.742  0.00  0.00     0.281 C 
ATOM      5  O   UNL d   1      54.491  31.926  53.604  0.00  0.00    -0.265 OA
BRANCH   4   6
ATOM      6  C   UNL d   1      53.449  30.944  53.622  0.00  0.00     0.058 A 
ATOM      7  C   UNL d   1      53.607  30.367  54.183  0.00  0.00     0.005 A 
ATOM      8  C   UNL d   1      53.355  29.591  54.065  0.00  0.00     0.000 A 
ATOM      9  C   UNL d   1      52.941  29.398  53.378  0.00  0.00     0.000 A 
ATOM     10  C   UNL d   1      52.780  29.982  52.809  0.00  0.00     0.000 A 
ATOM     11  C   UNL d   1      53.035  30.756  52.933  0.00  0.00     0.005 A 
ENDBRANCH   4   6
ENDBRANCH   1   3
BRANCH   1  12
ATOM     12  N   UNL d   1      53.143  33.665  53.626  0.00  0.00    -0.114 NA
BRANCH  12  13
ATOM     13  N   UNL d   1      52.342  33.732  53.452  0.00  0.00    -0.103 NA
ATOM     14  C   UNL d   1      52.069  34.338  52.965  0.00  0.00     0.303 C 
ATOM     15  O   UNL d   1      52.597  34.877  52.651  0.00  0.00    -0.263 OA
BRANCH  14  16
ATOM     16  C   UNL d   1      51.267  34.395  52.798  0.00  0.00     0.089 A 
ATOM     17  S   UNL d   1      50.891  34.182  52.051  0.00  0.00    -0.082 SA
ATOM     18  C   UNL d   1      50.036  34.334  52.126  0.00  0.00     0.036 A 
ATOM     19  C   UNL d   1      49.892  34.640  52.919  0.00  0.00     0.008 A 
ATOM     20  C   UNL d   1      50.643  34.679  53.335  0.00  0.00     0.012 A 
ENDBRANCH  14  16
ENDBRANCH  12  13
ENDBRANCH   1  12
TORSDOF 5
ENDMDL
MODEL 4
REMARK VINA RESULT:      -6.8      1.633      2.239
REMARK  5 active torsions:
REMARK  status: ('A' for Active; 'I' for Inactive)
REMARK       I    between atoms: C_2  and  N_1 
REMARK    1  A    between atoms: C_4  and  N_1 
REMARK    2  A    between atoms: C_14  and  C_2 
REMARK       I    between atoms: C_3  and  N_6 
REMARK    3  A    between atoms: C_5  and  C_3 
REMARK    4  A    between atoms: N_8  and  C_4 
REMARK    5  A    between atoms: N_6  and  N_8 
ROOT
ATOM      1  C   UNL d   1      52.567  33.340  53.460  0.00  0.00     0.243 C 
ATOM      2  S   UNL d   1      52.986  33.771  54.014  0.00  0.00    -0.035 SA
ENDROOT
BRANCH   1   3
ATOM      3  N   UNL d   1      52.533  32.515  53.511  0.00  0.00    -0.177 NA
ATOM      4  C   UNL d   1      53.210  32.066  53.366  0.00  0.00     0.281 C 
ATOM      5  O   UNL d   1      53.921  32.444  53.169  0.00  0.00    -0.265 OA
BRANCH   4   6
ATOM      6  C   UNL d   1      53.174  31.248  53.418  0.00  0.00     0.058 A 
ATOM      7  C   UNL d   1      52.742  30.819  52.869  0.00  0.00     0.005 A 
ATOM      8  C   UNL d   1      52.705  29.996  52.919  0.00  0.00     0.000 A 
ATOM      9  C   UNL d   1      53.106  29.608  53.525  0.00  0.00     0.000 A 
ATOM     10  C   UNL d   1      53.545  30.041  54.082  0.00  0.00     0.000 A 
ATOM     11  C   UNL d   1      53.578  30.864  54.026  0.00  0.00     0.005 A 
ENDBRANCH   4   6
ENDBRANCH   1   3
BRANCH   1  12
ATOM     12  N   UNL d   1      52.177  33.729  52.846  0.00  0.00    -0.114 NA
BRANCH  12  13
ATOM     13  N   UNL d   1      51.408  34.003  52.947  0.00  0.00    -0.103 NA
ATOM     14  C   UNL d   1      50.969  34.267  52.301  0.00  0.00     0.303 C 
ATOM     15  O   UNL d   1      51.299  34.256  51.553  0.00  0.00    -0.263 OA
BRANCH  14  16
ATOM     16  C   UNL d   1      50.202  34.539  52.414  0.00  0.00     0.089 A 
ATOM     17  S   UNL d   1      49.568  34.514  51.829  0.00  0.00    -0.082 SA
ATOM     18  C   UNL d   1      48.855  34.862  52.190  0.00  0.00     0.036 A 
ATOM     19  C   UNL d   1      49.056  35.098  52.995  0.00  0.00     0.008 A 
ATOM     20  C   UNL d   1      49.881  34.902  53.136  0.00  0.00     0.012 A 
ENDBRANCH  14  16
ENDBRANCH  12  13
ENDBRANCH   1  12
TORSDOF 5
ENDMDL
MODEL 5
REMARK VINA RESULT:      -6.4      1.607      5.153
REMARK  5 active torsions:
REMARK  status: ('A' for Active; 'I' for Inactive)
REMARK       I    between atoms: C_2  and  N_1 
REMARK    1  A    between atoms: C_4  and  N_1 
REMARK    2  A    between atoms: C_14  and  C_2 
REMARK       I    between atoms: C_3  and  N_6 
REMARK    3  A    between atoms: C_5  and  C_3 
REMARK    4  A    between atoms: N_8  and  C_4 
REMARK    5  A    between atoms: N_6  and  N_8 
ROOT
ATOM      1  C   UNL d   1      50.728  34.102  52.979  0.00  0.00     0.243 C 
ATOM      2  S   UNL d   1      50.633  33.317  52.768  0.00  0.00    -0.035 SA
ENDROOT
BRANCH   1   3
ATOM      3  N   UNL d   1      50.068  34.585  53.099  0.00  0.00    -0.177 NA
ATOM      4  C   UNL d   1      49.557  34.746  52.472  0.00  0.00     0.281 C 
ATOM      5  O   UNL d   1      49.708  34.422  51.723  0.00  0.00    -0.265 OA
BRANCH   4   6
ATOM      6  C   UNL d   1      48.902  35.226  52.593  0.00  0.00     0.058 A 
ATOM      7  C   UNL d   1      48.805  35.619  53.305  0.00  0.00     0.005 A 
ATOM      8  C   UNL d   1      48.148  36.101  53.429  0.00  0.00     0.000 A 
ATOM      9  C   UNL d   1      47.588  36.186  52.830  0.00  0.00     0.000 A 
ATOM     10  C   UNL d   1      47.685  35.788  52.107  0.00  0.00     0.000 A 
ATOM     11  C   UNL d   1      48.344  35.307  51.990  0.00  0.00     0.005 A 
ENDBRANCH   4   6
ENDBRANCH   1   3
BRANCH   1  12
ATOM     12  N   UNL d   1      51.486  34.413  53.072  0.00  0.00    -0.114 NA
BRANCH  12  13
ATOM     13  N   UNL d   1      52.062  33.995  53.485  0.00  0.00    -0.103 NA
ATOM     14  C   UNL d   1      52.800  34.332  53.631  0.00  0.00     0.303 C 
ATOM     15  O   UNL d   1      52.963  35.087  53.363  0.00  0.00    -0.263 OA
BRANCH  14  16
ATOM     16  C   UNL d   1      53.367  33.905  54.045  0.00  0.00     0.089 A 
ATOM     17  S   UNL d   1      53.619  34.057  54.856  0.00  0.00    -0.082 SA
ATOM     18  C   UNL d   1      54.228  33.470  55.063  0.00  0.00     0.036 A 
ATOM     19  C   UNL d   1      54.347  32.960  54.378  0.00  0.00     0.008 A 
ATOM     20  C   UNL d   1      53.821  33.224  53.751  0.00  0.00     0.012 A 
ENDBRANCH  14  16
ENDBRANCH  12  13
ENDBRANCH   1  12
TORSDOF 5
ENDMDL
MODEL 6
REMARK VINA RESULT:      -6.4      2.246      3.377
REMARK  5 active torsions:
REMARK  status: ('A' for Active; 'I' for Inactive)
REMARK       I    between atoms: C_2  and  N_1 
REMARK    1  A    between atoms: C_4  and  N_1 
REMARK    2  A    between atoms: C_14  and  C_2 
REMARK       I    between atoms: C_3  and  N_6 
REMARK    3  A    between atoms: C_5  and  C_3 
REMARK    4  A    between atoms: N_8  and  C_4 
REMARK    5  A    between atoms: N_6  and  N_8 
ROOT
ATOM      1  C   UNL d   1      49.967  34.545  52.676  0.00  0.00     0.243 C 
ATOM      2  S   UNL d   1      49.715  34.307  51.935  0.00  0.00    -0.035 SA
ENDROOT
BRANCH   1   3
ATOM      3  N   UNL d   1      50.585  34.146  53.054  0.00  0.00    -0.177 NA
ATOM      4  C   UNL d   1      51.336  34.136  52.713  0.00  0.00     0.281 C 
ATOM      5  O   UNL d   1      51.467  34.524  51.992  0.00  0.00    -0.265 OA
BRANCH   4   6
ATOM      6  C   UNL d   1      51.949  33.740  53.090  0.00  0.00     0.058 A 
ATOM      7  C   UNL d   1      52.094  32.951  52.923  0.00  0.00     0.005 A 
ATOM      8  C   UNL d   1      52.709  32.552  53.300  0.00  0.00     0.000 A 
ATOM      9  C   UNL d   1      53.178  32.952  53.848  0.00  0.00     0.000 A 
ATOM     10  C   UNL d   1      53.031  33.752  54.019  0.00  0.00     0.000 A 
ATOM     11  C   UNL d   1      52.414  34.145  53.637  0.00  0.00     0.005 A 
ENDBRANCH   4   6
ENDBRANCH   1   3
BRANCH   1  12
ATOM     12  N   UNL d   1      49.603  35.184  53.047  0.00  0.00    -0.114 NA
BRANCH  12  13
ATOM     13  N   UNL d   1      48.811  35.356  52.905  0.00  0.00    -0.103 NA
ATOM     14  C   UNL d   1      48.436  35.971  53.307  0.00  0.00     0.303 C 
ATOM     15  O   UNL d   1      48.854  36.414  53.852  0.00  0.00    -0.263 OA
BRANCH  14  16
ATOM     16  C   UNL d   1      47.645  36.133  53.156  0.00  0.00     0.089 A 
ATOM     17  S   UNL d   1      47.001  36.072  53.727  0.00  0.00    -0.082 SA
ATOM     18  C   UNL d   1      46.262  36.297  53.323  0.00  0.00     0.036 A 
ATOM     19  C   UNL d   1      46.457  36.493  52.507  0.00  0.00     0.008 A 
ATOM     20  C   UNL d   1      47.304  36.394  52.399  0.00  0.00     0.012 A 
ENDBRANCH  14  16
ENDBRANCH  12  13
ENDBRANCH   1  12
TORSDOF 5
ENDMDL
MODEL 7
REMARK VINA RESULT:      -6.1      2.143      3.646
REMARK  5 active torsions:
REMARK  status: ('A' for Active; 'I' for Inactive)
REMARK       I    between atoms: C_2  and  N_1 
REMARK    1  A    between atoms: C_4  and  N_1 
REMARK    2  A    between atoms: C_14  and  C_2 
REMARK       I    between atoms: C_3  and  N_6 
REMARK    3  A    between atoms: C_5  and  C_3 
REMARK    4  A    between atoms: N_8  and  C_4 
REMARK    5  A    between atoms: N_6  and  N_8 
ROOT
ATOM      1  C   UNL d   1      51.943  32.890  52.972  0.00  0.00     0.243 C 
ATOM      2  S   UNL d   1      51.207  33.113  52.695  0.00  0.00    -0.035 SA
ENDROOT
BRANCH   1   3
ATOM      3  N   UNL d   1      52.321  33.333  53.560  0.00  0.00    -0.177 NA
ATOM      4  C   UNL d   1      52.542  34.112  53.406  0.00  0.00     0.281 C 
ATOM      5  O   UNL d   1      52.385  34.448  52.665  0.00  0.00    -0.265 OA
BRANCH   4   6
ATOM      6  C   UNL d   1      52.916  34.551  53.991  0.00  0.00     0.058 A 
ATOM      7  C   UNL d   1      53.457  34.194  54.492  0.00  0.00     0.005 A 
ATOM      8  C   UNL d   1      53.835  34.632  55.079  0.00  0.00     0.000 A 
ATOM      9  C   UNL d   1      53.665  35.435  55.159  0.00  0.00     0.000 A 
ATOM     10  C   UNL d   1      53.116  35.799  54.652  0.00  0.00     0.000 A 
ATOM     11  C   UNL d   1      52.742  35.354  54.066  0.00  0.00     0.005 A 
ENDBRANCH   4   6
ENDBRANCH   1   3
BRANCH   1  12
ATOM     12  N   UNL d   1      52.311  32.219  52.665  0.00  0.00    -0.114 NA
BRANCH  12  13
ATOM     13  N   UNL d   1      52.460  31.567  53.144  0.00  0.00    -0.103 NA
ATOM     14  C   UNL d   1      52.822  30.893  52.835  0.00  0.00     0.303 C 
ATOM     15  O   UNL d   1      53.035  30.872  52.046  0.00  0.00    -0.263 OA
BRANCH  14  16
ATOM     16  C   UNL d   1      52.965  30.249  53.323  0.00  0.00     0.089 A 
ATOM     17  S   UNL d   1      52.467  29.547  53.390  0.00  0.00    -0.082 SA
ATOM     18  C   UNL d   1      52.834  29.011  53.971  0.00  0.00     0.036 A 
ATOM     19  C   UNL d   1      53.556  29.387  54.257  0.00  0.00     0.008 A 
ATOM     20  C   UNL d   1      53.640  30.146  53.863  0.00  0.00     0.012 A 
ENDBRANCH  14  16
ENDBRANCH  12  13
ENDBRANCH   1  12
TORSDOF 5
ENDMDL
MODEL 8
REMARK VINA RESULT:      -5.0      9.899     11.047
REMARK  5 active torsions:
REMARK  status: ('A' for Active; 'I' for Inactive)
REMARK       I    between atoms: C_2  and  N_1 
REMARK    1  A    between atoms: C_4  and  N_1 
REMARK    2  A    between atoms: C_14  and  C_2 
REMARK       I    between atoms: C_3  and  N_6 
REMARK    3  A    between atoms: C_5  and  C_3 
REMARK    4  A    between atoms: N_8  and  C_4 
REMARK    5  A    between atoms: N_6  and  N_8 
ROOT
ATOM      1  C   UNL d   1      44.668  28.809  58.708  0.00  0.00     0.243 C 
ATOM      2  S   UNL d   1      44.364  28.880  59.464  0.00  0.00    -0.035 SA
ENDROOT
BRANCH   1   3
ATOM      3  N   UNL d   1      44.514  29.389  58.139  0.00  0.00    -0.177 NA
ATOM      4  C   UNL d   1      44.848  30.139  58.217  0.00  0.00     0.281 C 
ATOM      5  O   UNL d   1      45.338  30.308  58.864  0.00  0.00    -0.265 OA
BRANCH   4   6
ATOM      6  C   UNL d   1      44.693  30.714  57.651  0.00  0.00     0.058 A 
ATOM      7  C   UNL d   1      44.525  30.497  56.879  0.00  0.00     0.005 A 
ATOM      8  C   UNL d   1      44.369  31.073  56.310  0.00  0.00     0.000 A 
ATOM      9  C   UNL d   1      44.384  31.869  56.522  0.00  0.00     0.000 A 
ATOM     10  C   UNL d   1      44.555  32.090  57.305  0.00  0.00     0.000 A 
ATOM     11  C   UNL d   1      44.710  31.509  57.870  0.00  0.00     0.005 A 
ENDBRANCH   4   6
ENDBRANCH   1   3
BRANCH   1  12
ATOM     12  N   UNL d   1      45.132  28.155  58.512  0.00  0.00    -0.114 NA
BRANCH  12  13
ATOM     13  N   UNL d   1      44.795  27.407  58.453  0.00  0.00    -0.103 NA
ATOM     14  C   UNL d   1      45.226  26.777  58.141  0.00  0.00     0.303 C 
ATOM     15  O   UNL d   1      45.995  26.896  57.889  0.00  0.00    -0.263 OA
BRANCH  14  16
ATOM     16  C   UNL d   1      44.880  26.034  58.087  0.00  0.00     0.089 A 
ATOM     17  S   UNL d   1      44.662  25.530  58.753  0.00  0.00    -0.082 SA
ATOM     18  C   UNL d   1      44.314  24.798  58.434  0.00  0.00     0.036 A 
ATOM     19  C   UNL d   1      44.321  24.856  57.574  0.00  0.00     0.008 A 
ATOM     20  C   UNL d   1      44.667  25.612  57.357  0.00  0.00     0.012 A 
ENDBRANCH  14  16
ENDBRANCH  12  13
ENDBRANCH   1  12
TORSDOF 5
ENDMDL
