MODEL 1
REMARK VINA RESULT:       9.2      0.000      0.000
REMARK  5 active torsions:
REMARK  status: ('A' for Active; 'I' for Inactive)
REMARK    1  A    between atoms: C_2  and  C_1 
REMARK       I    between atoms: N_3  and  C_1 
REMARK       I    between atoms: N_4  and  C_2 
REMARK    2  A    between atoms: C_5  and  N_3 
REMARK    3  A    between atoms: C_10  and  N_4 
REMARK    4  A    between atoms: C_12  and  C_10 
REMARK    5  A    between atoms: O_13  and  C_11 
ROOT
ATOM      1  C   UNL d   1      45.807 -15.406  44.347  0.00  0.00     0.337 C 
ATOM      2  N   UNL d   1      45.422 -14.809  44.751  0.00  0.00    -0.204 NA
ATOM      3  O   UNL d   1      46.358 -15.215  43.762  0.00  0.00    -0.260 OA
ENDROOT
BRANCH   1   4
ATOM      4  C   UNL d   1      45.646 -16.196  44.520  0.00  0.00     0.337 C 
ATOM      5  N   UNL d   1      46.155 -16.786  44.261  0.00  0.00    -0.202 NA
ATOM      6  O   UNL d   1      44.974 -16.394  44.955  0.00  0.00    -0.260 OA
BRANCH   5   7
ATOM      7  C   UNL d   1      45.996 -17.572  44.434  0.00  0.00     0.102 C 
BRANCH   7   8
ATOM      8  C   UNL d   1      46.214 -18.164  43.901  0.00  0.00     0.022 A 
ATOM      9  C   UNL d   1      46.319 -18.929  44.168  0.00  0.00     0.022 A 
ATOM     10  C   UNL d   1      46.537 -19.521  43.636  0.00  0.00     0.099 A 
ATOM     11  N   UNL d   1      46.647 -19.339  42.840  0.00  0.00    -0.242 NA
ATOM     12  C   UNL d   1      46.540 -18.564  42.574  0.00  0.00     0.099 A 
ATOM     13  C   UNL d   1      46.324 -17.982  43.105  0.00  0.00     0.022 A 
ENDBRANCH   7   8
ENDBRANCH   5   7
ENDBRANCH   1   4
BRANCH   2  14
ATOM     14  C   UNL d   1      45.582 -14.018  44.578  0.00  0.00     0.087 A 
ATOM     15  C   UNL d   1      45.113 -13.612  44.033  0.00  0.00     0.043 A 
ATOM     16  C   UNL d   1      45.273 -12.822  43.859  0.00  0.00     0.096 A 
ATOM     17  C   UNL d   1      45.902 -12.437  44.230  0.00  0.00     0.024 A 
ATOM     18  C   UNL d   1      46.371 -12.844  44.775  0.00  0.00     0.004 A 
ATOM     19  C   UNL d   1      46.211 -13.633  44.948  0.00  0.00     0.019 A 
BRANCH  16  20
ATOM     20  O   UNL d   1      44.807 -12.403  43.313  0.00  0.00    -0.328 OA
ATOM     21  C   UNL d   1      45.126 -12.204  42.569  0.00  0.00     0.181 C 
ENDBRANCH  16  20
ENDBRANCH   2  14
TORSDOF 5
ENDMDL
MODEL 2
REMARK VINA RESULT:      10.0      1.206      5.014
REMARK  5 active torsions:
REMARK  status: ('A' for Active; 'I' for Inactive)
REMARK    1  A    between atoms: C_2  and  C_1 
REMARK       I    between atoms: N_3  and  C_1 
REMARK       I    between atoms: N_4  and  C_2 
REMARK    2  A    between atoms: C_5  and  N_3 
REMARK    3  A    between atoms: C_10  and  N_4 
REMARK    4  A    between atoms: C_12  and  C_10 
REMARK    5  A    between atoms: O_13  and  C_11 
ROOT
ATOM      1  C   UNL d   1      45.718 -16.537  44.159  0.00  0.00     0.337 C 
ATOM      2  N   UNL d   1      45.508 -17.296  44.381  0.00  0.00    -0.204 NA
ATOM      3  O   UNL d   1      46.311 -16.424  43.596  0.00  0.00    -0.260 OA
ENDROOT
BRANCH   1   4
ATOM      4  C   UNL d   1      45.339 -15.886  44.494  0.00  0.00     0.337 C 
ATOM      5  N   UNL d   1      45.635 -15.130  44.375  0.00  0.00    -0.202 NA
ATOM      6  O   UNL d   1      44.660 -15.995  44.951  0.00  0.00    -0.260 OA
BRANCH   5   7
ATOM      7  C   UNL d   1      45.258 -14.483  44.709  0.00  0.00     0.102 C 
BRANCH   7   8
ATOM      8  C   UNL d   1      45.380 -13.728  44.397  0.00  0.00     0.022 A 
ATOM      9  C   UNL d   1      44.994 -13.507  43.712  0.00  0.00     0.022 A 
ATOM     10  C   UNL d   1      45.116 -12.752  43.400  0.00  0.00     0.099 A 
ATOM     11  N   UNL d   1      45.625 -12.226  43.780  0.00  0.00    -0.242 NA
ATOM     12  C   UNL d   1      46.013 -12.455  44.472  0.00  0.00     0.099 A 
ATOM     13  C   UNL d   1      45.889 -13.203  44.777  0.00  0.00     0.022 A 
ENDBRANCH   7   8
ENDBRANCH   5   7
ENDBRANCH   1   4
BRANCH   2  14
ATOM     14  C   UNL d   1      45.888 -17.947  44.045  0.00  0.00     0.087 A 
ATOM     15  C   UNL d   1      45.900 -18.040  43.225  0.00  0.00     0.043 A 
ATOM     16  C   UNL d   1      46.278 -18.691  42.890  0.00  0.00     0.096 A 
ATOM     17  C   UNL d   1      46.646 -19.250  43.374  0.00  0.00     0.024 A 
ATOM     18  C   UNL d   1      46.634 -19.156  44.194  0.00  0.00     0.004 A 
ATOM     19  C   UNL d   1      46.255 -18.506  44.529  0.00  0.00     0.019 A 
BRANCH  16  20
ATOM     20  O   UNL d   1      46.297 -18.795  42.065  0.00  0.00    -0.328 OA
ATOM     21  C   UNL d   1      46.571 -19.514  41.748  0.00  0.00     0.181 C 
ENDBRANCH  16  20
ENDBRANCH   2  14
TORSDOF 5
ENDMDL
