MODEL 1
REMARK VINA RESULT:      95.6      0.000      0.000
REMARK  10 active torsions:
REMARK  status: ('A' for Active; 'I' for Inactive)
REMARK    1  A    between atoms: C_14  and  N_1 
REMARK    2  A    between atoms: C_7  and  N_3 
REMARK    3  A    between atoms: C_9  and  C_7 
REMARK       I    between atoms: N_18  and  C_9 
REMARK    4  A    between atoms: C_11  and  C_24 
REMARK       I    between atoms: N_12  and  C_11 
REMARK    5  A    between atoms: C_21  and  N_12 
REMARK    6  A    between atoms: C_13  and  C_25 
REMARK    7  A    between atoms: C_23  and  C_14 
REMARK    8  A    between atoms: C_22  and  N_18 
REMARK    9  A    between atoms: C_25  and  C_22 
REMARK   10  A    between atoms: C_24  and  C_23 
ROOT
ATOM      1  N   UNL d   1      60.662  47.139  50.993  0.00  0.00    -0.226 N 
ATOM      2  C   UNL d   1      60.793  47.714  50.417  0.00  0.00     0.342 A 
ATOM      3  N   UNL d   1      60.917  48.503  50.643  0.00  0.00    -0.254 N 
ATOM      4  C   UNL d   1      60.654  47.352  51.795  0.00  0.00     0.270 A 
ATOM      5  C   UNL d   1      60.777  48.136  52.016  0.00  0.00     0.073 A 
ATOM      6  C   UNL d   1      60.909  48.712  51.439  0.00  0.00     0.073 A 
ATOM      7  O   UNL d   1      60.802  47.506  49.614  0.00  0.00    -0.245 OA
ATOM      8  O   UNL d   1      60.522  46.776  52.372  0.00  0.00    -0.266 OA
ATOM      9  C   UNL d   1      60.768  48.343  52.812  0.00  0.00     0.006 A 
ATOM     10  C   UNL d   1      61.032  49.495  51.660  0.00  0.00     0.018 A 
ATOM     11  C   UNL d   1      60.892  49.128  53.032  0.00  0.00     0.000 A 
ATOM     12  C   UNL d   1      61.023  49.703  52.456  0.00  0.00     0.002 A 
ENDROOT
BRANCH   3  13
ATOM     13  C   UNL d   1      61.049  49.079  50.066  0.00  0.00     0.147 C 
BRANCH  13  14
ATOM     14  C   UNL d   1      60.407  49.388  49.649  0.00  0.00     0.297 C 
ATOM     15  O   UNL d   1      60.509  49.707  48.897  0.00  0.00    -0.264 OA
ATOM     16  N   UNL d   1      59.645  49.379  49.987  0.00  0.00    -0.205 NA
BRANCH  16  17
ATOM     17  C   UNL d   1      58.996  49.687  49.576  0.00  0.00     0.102 C 
BRANCH  17  18
ATOM     18  C   UNL d   1      58.344  49.206  49.417  0.00  0.00     0.021 C 
BRANCH  18  19
ATOM     19  C   UNL d   1      57.636  49.317  49.825  0.00  0.00     0.002 A 
ATOM     20  C   UNL d   1      56.965  49.585  49.428  0.00  0.00     0.000 A 
ATOM     21  C   UNL d   1      56.261  49.695  49.834  0.00  0.00     0.000 A 
ATOM     22  C   UNL d   1      56.225  49.537  50.645  0.00  0.00     0.000 A 
ATOM     23  C   UNL d   1      56.897  49.269  51.042  0.00  0.00     0.000 A 
ATOM     24  C   UNL d   1      57.605  49.158  50.634  0.00  0.00     0.000 A 
ENDBRANCH  18  19
ENDBRANCH  17  18
ENDBRANCH  16  17
ENDBRANCH  13  14
ENDBRANCH   3  13
BRANCH   1  25
ATOM     25  C   UNL d   1      60.538  46.352  50.770  0.00  0.00     0.088 C 
BRANCH  25  26
ATOM     26  C   UNL d   1      61.174  45.832  50.696  0.00  0.00     0.024 C 
BRANCH  26  27
ATOM     27  C   UNL d   1      61.369  45.507  49.966  0.00  0.00     0.064 C 
BRANCH  27  28
ATOM     28  C   UNL d   1      61.805  44.798  49.935  0.00  0.00     0.279 C 
ATOM     29  N   UNL d   1      61.908  44.349  50.620  0.00  0.00    -0.208 NA
ATOM     30  O   UNL d   1      62.136  44.540  49.226  0.00  0.00    -0.265 OA
BRANCH  29  31
ATOM     31  C   UNL d   1      62.337  43.645  50.605  0.00  0.00     0.085 A 
ATOM     32  C   UNL d   1      62.953  43.369  50.126  0.00  0.00     0.019 A 
ATOM     33  C   UNL d   1      63.158  42.614  50.381  0.00  0.00     0.002 A 
ATOM     34  C   UNL d   1      62.672  42.418  51.018  0.00  0.00     0.002 A 
ATOM     35  C   UNL d   1      62.166  43.046  51.161  0.00  0.00     0.019 A 
ENDBRANCH  29  31
ENDBRANCH  27  28
ENDBRANCH  26  27
ENDBRANCH  25  26
ENDBRANCH   1  25
TORSDOF 10
ENDMDL
