MODEL 1
REMARK VINA RESULT:      -2.7      0.000      0.000
REMARK  4 active torsions:
REMARK  status: ('A' for Active; 'I' for Inactive)
REMARK    1  A    between atoms: C_5  and  N_1 
REMARK    2  A    between atoms: C_6  and  C_5 
REMARK       I    between atoms: N_9  and  C_6 
REMARK    3  A    between atoms: C_13  and  N_9 
REMARK    4  A    between atoms: O_19  and  C_14 
ROOT
ATOM      1  C   UNL d   1      32.560  18.407 -23.374  0.00  0.00     0.297 C 
ATOM      2  N   UNL d   1      33.240  18.856 -23.240  0.00  0.00    -0.207 NA
ATOM      3  O   UNL d   1      31.880  18.546 -22.928  0.00  0.00    -0.264 OA
ENDROOT
BRANCH   1   4
ATOM      4  C   UNL d   1      32.560  17.822 -23.950  0.00  0.00     0.148 C 
BRANCH   4   5
ATOM      5  N   UNL d   1      31.868  17.405 -24.115  0.00  0.00    -0.235 N 
ATOM      6  C   UNL d   1      31.702  16.700 -23.702  0.00  0.00     0.273 A 
ATOM      7  C   UNL d   1      31.010  16.282 -23.868  0.00  0.00     0.086 A 
ATOM      8  O   UNL d   1      32.234  16.424 -23.128  0.00  0.00    -0.266 OA
ATOM      9  C   UNL d   1      30.839  15.582 -23.462  0.00  0.00     0.012 C 
ATOM     10  S   UNL d   1      30.483  16.569 -24.446  0.00  0.00    -0.077 SA
ATOM     11  C   UNL d   1      30.653  17.262 -24.847  0.00  0.00     0.097 A 
ATOM     12  C   UNL d   1      31.345  17.679 -24.681  0.00  0.00     0.274 A 
ATOM     13  O   UNL d   1      31.518  18.389 -25.092  0.00  0.00    -0.266 OA
ENDBRANCH   4   5
ENDBRANCH   1   4
BRANCH   2  14
ATOM     14  C   UNL d   1      33.238  19.443 -22.660  0.00  0.00     0.085 A 
ATOM     15  C   UNL d   1      33.234  20.230 -22.878  0.00  0.00     0.021 A 
ATOM     16  C   UNL d   1      33.232  20.813 -22.316  0.00  0.00     0.026 A 
ATOM     17  C   UNL d   1      33.235  20.608 -21.508  0.00  0.00     0.094 A 
ATOM     18  C   UNL d   1      33.239  19.821 -21.291  0.00  0.00     0.026 A 
ATOM     19  C   UNL d   1      33.240  19.232 -21.879  0.00  0.00     0.021 A 
BRANCH  17  20
ATOM     20  O   UNL d   1      33.233  21.211 -20.927  0.00  0.00    -0.328 OA
ATOM     21  C   UNL d   1      32.522  21.511 -20.634  0.00  0.00     0.181 C 
ENDBRANCH  17  20
ENDBRANCH   2  14
TORSDOF 4
ENDMDL
MODEL 2
REMARK VINA RESULT:      -2.6      0.283      1.222
REMARK  4 active torsions:
REMARK  status: ('A' for Active; 'I' for Inactive)
REMARK    1  A    between atoms: C_5  and  N_1 
REMARK    2  A    between atoms: C_6  and  C_5 
REMARK       I    between atoms: N_9  and  C_6 
REMARK    3  A    between atoms: C_13  and  N_9 
REMARK    4  A    between atoms: O_19  and  C_14 
ROOT
ATOM      1  C   UNL d   1      32.606  18.498 -23.368  0.00  0.00     0.297 C 
ATOM      2  N   UNL d   1      33.241  19.019 -23.289  0.00  0.00    -0.207 NA
ATOM      3  O   UNL d   1      31.953  18.564 -22.868  0.00  0.00    -0.264 OA
ENDROOT
BRANCH   1   4
ATOM      4  C   UNL d   1      32.623  17.913 -23.944  0.00  0.00     0.148 C 
BRANCH   4   5
ATOM      5  N   UNL d   1      31.985  17.397 -24.029  0.00  0.00    -0.235 N 
ATOM      6  C   UNL d   1      31.346  17.609 -24.520  0.00  0.00     0.273 A 
ATOM      7  C   UNL d   1      30.707  17.093 -24.605  0.00  0.00     0.086 A 
ATOM      8  O   UNL d   1      31.356  18.336 -24.920  0.00  0.00    -0.266 OA
ATOM      9  C   UNL d   1      30.069  17.296 -25.092  0.00  0.00     0.012 C 
ATOM     10  S   UNL d   1      30.707  16.365 -24.199  0.00  0.00    -0.077 SA
ATOM     11  C   UNL d   1      31.338  16.165 -23.719  0.00  0.00     0.097 A 
ATOM     12  C   UNL d   1      31.977  16.681 -23.634  0.00  0.00     0.274 A 
ATOM     13  O   UNL d   1      32.623  16.475 -23.141  0.00  0.00    -0.266 OA
ENDBRANCH   4   5
ENDBRANCH   1   4
BRANCH   2  14
ATOM     14  C   UNL d   1      33.222  19.606 -22.709  0.00  0.00     0.085 A 
ATOM     15  C   UNL d   1      33.185  20.392 -22.926  0.00  0.00     0.021 A 
ATOM     16  C   UNL d   1      33.166  20.975 -22.364  0.00  0.00     0.026 A 
ATOM     17  C   UNL d   1      33.184  20.770 -21.557  0.00  0.00     0.094 A 
ATOM     18  C   UNL d   1      33.220  19.985 -21.340  0.00  0.00     0.026 A 
ATOM     19  C   UNL d   1      33.239  19.395 -21.928  0.00  0.00     0.021 A 
BRANCH  17  20
ATOM     20  O   UNL d   1      33.164  21.373 -20.976  0.00  0.00    -0.328 OA
ATOM     21  C   UNL d   1      32.446  21.633 -20.664  0.00  0.00     0.181 C 
ENDBRANCH  17  20
ENDBRANCH   2  14
TORSDOF 4
ENDMDL
MODEL 3
REMARK VINA RESULT:      -2.4      1.877      4.629
REMARK  4 active torsions:
REMARK  status: ('A' for Active; 'I' for Inactive)
REMARK    1  A    between atoms: C_5  and  N_1 
REMARK    2  A    between atoms: C_6  and  C_5 
REMARK       I    between atoms: N_9  and  C_6 
REMARK    3  A    between atoms: C_13  and  N_9 
REMARK    4  A    between atoms: O_19  and  C_14 
ROOT
ATOM      1  C   UNL d   1      31.609  17.007 -23.890  0.00  0.00     0.297 C 
ATOM      2  N   UNL d   1      31.300  16.312 -24.209  0.00  0.00    -0.207 NA
ATOM      3  O   UNL d   1      31.132  17.494 -23.424  0.00  0.00    -0.264 OA
ENDROOT
BRANCH   1   4
ATOM      4  C   UNL d   1      32.390  17.216 -24.034  0.00  0.00     0.148 C 
BRANCH   4   5
ATOM      5  N   UNL d   1      32.673  17.952 -23.792  0.00  0.00    -0.235 N 
ATOM      6  C   UNL d   1      32.670  18.592 -24.326  0.00  0.00     0.273 A 
ATOM      7  C   UNL d   1      32.953  19.328 -24.084  0.00  0.00     0.086 A 
ATOM      8  O   UNL d   1      32.381  18.484 -25.097  0.00  0.00    -0.266 OA
ATOM      9  C   UNL d   1      32.953  19.968 -24.608  0.00  0.00     0.012 C 
ATOM     10  S   UNL d   1      33.241  19.424 -23.308  0.00  0.00    -0.077 SA
ATOM     11  C   UNL d   1      33.241  18.791 -22.790  0.00  0.00     0.097 A 
ATOM     12  C   UNL d   1      32.957  18.055 -23.032  0.00  0.00     0.274 A 
ATOM     13  O   UNL d   1      32.958  17.407 -22.501  0.00  0.00    -0.266 OA
ENDBRANCH   4   5
ENDBRANCH   1   4
BRANCH   2  14
ATOM     14  C   UNL d   1      30.515  16.104 -24.063  0.00  0.00     0.085 A 
ATOM     15  C   UNL d   1      30.322  15.695 -23.383  0.00  0.00     0.021 A 
ATOM     16  C   UNL d   1      29.554  15.487 -23.231  0.00  0.00     0.026 A 
ATOM     17  C   UNL d   1      28.955  15.693 -23.773  0.00  0.00     0.094 A 
ATOM     18  C   UNL d   1      29.149  16.103 -24.452  0.00  0.00     0.026 A 
ATOM     19  C   UNL d   1      29.942  16.310 -24.597  0.00  0.00     0.021 A 
BRANCH  17  20
ATOM     20  O   UNL d   1      28.162  15.478 -23.616  0.00  0.00    -0.328 OA
ATOM     21  C   UNL d   1      27.588  16.056 -23.482  0.00  0.00     0.181 C 
ENDBRANCH  17  20
ENDBRANCH   2  14
TORSDOF 4
ENDMDL
MODEL 4
REMARK VINA RESULT:      -2.3      1.169      1.668
REMARK  4 active torsions:
REMARK  status: ('A' for Active; 'I' for Inactive)
REMARK    1  A    between atoms: C_5  and  N_1 
REMARK    2  A    between atoms: C_6  and  C_5 
REMARK       I    between atoms: N_9  and  C_6 
REMARK    3  A    between atoms: C_13  and  N_9 
REMARK    4  A    between atoms: O_19  and  C_14 
ROOT
ATOM      1  C   UNL d   1      32.942  19.570 -22.636  0.00  0.00     0.297 C 
ATOM      2  N   UNL d   1      33.240  19.858 -21.923  0.00  0.00    -0.207 NA
ATOM      3  O   UNL d   1      32.352  19.987 -23.035  0.00  0.00    -0.264 OA
ENDROOT
BRANCH   1   4
ATOM      4  C   UNL d   1      33.231  18.869 -22.950  0.00  0.00     0.148 C 
BRANCH   4   5
ATOM      5  N   UNL d   1      32.827  18.492 -23.563  0.00  0.00    -0.235 N 
ATOM      6  C   UNL d   1      32.417  17.782 -23.413  0.00  0.00     0.273 A 
ATOM      7  C   UNL d   1      32.013  17.405 -24.026  0.00  0.00     0.086 A 
ATOM      8  O   UNL d   1      32.419  17.459 -22.648  0.00  0.00    -0.266 OA
ATOM      9  C   UNL d   1      31.605  16.699 -23.884  0.00  0.00     0.012 C 
ATOM     10  S   UNL d   1      32.018  17.738 -24.790  0.00  0.00    -0.077 SA
ATOM     11  C   UNL d   1      32.423  18.435 -24.929  0.00  0.00     0.097 A 
ATOM     12  C   UNL d   1      32.827  18.812 -24.316  0.00  0.00     0.274 A 
ATOM     13  O   UNL d   1      33.240  19.526 -24.460  0.00  0.00    -0.266 OA
ENDBRANCH   4   5
ENDBRANCH   1   4
BRANCH   2  14
ATOM     14  C   UNL d   1      32.948  20.563 -21.609  0.00  0.00     0.085 A 
ATOM     15  C   UNL d   1      33.192  21.278 -21.917  0.00  0.00     0.021 A 
ATOM     16  C   UNL d   1      32.911  21.975 -21.615  0.00  0.00     0.026 A 
ATOM     17  C   UNL d   1      32.366  21.962 -20.985  0.00  0.00     0.094 A 
ATOM     18  C   UNL d   1      32.122  21.247 -20.677  0.00  0.00     0.026 A 
ATOM     19  C   UNL d   1      32.419  20.537 -20.997  0.00  0.00     0.021 A 
BRANCH  17  20
ATOM     20  O   UNL d   1      32.076  22.683 -20.673  0.00  0.00    -0.328 OA
ATOM     21  C   UNL d   1      32.406  23.010 -19.992  0.00  0.00     0.181 C 
ENDBRANCH  17  20
ENDBRANCH   2  14
TORSDOF 4
ENDMDL
MODEL 5
REMARK VINA RESULT:      -2.2      2.016      4.783
REMARK  4 active torsions:
REMARK  status: ('A' for Active; 'I' for Inactive)
REMARK    1  A    between atoms: C_5  and  N_1 
REMARK    2  A    between atoms: C_6  and  C_5 
REMARK       I    between atoms: N_9  and  C_6 
REMARK    3  A    between atoms: C_13  and  N_9 
REMARK    4  A    between atoms: O_19  and  C_14 
ROOT
ATOM      1  C   UNL d   1      32.832  20.092 -22.335  0.00  0.00     0.297 C 
ATOM      2  N   UNL d   1      33.241  19.504 -22.744  0.00  0.00    -0.207 NA
ATOM      3  O   UNL d   1      32.011  20.146 -22.404  0.00  0.00    -0.264 OA
ENDROOT
BRANCH   1   4
ATOM      4  C   UNL d   1      33.239  20.623 -21.860  0.00  0.00     0.148 C 
BRANCH   4   5
ATOM      5  N   UNL d   1      32.865  21.306 -21.587  0.00  0.00    -0.235 N 
ATOM      6  C   UNL d   1      32.862  21.993 -22.059  0.00  0.00     0.273 A 
ATOM      7  C   UNL d   1      32.488  22.675 -21.786  0.00  0.00     0.086 A 
ATOM      8  O   UNL d   1      33.237  21.984 -22.800  0.00  0.00    -0.266 OA
ATOM      9  C   UNL d   1      32.482  23.361 -22.249  0.00  0.00     0.012 C 
ATOM     10  S   UNL d   1      32.116  22.672 -21.040  0.00  0.00    -0.077 SA
ATOM     11  C   UNL d   1      32.122  21.993 -20.583  0.00  0.00     0.097 A 
ATOM     12  C   UNL d   1      32.497  21.311 -20.857  0.00  0.00     0.274 A 
ATOM     13  O   UNL d   1      32.503  20.616 -20.387  0.00  0.00    -0.266 OA
ENDBRANCH   4   5
ENDBRANCH   1   4
BRANCH   2  14
ATOM     14  C   UNL d   1      32.829  18.971 -23.221  0.00  0.00     0.085 A 
ATOM     15  C   UNL d   1      32.814  19.076 -24.030  0.00  0.00     0.021 A 
ATOM     16  C   UNL d   1      32.413  18.558 -24.507  0.00  0.00     0.026 A 
ATOM     17  C   UNL d   1      32.011  17.912 -24.167  0.00  0.00     0.094 A 
ATOM     18  C   UNL d   1      32.027  17.806 -23.357  0.00  0.00     0.026 A 
ATOM     19  C   UNL d   1      32.443  18.347 -22.880  0.00  0.00     0.021 A 
BRANCH  17  20
ATOM     20  O   UNL d   1      31.597  17.376 -24.659  0.00  0.00    -0.328 OA
ATOM     21  C   UNL d   1      30.778  17.434 -24.748  0.00  0.00     0.181 C 
ENDBRANCH  17  20
ENDBRANCH   2  14
TORSDOF 4
ENDMDL
MODEL 6
REMARK VINA RESULT:      -2.0      1.599      2.538
REMARK  4 active torsions:
REMARK  status: ('A' for Active; 'I' for Inactive)
REMARK    1  A    between atoms: C_5  and  N_1 
REMARK    2  A    between atoms: C_6  and  C_5 
REMARK       I    between atoms: N_9  and  C_6 
REMARK    3  A    between atoms: C_13  and  N_9 
REMARK    4  A    between atoms: O_19  and  C_14 
ROOT
ATOM      1  C   UNL d   1      31.126  17.088 -23.974  0.00  0.00     0.297 C 
ATOM      2  N   UNL d   1      31.894  17.273 -24.212  0.00  0.00    -0.207 NA
ATOM      3  O   UNL d   1      30.697  17.622 -23.515  0.00  0.00    -0.264 OA
ENDROOT
BRANCH   1   4
ATOM      4  C   UNL d   1      30.789  16.372 -24.193  0.00  0.00     0.148 C 
BRANCH   4   5
ATOM      5  N   UNL d   1      30.074  16.132 -23.859  0.00  0.00    -0.235 N 
ATOM      6  C   UNL d   1      29.355  16.340 -24.228  0.00  0.00     0.273 A 
ATOM      7  C   UNL d   1      28.640  16.100 -23.894  0.00  0.00     0.086 A 
ATOM      8  O   UNL d   1      29.365  16.786 -24.928  0.00  0.00    -0.266 OA
ATOM      9  C   UNL d   1      27.923  16.302 -24.254  0.00  0.00     0.012 C 
ATOM     10  S   UNL d   1      28.643  15.652 -23.191  0.00  0.00    -0.077 SA
ATOM     11  C   UNL d   1      29.352  15.453 -22.835  0.00  0.00     0.097 A 
ATOM     12  C   UNL d   1      30.067  15.693 -23.169  0.00  0.00     0.274 A 
ATOM     13  O   UNL d   1      30.793  15.488 -22.805  0.00  0.00    -0.266 OA
ENDBRANCH   4   5
ENDBRANCH   1   4
BRANCH   2  14
ATOM     14  C   UNL d   1      32.231  17.993 -23.990  0.00  0.00     0.085 A 
ATOM     15  C   UNL d   1      32.199  18.632 -24.497  0.00  0.00     0.021 A 
ATOM     16  C   UNL d   1      32.527  19.342 -24.288  0.00  0.00     0.026 A 
ATOM     17  C   UNL d   1      32.902  19.422 -23.548  0.00  0.00     0.094 A 
ATOM     18  C   UNL d   1      32.934  18.783 -23.041  0.00  0.00     0.026 A 
ATOM     19  C   UNL d   1      32.593  18.058 -23.268  0.00  0.00     0.021 A 
BRANCH  17  20
ATOM     20  O   UNL d   1      33.241  20.156 -23.332  0.00  0.00    -0.328 OA
ATOM     21  C   UNL d   1      33.105  20.479 -22.586  0.00  0.00     0.181 C 
ENDBRANCH  17  20
ENDBRANCH   2  14
TORSDOF 4
ENDMDL
MODEL 7
REMARK VINA RESULT:      -0.4      2.542      4.860
REMARK  4 active torsions:
REMARK  status: ('A' for Active; 'I' for Inactive)
REMARK    1  A    between atoms: C_5  and  N_1 
REMARK    2  A    between atoms: C_6  and  C_5 
REMARK       I    between atoms: N_9  and  C_6 
REMARK    3  A    between atoms: C_13  and  N_9 
REMARK    4  A    between atoms: O_19  and  C_14 
ROOT
ATOM      1  C   UNL d   1      30.134  16.961 -24.584  0.00  0.00     0.297 C 
ATOM      2  N   UNL d   1      29.384  16.839 -24.906  0.00  0.00    -0.207 NA
ATOM      3  O   UNL d   1      30.274  16.790 -23.789  0.00  0.00    -0.264 OA
ENDROOT
BRANCH   1   4
ATOM      4  C   UNL d   1      30.741  17.254 -25.053  0.00  0.00     0.148 C 
BRANCH   4   5
ATOM      5  N   UNL d   1      31.513  17.277 -24.764  0.00  0.00    -0.235 N 
ATOM      6  C   UNL d   1      31.982  16.588 -24.785  0.00  0.00     0.273 A 
ATOM      7  C   UNL d   1      32.755  16.611 -24.496  0.00  0.00     0.086 A 
ATOM      8  O   UNL d   1      31.669  15.885 -25.096  0.00  0.00    -0.266 OA
ATOM      9  C   UNL d   1      33.227  15.932 -24.513  0.00  0.00     0.012 C 
ATOM     10  S   UNL d   1      33.059  17.323 -24.186  0.00  0.00    -0.077 SA
ATOM     11  C   UNL d   1      32.591  17.994 -24.170  0.00  0.00     0.097 A 
ATOM     12  C   UNL d   1      31.819  17.971 -24.459  0.00  0.00     0.274 A 
ATOM     13  O   UNL d   1      31.341  18.659 -24.441  0.00  0.00    -0.266 OA
ENDBRANCH   4   5
ENDBRANCH   1   4
BRANCH   2  14
ATOM     14  C   UNL d   1      28.775  16.545 -24.432  0.00  0.00     0.085 A 
ATOM     15  C   UNL d   1      28.352  17.051 -23.952  0.00  0.00     0.021 A 
ATOM     16  C   UNL d   1      27.753  16.771 -23.484  0.00  0.00     0.026 A 
ATOM     17  C   UNL d   1      27.567  15.959 -23.493  0.00  0.00     0.094 A 
ATOM     18  C   UNL d   1      27.991  15.453 -23.973  0.00  0.00     0.026 A 
ATOM     19  C   UNL d   1      28.604  15.754 -24.450  0.00  0.00     0.021 A 
BRANCH  17  20
ATOM     20  O   UNL d   1      26.948  15.670 -23.009  0.00  0.00    -0.328 OA
ATOM     21  C   UNL d   1      26.215  15.477 -23.334  0.00  0.00     0.181 C 
ENDBRANCH  17  20
ENDBRANCH   2  14
TORSDOF 4
ENDMDL
MODEL 8
REMARK VINA RESULT:       0.1      2.700      5.551
REMARK  4 active torsions:
REMARK  status: ('A' for Active; 'I' for Inactive)
REMARK    1  A    between atoms: C_5  and  N_1 
REMARK    2  A    between atoms: C_6  and  C_5 
REMARK       I    between atoms: N_9  and  C_6 
REMARK    3  A    between atoms: C_13  and  N_9 
REMARK    4  A    between atoms: O_19  and  C_14 
ROOT
ATOM      1  C   UNL d   1      32.860  21.641 -21.099  0.00  0.00     0.297 C 
ATOM      2  N   UNL d   1      33.241  21.321 -21.757  0.00  0.00    -0.207 NA
ATOM      3  O   UNL d   1      32.251  21.222 -20.731  0.00  0.00    -0.264 OA
ENDROOT
BRANCH   1   4
ATOM      4  C   UNL d   1      33.084  22.376 -20.810  0.00  0.00     0.148 C 
BRANCH   4   5
ATOM      5  N   UNL d   1      32.561  22.818 -20.351  0.00  0.00    -0.235 N 
ATOM      6  C   UNL d   1      32.637  22.817 -19.521  0.00  0.00     0.273 A 
ATOM      7  C   UNL d   1      32.113  23.259 -19.061  0.00  0.00     0.086 A 
ATOM      8  O   UNL d   1      33.239  22.371 -19.163  0.00  0.00    -0.266 OA
ATOM      9  C   UNL d   1      32.182  23.263 -18.237  0.00  0.00     0.012 C 
ATOM     10  S   UNL d   1      31.512  23.702 -19.432  0.00  0.00    -0.077 SA
ATOM     11  C   UNL d   1      31.444  23.698 -20.247  0.00  0.00     0.097 A 
ATOM     12  C   UNL d   1      31.968  23.256 -20.706  0.00  0.00     0.274 A 
ATOM     13  O   UNL d   1      31.898  23.252 -21.541  0.00  0.00    -0.266 OA
ENDBRANCH   4   5
ENDBRANCH   1   4
BRANCH   2  14
ATOM     14  C   UNL d   1      33.013  20.582 -22.046  0.00  0.00     0.085 A 
ATOM     15  C   UNL d   1      32.619  20.527 -22.758  0.00  0.00     0.021 A 
ATOM     16  C   UNL d   1      32.392  19.806 -23.049  0.00  0.00     0.026 A 
ATOM     17  C   UNL d   1      32.563  19.114 -22.618  0.00  0.00     0.094 A 
ATOM     18  C   UNL d   1      32.957  19.169 -21.905  0.00  0.00     0.026 A 
ATOM     19  C   UNL d   1      33.185  19.917 -21.617  0.00  0.00     0.021 A 
BRANCH  17  20
ATOM     20  O   UNL d   1      32.328  18.369 -22.919  0.00  0.00    -0.328 OA
ATOM     21  C   UNL d   1      32.859  17.900 -23.341  0.00  0.00     0.181 C 
ENDBRANCH  17  20
ENDBRANCH   2  14
TORSDOF 4
ENDMDL
