MODEL 1
REMARK VINA RESULT:      48.4      0.000      0.000
REMARK  3 active torsions:
REMARK  status: ('A' for Active; 'I' for Inactive)
REMARK    1  A    between atoms: C_4  and  C_1 
REMARK    2  A    between atoms: C_6  and  C_4 
REMARK    3  A    between atoms: N_5  and  C_7 
ROOT
ATOM      1  C   UNL d   1     -51.100  25.873  33.499  0.00  0.00     0.231 C 
ATOM      2  O   UNL d   1     -51.868  26.109  33.363  0.00  0.00    -0.283 OA
ENDROOT
BRANCH   1   3
ATOM      3  C   UNL d   1     -50.513  26.428  33.701  0.00  0.00     0.188 A 
ATOM      4  N   UNL d   1     -49.778  26.256  34.020  0.00  0.00    -0.224 NA
ATOM      5  C   UNL d   1     -49.354  26.966  34.143  0.00  0.00     0.099 A 
ATOM      6  C   UNL d   1     -48.621  27.136  34.435  0.00  0.00     0.021 A 
ATOM      7  C   UNL d   1     -49.855  27.589  33.887  0.00  0.00     0.083 A 
ATOM      8  C   UNL d   1     -48.370  27.899  34.482  0.00  0.00     0.002 A 
ATOM      9  C   UNL d   1     -48.831  28.537  34.242  0.00  0.00     0.002 A 
ATOM     10  C   UNL d   1     -49.583  28.356  33.942  0.00  0.00     0.019 A 
ATOM     11  N   UNL d   1     -50.562  27.230  33.620  0.00  0.00    -0.285 N 
ATOM     12  C   UNL d   1     -51.253  27.569  33.307  0.00  0.00     0.101 C 
ENDBRANCH   1   3
BRANCH   1  13
ATOM     13  C   UNL d   1     -50.893  25.052  33.435  0.00  0.00     0.064 A 
ATOM     14  C   UNL d   1     -51.475  24.482  33.373  0.00  0.00     0.130 A 
ATOM     15  C   UNL d   1     -51.271  23.688  33.311  0.00  0.00     0.024 A 
ATOM     16  C   UNL d   1     -50.478  23.458  33.311  0.00  0.00     0.002 A 
ATOM     17  C   UNL d   1     -49.893  24.055  33.375  0.00  0.00     0.000 A 
ATOM     18  C   UNL d   1     -50.093  24.852  33.438  0.00  0.00     0.005 A 
BRANCH  14  19
ATOM     19  N   UNL d   1     -52.274  24.704  33.373  0.00  0.00    -0.114 N 
ATOM     20  O   UNL d   1     -52.803  24.082  33.385  0.00  0.00    -0.532 OA
ATOM     21  O   UNL d   1     -52.509  25.514  33.361  0.00  0.00    -0.532 OA
ENDBRANCH  14  19
ENDBRANCH   1  13
TORSDOF 3
ENDMDL
