MODEL 1
REMARK VINA RESULT:      63.0      0.000      0.000
REMARK  5 active torsions:
REMARK  status: ('A' for Active; 'I' for Inactive)
REMARK    1  A    between atoms: C_7  and  C_1 
REMARK    2  A    between atoms: C_8  and  N_2 
REMARK    3  A    between atoms: C_13  and  C_7 
REMARK    4  A    between atoms: C_14  and  C_8 
REMARK    5  A    between atoms: O_22  and  C_15 
ROOT
ATOM      1  C   UNL d   1      45.559 -16.808  43.386  0.00  0.00     0.095 A 
ATOM      2  N   UNL d   1      46.285 -17.610  42.427  0.00  0.00    -0.304 N 
ATOM      3  C   UNL d   1      45.561 -17.448  43.915  0.00  0.00     0.202 A 
ATOM      4  C   UNL d   1      45.921 -16.883  42.637  0.00  0.00     0.087 A 
ATOM      5  C   UNL d   1      45.923 -18.160  43.698  0.00  0.00     0.057 A 
ATOM      6  C   UNL d   1      46.287 -18.243  42.951  0.00  0.00     0.067 A 
ATOM      7  C   UNL d   1      46.644 -18.949  42.739  0.00  0.00     0.020 A 
ATOM      8  C   UNL d   1      45.927 -18.800  44.223  0.00  0.00     0.029 A 
ATOM      9  O   UNL d   1      45.201 -17.373  44.661  0.00  0.00    -0.286 OA
ATOM     10  C   UNL d   1      46.289 -19.508  44.001  0.00  0.00     0.094 A 
ATOM     11  C   UNL d   1      46.646 -19.582  43.263  0.00  0.00     0.026 A 
ENDROOT
BRANCH   1  12
ATOM     12  C   UNL d   1      45.199 -16.097  43.600  0.00  0.00     0.200 C 
ATOM     13  O   UNL d   1      44.404 -15.987  43.464  0.00  0.00    -0.286 OA
BRANCH  12  14
ATOM     14  C   UNL d   1      45.651 -15.502  43.952  0.00  0.00     0.039 A 
ATOM     15  C   UNL d   1      46.117 -15.678  44.607  0.00  0.00     0.003 A 
ATOM     16  C   UNL d   1      46.565 -15.082  44.952  0.00  0.00     0.000 A 
ATOM     17  C   UNL d   1      46.547 -14.315  44.644  0.00  0.00     0.000 A 
ATOM     18  C   UNL d   1      46.075 -14.151  43.985  0.00  0.00     0.000 A 
ATOM     19  C   UNL d   1      45.623 -14.745  43.634  0.00  0.00     0.003 A 
ENDBRANCH  12  14
ENDBRANCH   1  12
BRANCH   2  20
ATOM     20  C   UNL d   1      46.642 -17.684  41.689  0.00  0.00     0.080 C 
BRANCH  20  21
ATOM     21  C   UNL d   1      46.173 -17.711  41.006  0.00  0.00     0.018 A 
ATOM     22  C   UNL d   1      45.371 -17.880  41.075  0.00  0.00     0.002 A 
ATOM     23  C   UNL d   1      44.904 -17.907  40.399  0.00  0.00     0.000 A 
ATOM     24  C   UNL d   1      45.232 -17.767  39.664  0.00  0.00     0.000 A 
ATOM     25  C   UNL d   1      46.043 -17.597  39.602  0.00  0.00     0.000 A 
ATOM     26  C   UNL d   1      44.765 -17.794  38.989  0.00  0.00     0.000 C 
ATOM     27  C   UNL d   1      46.511 -17.570  40.278  0.00  0.00     0.002 A 
ENDBRANCH  20  21
ENDBRANCH   2  20
BRANCH  10  28
ATOM     28  O   UNL d   1      46.287 -20.141  44.532  0.00  0.00    -0.328 OA
ATOM     29  C   UNL d   1      45.598 -20.321  44.942  0.00  0.00     0.181 C 
ENDBRANCH  10  28
TORSDOF 5
ENDMDL
MODEL 2
REMARK VINA RESULT:      63.8      1.614      4.458
REMARK  5 active torsions:
REMARK  status: ('A' for Active; 'I' for Inactive)
REMARK    1  A    between atoms: C_7  and  C_1 
REMARK    2  A    between atoms: C_8  and  N_2 
REMARK    3  A    between atoms: C_13  and  C_7 
REMARK    4  A    between atoms: C_14  and  C_8 
REMARK    5  A    between atoms: O_22  and  C_15 
ROOT
ATOM      1  C   UNL d   1      45.533 -16.632  44.424  0.00  0.00     0.095 A 
ATOM      2  N   UNL d   1      45.804 -15.218  44.556  0.00  0.00    -0.304 N 
ATOM      3  C   UNL d   1      44.721 -16.480  44.519  0.00  0.00     0.202 A 
ATOM      4  C   UNL d   1      46.081 -16.003  44.442  0.00  0.00     0.087 A 
ATOM      5  C   UNL d   1      44.459 -15.704  44.630  0.00  0.00     0.057 A 
ATOM      6  C   UNL d   1      45.001 -15.068  44.650  0.00  0.00     0.067 A 
ATOM      7  C   UNL d   1      44.737 -14.301  44.760  0.00  0.00     0.020 A 
ATOM      8  C   UNL d   1      43.651 -15.549  44.725  0.00  0.00     0.029 A 
ATOM      9  O   UNL d   1      44.176 -17.107  44.501  0.00  0.00    -0.286 OA
ATOM     10  C   UNL d   1      43.395 -14.772  44.836  0.00  0.00     0.094 A 
ATOM     11  C   UNL d   1      43.935 -14.151  44.854  0.00  0.00     0.026 A 
ENDROOT
BRANCH   1  12
ATOM     12  C   UNL d   1      45.797 -17.406  44.312  0.00  0.00     0.200 C 
ATOM     13  O   UNL d   1      45.910 -17.893  44.954  0.00  0.00    -0.286 OA
BRANCH  12  14
ATOM     14  C   UNL d   1      45.945 -17.678  43.547  0.00  0.00     0.039 A 
ATOM     15  C   UNL d   1      45.549 -18.343  43.268  0.00  0.00     0.003 A 
ATOM     16  C   UNL d   1      45.701 -18.609  42.505  0.00  0.00     0.000 A 
ATOM     17  C   UNL d   1      46.244 -18.213  42.025  0.00  0.00     0.000 A 
ATOM     18  C   UNL d   1      46.636 -17.546  42.317  0.00  0.00     0.000 A 
ATOM     19  C   UNL d   1      46.488 -17.273  43.082  0.00  0.00     0.003 A 
ENDBRANCH  12  14
ENDBRANCH   1  12
BRANCH   2  20
ATOM     20  C   UNL d   1      46.344 -14.597  44.574  0.00  0.00     0.080 C 
BRANCH  20  21
ATOM     21  C   UNL d   1      46.265 -13.967  44.042  0.00  0.00     0.018 A 
ATOM     22  C   UNL d   1      46.134 -13.209  44.334  0.00  0.00     0.002 A 
ATOM     23  C   UNL d   1      46.055 -12.582  43.809  0.00  0.00     0.000 A 
ATOM     24  C   UNL d   1      46.106 -12.708  43.003  0.00  0.00     0.000 A 
ATOM     25  C   UNL d   1      46.239 -13.476  42.716  0.00  0.00     0.000 A 
ATOM     26  C   UNL d   1      46.027 -12.081  42.478  0.00  0.00     0.000 C 
ATOM     27  C   UNL d   1      46.317 -14.104  43.240  0.00  0.00     0.002 A 
ENDBRANCH  20  21
ENDBRANCH   2  20
BRANCH  10  28
ATOM     28  O   UNL d   1      42.587 -14.628  44.929  0.00  0.00    -0.328 OA
ATOM     29  C   UNL d   1      42.065 -15.262  44.953  0.00  0.00     0.181 C 
ENDBRANCH  10  28
TORSDOF 5
ENDMDL
