MODEL 1
REMARK VINA RESULT:      -0.8      0.000      0.000
REMARK  1 active torsions:
REMARK  status: ('A' for Active; 'I' for Inactive)
REMARK    1  A    between atoms: C_5  and  C_1 
ROOT
ATOM      1  C   UNL d   1     -55.125-102.458 -37.432  0.00  0.00     0.169 A 
ATOM      2  N   UNL d   1     -54.807-101.716 -37.259  0.00  0.00    -0.142 NA
ATOM      3  C   UNL d   1     -55.221-102.870 -36.721  0.00  0.00     0.048 A 
ATOM      4  N   UNL d   1     -54.711-101.679 -36.442  0.00  0.00    -0.148 NA
ATOM      5  C   UNL d   1     -54.969-102.395 -36.120  0.00  0.00     0.105 A 
ATOM      6  C   UNL d   1     -54.969-102.593 -35.318  0.00  0.00     0.023 C 
ENDROOT
BRANCH   1   7
ATOM      7  C   UNL d   1     -55.312-102.735 -38.184  0.00  0.00     0.231 C 
ATOM      8  O   UNL d   1     -56.096-102.879 -38.390  0.00  0.00    -0.643 OA
ATOM      9  O   UNL d   1     -54.711-102.868 -38.733  0.00  0.00    -0.643 OA
ENDBRANCH   1   7
TORSDOF 1
ENDMDL
