MODEL 1
REMARK VINA RESULT:      -4.7      0.000      0.000
REMARK  4 active torsions:
REMARK  status: ('A' for Active; 'I' for Inactive)
REMARK    1  A    between atoms: C_3  and  S_1 
REMARK    2  A    between atoms: N_4  and  S_1 
REMARK    3  A    between atoms: C_2  and  C_8 
REMARK       I    between atoms: N_5  and  C_2 
REMARK    4  A    between atoms: C_14  and  N_5 
ROOT
ATOM      1  C   UNL d   1      55.603   0.075  33.550  0.00  0.00     0.104 A 
ATOM      2  C   UNL d   1      56.522  -0.226  32.179  0.00  0.00     0.058 A 
ATOM      3  C   UNL d   1      55.808  -0.665  33.345  0.00  0.00     0.013 A 
ATOM      4  C   UNL d   1      55.853   0.681  33.074  0.00  0.00     0.013 A 
ATOM      5  C   UNL d   1      56.306   0.567  32.394  0.00  0.00     0.005 A 
ATOM      6  C   UNL d   1      56.262  -0.817  32.667  0.00  0.00     0.005 A 
ENDROOT
BRANCH   2   7
ATOM      7  C   UNL d   1      56.987  -0.381  31.486  0.00  0.00     0.279 C 
ATOM      8  N   UNL d   1      57.467   0.151  31.173  0.00  0.00    -0.208 NA
ATOM      9  O   UNL d   1      56.906  -1.156  31.141  0.00  0.00    -0.265 OA
BRANCH   8  10
ATOM     10  C   UNL d   1      57.907  -0.027  30.498  0.00  0.00     0.085 A 
ATOM     11  C   UNL d   1      58.434  -0.640  30.520  0.00  0.00     0.020 A 
ATOM     12  C   UNL d   1      58.873  -0.818  29.845  0.00  0.00     0.013 A 
ATOM     13  C   UNL d   1      58.786  -0.384  29.149  0.00  0.00     0.058 A 
ATOM     14  C   UNL d   1      58.238   0.248  29.137  0.00  0.00     0.013 A 
ATOM     15 CL   UNL d   1      59.277  -0.611  28.455  0.00  0.00    -0.082 Cl
ATOM     16  C   UNL d   1      57.801   0.422  29.814  0.00  0.00     0.020 A 
ENDBRANCH   8  10
ENDBRANCH   2   7
BRANCH   1  17
ATOM     17  S   UNL d   1      55.120   0.309  34.259  0.00  0.00     0.271 S 
ATOM     18  O   UNL d   1      55.782   0.360  34.779  0.00  0.00    -0.200 OA
ATOM     19  O   UNL d   1      54.492   0.258  33.757  0.00  0.00    -0.200 OA
BRANCH  17  20
ATOM     20  N   UNL d   1      54.585   0.536  34.918  0.00  0.00    -0.226 N 
ATOM     21  C   UNL d   1      54.888   0.606  35.694  0.00  0.00     0.111 C 
ATOM     22  C   UNL d   1      53.785   0.681  34.772  0.00  0.00     0.111 C 
ENDBRANCH  17  20
ENDBRANCH   1  17
TORSDOF 4
ENDMDL
MODEL 2
REMARK VINA RESULT:      -4.6      2.634      5.334
REMARK  4 active torsions:
REMARK  status: ('A' for Active; 'I' for Inactive)
REMARK    1  A    between atoms: C_3  and  S_1 
REMARK    2  A    between atoms: N_4  and  S_1 
REMARK    3  A    between atoms: C_2  and  C_8 
REMARK       I    between atoms: N_5  and  C_2 
REMARK    4  A    between atoms: C_14  and  N_5 
ROOT
ATOM      1  C   UNL d   1      58.460  -0.739  30.043  0.00  0.00     0.104 A 
ATOM      2  C   UNL d   1      57.385  -0.264  31.241  0.00  0.00     0.058 A 
ATOM      3  C   UNL d   1      57.976  -1.262  30.394  0.00  0.00     0.013 A 
ATOM      4  C   UNL d   1      58.418   0.034  30.284  0.00  0.00     0.013 A 
ATOM      5  C   UNL d   1      57.901   0.299  30.869  0.00  0.00     0.005 A 
ATOM      6  C   UNL d   1      57.443  -1.030  30.987  0.00  0.00     0.005 A 
ENDROOT
BRANCH   2   7
ATOM      7  C   UNL d   1      56.840  -0.026  31.847  0.00  0.00     0.279 C 
ATOM      8  N   UNL d   1      56.817  -0.369  32.550  0.00  0.00    -0.208 NA
ATOM      9  O   UNL d   1      56.312   0.613  31.653  0.00  0.00    -0.265 OA
BRANCH   8  10
ATOM     10  C   UNL d   1      56.276  -0.118  33.121  0.00  0.00     0.085 A 
ATOM     11  C   UNL d   1      56.506   0.429  33.670  0.00  0.00     0.020 A 
ATOM     12  C   UNL d   1      55.965   0.679  34.240  0.00  0.00     0.013 A 
ATOM     13  C   UNL d   1      55.195   0.384  34.261  0.00  0.00     0.058 A 
ATOM     14  C   UNL d   1      54.968  -0.181  33.687  0.00  0.00     0.013 A 
ATOM     15 CL   UNL d   1      54.655   0.682  34.887  0.00  0.00    -0.082 Cl
ATOM     16  C   UNL d   1      55.512  -0.429  33.119  0.00  0.00     0.020 A 
ENDBRANCH   8  10
ENDBRANCH   2   7
BRANCH   1  17
ATOM     17  S   UNL d   1      59.052  -0.917  29.405  0.00  0.00     0.271 S 
ATOM     18  O   UNL d   1      59.114  -0.119  29.142  0.00  0.00    -0.200 OA
ATOM     19  O   UNL d   1      58.989  -1.679  29.660  0.00  0.00    -0.200 OA
BRANCH  17  20
ATOM     20  N   UNL d   1      59.634  -1.163  28.794  0.00  0.00    -0.226 N 
ATOM     21  C   UNL d   1      60.153  -0.597  28.463  0.00  0.00     0.111 C 
ATOM     22  C   UNL d   1      59.669  -1.951  28.547  0.00  0.00     0.111 C 
ENDBRANCH  17  20
ENDBRANCH   1  17
TORSDOF 4
ENDMDL
MODEL 3
REMARK VINA RESULT:      -2.2      1.195      1.276
REMARK  4 active torsions:
REMARK  status: ('A' for Active; 'I' for Inactive)
REMARK    1  A    between atoms: C_3  and  S_1 
REMARK    2  A    between atoms: N_4  and  S_1 
REMARK    3  A    between atoms: C_2  and  C_8 
REMARK       I    between atoms: N_5  and  C_2 
REMARK    4  A    between atoms: C_14  and  N_5 
ROOT
ATOM      1  C   UNL d   1      56.006  -0.047  32.777  0.00  0.00     0.104 A 
ATOM      2  C   UNL d   1      57.316   0.003  31.730  0.00  0.00     0.058 A 
ATOM      3  C   UNL d   1      56.197  -0.673  32.325  0.00  0.00     0.013 A 
ATOM      4  C   UNL d   1      56.465   0.617  32.715  0.00  0.00     0.013 A 
ATOM      5  C   UNL d   1      57.115   0.674  32.210  0.00  0.00     0.005 A 
ATOM      6  C   UNL d   1      56.845  -0.651  31.807  0.00  0.00     0.005 A 
ENDROOT
BRANCH   2   7
ATOM      7  C   UNL d   1      57.978   0.025  31.199  0.00  0.00     0.279 C 
ATOM      8  N   UNL d   1      58.172   0.666  30.795  0.00  0.00    -0.208 NA
ATOM      9  O   UNL d   1      58.429  -0.694  31.125  0.00  0.00    -0.265 OA
BRANCH   8  10
ATOM     10  C   UNL d   1      58.822   0.659  30.286  0.00  0.00     0.085 A 
ATOM     11  C   UNL d   1      59.568   0.630  30.596  0.00  0.00     0.020 A 
ATOM     12  C   UNL d   1      60.216   0.623  30.086  0.00  0.00     0.013 A 
ATOM     13  C   UNL d   1      60.119   0.645  29.267  0.00  0.00     0.058 A 
ATOM     14  C   UNL d   1      59.343   0.675  28.957  0.00  0.00     0.013 A 
ATOM     15 CL   UNL d   1      60.841   0.636  28.765  0.00  0.00    -0.082 Cl
ATOM     16  C   UNL d   1      58.697   0.682  29.471  0.00  0.00     0.020 A 
ENDBRANCH   8  10
ENDBRANCH   2   7
BRANCH   1  17
ATOM     17  S   UNL d   1      55.329  -0.002  33.351  0.00  0.00     0.271 S 
ATOM     18  O   UNL d   1      55.612  -0.628  33.841  0.00  0.00    -0.200 OA
ATOM     19  O   UNL d   1      55.063   0.595  32.880  0.00  0.00    -0.200 OA
BRANCH  17  20
ATOM     20  N   UNL d   1      54.633   0.096  33.879  0.00  0.00    -0.226 N 
ATOM     21  C   UNL d   1      54.745   0.329  34.674  0.00  0.00     0.111 C 
ATOM     22  C   UNL d   1      53.871  -0.041  33.592  0.00  0.00     0.111 C 
ENDBRANCH  17  20
ENDBRANCH   1  17
TORSDOF 4
ENDMDL
