MODEL 1
REMARK VINA RESULT:      71.2      0.000      0.000
REMARK  5 active torsions:
REMARK  status: ('A' for Active; 'I' for Inactive)
REMARK    1  A    between atoms: N_8  and  C_1 
REMARK    2  A    between atoms: C_11  and  N_4 
REMARK    3  A    between atoms: N_6  and  C_7 
REMARK       I    between atoms: C_9  and  N_6 
REMARK    4  A    between atoms: C_7  and  N_8 
REMARK    5  A    between atoms: C_14  and  C_9 
ROOT
ATOM      1  C   UNL d   1     -54.904-100.708 -40.559  0.00  0.00     0.209 A 
ATOM      2  C   UNL d   1     -54.835 -99.961 -41.693  0.00  0.00     0.310 A 
ATOM      3  N   UNL d   1     -55.031-101.304 -41.774  0.00  0.00    -0.237 N 
ATOM      4  N   UNL d   1     -54.943-100.608 -42.124  0.00  0.00    -0.208 N 
ATOM      5  C   UNL d   1     -55.011-101.352 -40.989  0.00  0.00     0.116 A 
ATOM      6  O   UNL d   1     -54.719 -99.121 -41.861  0.00  0.00    -0.262 OA
ATOM      7  C   UNL d   1     -55.139-101.947 -42.204  0.00  0.00     0.120 C 
ATOM      8  C   UNL d   1     -55.100-102.052 -40.641  0.00  0.00     0.024 C 
ENDROOT
BRANCH   1   9
ATOM      9  N   UNL d   1     -54.850-100.538 -39.709  0.00  0.00    -0.366 NA
BRANCH   9  10
ATOM     10  C   UNL d   1     -54.799-100.376 -38.897  0.00  0.00     0.275 C 
ATOM     11  S   UNL d   1     -54.776 -99.589 -38.630  0.00  0.00    -0.023 SA
BRANCH  10  12
ATOM     12  N   UNL d   1     -54.771-101.001 -38.353  0.00  0.00    -0.168 NA
ATOM     13  C   UNL d   1     -54.805-100.842 -37.540  0.00  0.00     0.282 C 
ATOM     14  O   UNL d   1     -54.866-100.058 -37.271  0.00  0.00    -0.265 OA
BRANCH  13  15
ATOM     15  C   UNL d   1     -54.777-101.467 -36.996  0.00  0.00     0.058 A 
ATOM     16  C   UNL d   1     -54.779-102.249 -37.263  0.00  0.00     0.005 A 
ATOM     17  C   UNL d   1     -54.751-102.876 -36.714  0.00  0.00     0.000 A 
ATOM     18  C   UNL d   1     -54.721-102.709 -35.891  0.00  0.00     0.000 A 
ATOM     19  C   UNL d   1     -54.719-101.920 -35.631  0.00  0.00     0.000 A 
ATOM     20  C   UNL d   1     -54.747-101.303 -36.177  0.00  0.00     0.005 A 
ENDBRANCH  13  15
ENDBRANCH  10  12
ENDBRANCH   9  10
ENDBRANCH   1   9
BRANCH   4  21
ATOM     21  C   UNL d   1     -54.962-100.557 -42.904  0.00  0.00     0.085 A 
ATOM     22  C   UNL d   1     -55.226-101.159 -43.327  0.00  0.00     0.019 A 
ATOM     23  C   UNL d   1     -55.248-101.115 -44.109  0.00  0.00     0.002 A 
ATOM     24  C   UNL d   1     -54.999-100.452 -44.472  0.00  0.00     0.000 A 
ATOM     25  C   UNL d   1     -54.736 -99.853 -44.040  0.00  0.00     0.002 A 
ATOM     26  C   UNL d   1     -54.717 -99.904 -43.261  0.00  0.00     0.019 A 
ENDBRANCH   4  21
TORSDOF 5
ENDMDL
