MODEL 1
REMARK VINA RESULT:      -3.4      0.000      0.000
REMARK  5 active torsions:
REMARK  status: ('A' for Active; 'I' for Inactive)
REMARK    1  A    between atoms: C_3  and  N_1 
REMARK       I    between atoms: C_2  and  N_4 
REMARK    2  A    between atoms: C_10  and  C_2 
REMARK    3  A    between atoms: N_4  and  C_9 
REMARK    4  A    between atoms: C_13  and  C_10 
REMARK    5  A    between atoms: C_16  and  C_13 
ROOT
ATOM      1  C   UNL d   1      32.920  21.685 -21.152  0.00  0.00     0.064 A 
ATOM      2  C   UNL d   1      33.220  21.877 -21.902  0.00  0.00     0.020 A 
ATOM      3  C   UNL d   1      32.642  20.922 -21.005  0.00  0.00     0.020 A 
ATOM      4  C   UNL d   1      32.966  20.553 -22.353  0.00  0.00     0.135 A 
ATOM      5  C   UNL d   1      32.664  20.351 -21.609  0.00  0.00     0.034 A 
ATOM      6  C   UNL d   1      33.241  21.309 -22.498  0.00  0.00     0.034 A 
ENDROOT
BRANCH   4   7
ATOM      7  N   UNL d   1      32.989  19.989 -22.952  0.00  0.00    -0.365 NA
ATOM      8  C   UNL d   1      33.013  19.420 -23.558  0.00  0.00     0.328 C 
ATOM      9  O   UNL d   1      33.238  19.642 -24.320  0.00  0.00    -0.251 OA
BRANCH   8  10
ATOM     10  C   UNL d   1      32.811  18.637 -23.399  0.00  0.00     0.076 C 
BRANCH  10  11
ATOM     11  C   UNL d   1      32.639  18.122 -24.011  0.00  0.00     0.006 C 
BRANCH  11  12
ATOM     12  C   UNL d   1      32.246  17.412 -23.857  0.00  0.00     0.000 A 
ATOM     13  C   UNL d   1      32.668  16.763 -23.570  0.00  0.00     0.000 A 
ATOM     14  C   UNL d   1      32.279  16.046 -23.413  0.00  0.00     0.000 A 
ATOM     15  C   UNL d   1      31.467  15.983 -23.545  0.00  0.00     0.000 A 
ATOM     16  C   UNL d   1      31.044  16.637 -23.834  0.00  0.00     0.000 A 
ATOM     17  C   UNL d   1      31.434  17.350 -23.989  0.00  0.00     0.000 A 
ENDBRANCH  11  12
ENDBRANCH  10  11
ENDBRANCH   8  10
ENDBRANCH   4   7
BRANCH   1  18
ATOM     18  N   UNL d   1      32.899  22.252 -20.557  0.00  0.00    -0.300 N 
ATOM     19  C   UNL d   1      32.546  22.983 -20.704  0.00  0.00     0.107 A 
ATOM     20  C   UNL d   1      32.525  23.552 -20.110  0.00  0.00     0.142 A 
ATOM     21  O   UNL d   1      32.852  23.393 -19.374  0.00  0.00    -0.300 OA
ATOM     22  C   UNL d   1      33.205  22.662 -19.226  0.00  0.00     0.142 A 
ATOM     23  C   UNL d   1      33.228  22.087 -19.821  0.00  0.00     0.107 A 
ENDBRANCH   1  18
TORSDOF 5
ENDMDL
MODEL 2
REMARK VINA RESULT:      -2.2      1.265      5.914
REMARK  5 active torsions:
REMARK  status: ('A' for Active; 'I' for Inactive)
REMARK    1  A    between atoms: C_3  and  N_1 
REMARK       I    between atoms: C_2  and  N_4 
REMARK    2  A    between atoms: C_10  and  C_2 
REMARK    3  A    between atoms: N_4  and  C_9 
REMARK    4  A    between atoms: C_13  and  C_10 
REMARK    5  A    between atoms: C_16  and  C_13 
ROOT
ATOM      1  C   UNL d   1      32.899  20.206 -22.355  0.00  0.00     0.064 A 
ATOM      2  C   UNL d   1      33.103  20.924 -22.719  0.00  0.00     0.020 A 
ATOM      3  C   UNL d   1      32.772  20.182 -21.540  0.00  0.00     0.020 A 
ATOM      4  C   UNL d   1      33.051  21.587 -21.463  0.00  0.00     0.135 A 
ATOM      5  C   UNL d   1      32.848  20.876 -21.090  0.00  0.00     0.034 A 
ATOM      6  C   UNL d   1      33.177  21.610 -22.270  0.00  0.00     0.034 A 
ENDROOT
BRANCH   4   7
ATOM      7  N   UNL d   1      33.127  22.276 -21.018  0.00  0.00    -0.365 NA
ATOM      8  C   UNL d   1      33.203  22.972 -20.570  0.00  0.00     0.328 C 
ATOM      9  O   UNL d   1      33.240  23.702 -20.952  0.00  0.00    -0.251 OA
BRANCH   8  10
ATOM     10  C   UNL d   1      33.241  22.933 -19.748  0.00  0.00     0.076 C 
BRANCH  10  11
ATOM     11  C   UNL d   1      32.751  23.401 -19.289  0.00  0.00     0.006 C 
BRANCH  11  12
ATOM     12  C   UNL d   1      32.679  23.256 -18.479  0.00  0.00     0.000 A 
ATOM     13  C   UNL d   1      32.114  23.666 -18.037  0.00  0.00     0.000 A 
ATOM     14  C   UNL d   1      32.036  23.525 -17.223  0.00  0.00     0.000 A 
ATOM     15  C   UNL d   1      32.525  22.972 -16.854  0.00  0.00     0.000 A 
ATOM     16  C   UNL d   1      33.092  22.560 -17.300  0.00  0.00     0.000 A 
ATOM     17  C   UNL d   1      33.168  22.703 -18.110  0.00  0.00     0.000 A 
ENDBRANCH  11  12
ENDBRANCH  10  11
ENDBRANCH   8  10
ENDBRANCH   4   7
BRANCH   1  18
ATOM     18  N   UNL d   1      32.825  19.521 -22.804  0.00  0.00    -0.300 N 
ATOM     19  C   UNL d   1      33.023  18.793 -22.470  0.00  0.00     0.107 A 
ATOM     20  C   UNL d   1      32.949  18.107 -22.919  0.00  0.00     0.142 A 
ATOM     21  O   UNL d   1      32.681  18.146 -23.693  0.00  0.00    -0.300 OA
ATOM     22  C   UNL d   1      32.483  18.874 -24.027  0.00  0.00     0.142 A 
ATOM     23  C   UNL d   1      32.556  19.567 -23.580  0.00  0.00     0.107 A 
ENDBRANCH   1  18
TORSDOF 5
ENDMDL
MODEL 3
REMARK VINA RESULT:      -2.2      1.339      5.647
REMARK  5 active torsions:
REMARK  status: ('A' for Active; 'I' for Inactive)
REMARK    1  A    between atoms: C_3  and  N_1 
REMARK       I    between atoms: C_2  and  N_4 
REMARK    2  A    between atoms: C_10  and  C_2 
REMARK    3  A    between atoms: N_4  and  C_9 
REMARK    4  A    between atoms: C_13  and  C_10 
REMARK    5  A    between atoms: C_16  and  C_13 
ROOT
ATOM      1  C   UNL d   1      32.832  18.406 -23.227  0.00  0.00     0.064 A 
ATOM      2  C   UNL d   1      32.973  18.962 -23.827  0.00  0.00     0.020 A 
ATOM      3  C   UNL d   1      32.774  18.655 -22.443  0.00  0.00     0.020 A 
ATOM      4  C   UNL d   1      32.999  20.007 -22.866  0.00  0.00     0.135 A 
ATOM      5  C   UNL d   1      32.858  19.461 -22.259  0.00  0.00     0.034 A 
ATOM      6  C   UNL d   1      33.056  19.760 -23.642  0.00  0.00     0.034 A 
ENDROOT
BRANCH   4   7
ATOM      7  N   UNL d   1      33.082  20.807 -22.685  0.00  0.00    -0.365 NA
ATOM      8  C   UNL d   1      33.166  21.614 -22.505  0.00  0.00     0.328 C 
ATOM      9  O   UNL d   1      33.174  22.171 -23.113  0.00  0.00    -0.251 OA
BRANCH   8  10
ATOM     10  C   UNL d   1      33.241  21.856 -21.721  0.00  0.00     0.076 C 
BRANCH  10  11
ATOM     11  C   UNL d   1      32.953  22.585 -21.484  0.00  0.00     0.006 C 
BRANCH  11  12
ATOM     12  C   UNL d   1      32.922  22.779 -20.682  0.00  0.00     0.000 A 
ATOM     13  C   UNL d   1      33.202  22.242 -20.119  0.00  0.00     0.000 A 
ATOM     14  C   UNL d   1      33.174  22.430 -19.311  0.00  0.00     0.000 A 
ATOM     15  C   UNL d   1      32.866  23.157 -19.070  0.00  0.00     0.000 A 
ATOM     16  C   UNL d   1      32.585  23.695 -19.637  0.00  0.00     0.000 A 
ATOM     17  C   UNL d   1      32.614  23.505 -20.441  0.00  0.00     0.000 A 
ENDBRANCH  11  12
ENDBRANCH  10  11
ENDBRANCH   8  10
ENDBRANCH   4   7
BRANCH   1  18
ATOM     18  N   UNL d   1      32.750  17.608 -23.413  0.00  0.00    -0.300 N 
ATOM     19  C   UNL d   1      32.274  17.387 -24.050  0.00  0.00     0.107 A 
ATOM     20  C   UNL d   1      32.191  16.589 -24.236  0.00  0.00     0.142 A 
ATOM     21  O   UNL d   1      32.578  16.018 -23.792  0.00  0.00    -0.300 OA
ATOM     22  C   UNL d   1      33.054  16.240 -23.156  0.00  0.00     0.142 A 
ATOM     23  C   UNL d   1      33.140  17.041 -22.964  0.00  0.00     0.107 A 
ENDBRANCH   1  18
TORSDOF 5
ENDMDL
MODEL 4
REMARK VINA RESULT:      -1.8      1.274      1.985
REMARK  5 active torsions:
REMARK  status: ('A' for Active; 'I' for Inactive)
REMARK    1  A    between atoms: C_3  and  N_1 
REMARK       I    between atoms: C_2  and  N_4 
REMARK    2  A    between atoms: C_10  and  C_2 
REMARK    3  A    between atoms: N_4  and  C_9 
REMARK    4  A    between atoms: C_13  and  C_10 
REMARK    5  A    between atoms: C_16  and  C_13 
ROOT
ATOM      1  C   UNL d   1      33.011  22.394 -19.834  0.00  0.00     0.064 A 
ATOM      2  C   UNL d   1      33.172  21.592 -19.977  0.00  0.00     0.020 A 
ATOM      3  C   UNL d   1      32.899  22.909 -20.469  0.00  0.00     0.020 A 
ATOM      4  C   UNL d   1      33.109  21.820 -21.378  0.00  0.00     0.135 A 
ATOM      5  C   UNL d   1      32.949  22.621 -21.247  0.00  0.00     0.034 A 
ATOM      6  C   UNL d   1      33.220  21.310 -20.750  0.00  0.00     0.034 A 
ENDROOT
BRANCH   4   7
ATOM      7  N   UNL d   1      33.159  21.533 -22.150  0.00  0.00    -0.365 NA
ATOM      8  C   UNL d   1      33.208  21.246 -22.928  0.00  0.00     0.328 C 
ATOM      9  O   UNL d   1      33.225  21.776 -23.560  0.00  0.00    -0.251 OA
BRANCH   8  10
ATOM     10  C   UNL d   1      33.241  20.435 -23.068  0.00  0.00     0.076 C 
BRANCH  10  11
ATOM     11  C   UNL d   1      33.113  20.139 -23.820  0.00  0.00     0.006 C 
BRANCH  11  12
ATOM     12  C   UNL d   1      33.037  19.326 -23.939  0.00  0.00     0.000 A 
ATOM     13  C   UNL d   1      32.808  18.839 -23.313  0.00  0.00     0.000 A 
ATOM     14  C   UNL d   1      32.730  18.020 -23.426  0.00  0.00     0.000 A 
ATOM     15  C   UNL d   1      32.882  17.692 -24.167  0.00  0.00     0.000 A 
ATOM     16  C   UNL d   1      33.113  18.183 -24.796  0.00  0.00     0.000 A 
ATOM     17  C   UNL d   1      33.190  18.998 -24.681  0.00  0.00     0.000 A 
ENDBRANCH  11  12
ENDBRANCH  10  11
ENDBRANCH   8  10
ENDBRANCH   4   7
BRANCH   1  18
ATOM     18  N   UNL d   1      32.963  22.675 -19.063  0.00  0.00    -0.300 N 
ATOM     19  C   UNL d   1      32.638  23.420 -18.921  0.00  0.00     0.107 A 
ATOM     20  C   UNL d   1      32.590  23.702 -18.150  0.00  0.00     0.142 A 
ATOM     21  O   UNL d   1      32.862  23.246 -17.525  0.00  0.00    -0.300 OA
ATOM     22  C   UNL d   1      33.186  22.501 -17.666  0.00  0.00     0.142 A 
ATOM     23  C   UNL d   1      33.237  22.213 -18.440  0.00  0.00     0.107 A 
ENDBRANCH   1  18
TORSDOF 5
ENDMDL
