MODEL 1
REMARK VINA RESULT:      26.6      0.000      0.000
REMARK  0 active torsions:
REMARK  status: ('A' for Active; 'I' for Inactive)
REMARK       I    between atoms: C_2  and  N_1 
REMARK       I    between atoms: N_7  and  C_2 
ROOT
ATOM      1  N   UNL d   1     -51.561  25.367  33.323  0.00  0.00    -0.241 N 
ATOM      2  C   UNL d   1     -52.408  25.346  33.319  0.00  0.00     0.341 C 
ATOM      3  C   UNL d   1     -51.075  26.015  33.321  0.00  0.00     0.087 A 
ATOM      4  C   UNL d   1     -51.095  24.697  33.330  0.00  0.00     0.186 A 
ATOM      5  N   UNL d   1     -50.308  24.939  33.332  0.00  0.00    -0.224 NA
ATOM      6  C   UNL d   1     -50.300  25.760  33.327  0.00  0.00     0.099 A 
ATOM      7  N   UNL d   1     -52.817  24.631  33.322  0.00  0.00    -0.257 N 
ATOM      8  C   UNL d   1     -51.248  26.820  33.315  0.00  0.00     0.019 A 
ATOM      9  C   UNL d   1     -49.672  26.303  33.326  0.00  0.00     0.021 A 
ATOM     10  C   UNL d   1     -50.632  27.361  33.314  0.00  0.00     0.002 A 
ATOM     11  C   UNL d   1     -49.851  27.116  33.320  0.00  0.00     0.002 A 
ATOM     12  O   UNL d   1     -52.813  26.074  33.312  0.00  0.00    -0.245 OA
ATOM     13  C   UNL d   1     -53.627  24.623  33.318  0.00  0.00     0.085 A 
ATOM     14  C   UNL d   1     -52.392  23.913  33.329  0.00  0.00     0.085 A 
ATOM     15  C   UNL d   1     -50.820  28.173  33.308  0.00  0.00     0.000 C 
ATOM     16  C   UNL d   1     -49.230  27.682  33.319  0.00  0.00     0.000 C 
ATOM     17  C   UNL d   1     -54.037  23.907  33.321  0.00  0.00     0.019 A 
ATOM     18  C   UNL d   1     -52.806  23.190  33.332  0.00  0.00     0.019 A 
ATOM     19  C   UNL d   1     -53.634  23.202  33.328  0.00  0.00     0.003 A 
ENDROOT
TORSDOF 0
ENDMDL
