MODEL 1
REMARK VINA RESULT:      -7.3      0.000      0.000
REMARK  6 active torsions:
REMARK  status: ('A' for Active; 'I' for Inactive)
REMARK    1  A    between atoms: N_3  and  C_1 
REMARK    2  A    between atoms: C_5  and  C_2 
REMARK    3  A    between atoms: C_7  and  C_5 
REMARK    4  A    between atoms: C_8  and  C_5 
REMARK    5  A    between atoms: O_15  and  C_7 
REMARK    6  A    between atoms: C_19  and  O_15 
ROOT
ATOM      1  C   UNL d   1      53.578  32.367  53.973  0.00  0.00     0.166 A 
ATOM      2  C   UNL d   1      52.982  32.534  53.428  0.00  0.00     0.122 A 
ATOM      3  N   UNL d   1      53.802  31.582  54.122  0.00  0.00    -0.225 NA
ATOM      4  N   UNL d   1      52.608  31.912  53.031  0.00  0.00    -0.241 NA
ATOM      5  C   UNL d   1      53.423  30.966  53.720  0.00  0.00     0.101 A 
ATOM      6  C   UNL d   1      52.829  31.132  53.178  0.00  0.00     0.099 A 
ATOM      7  C   UNL d   1      53.645  30.193  53.869  0.00  0.00     0.021 A 
ATOM      8  C   UNL d   1      52.454  30.515  52.779  0.00  0.00     0.021 A 
ATOM      9  C   UNL d   1      52.675  29.739  52.927  0.00  0.00     0.002 A 
ATOM     10  C   UNL d   1      53.271  29.572  53.472  0.00  0.00     0.002 A 
ENDROOT
BRANCH   2  11
ATOM     11  C   UNL d   1      52.759  33.318  53.279  0.00  0.00     0.105 C 
BRANCH  11  12
ATOM     12  C   UNL d   1      51.989  33.567  53.440  0.00  0.00     0.303 C 
ATOM     13  O   UNL d   1      51.689  33.500  54.204  0.00  0.00    -0.259 OA
BRANCH  12  14
ATOM     14  O   UNL d   1      51.523  33.879  52.841  0.00  0.00    -0.273 OA
BRANCH  14  15
ATOM     15  C   UNL d   1      50.796  34.160  52.582  0.00  0.00     0.103 A 
ATOM     16  C   UNL d   1      50.554  34.001  51.809  0.00  0.00     0.025 A 
ATOM     17  C   UNL d   1      49.826  34.281  51.546  0.00  0.00     0.002 A 
ATOM     18  C   UNL d   1      49.349  34.712  52.049  0.00  0.00     0.000 A 
ATOM     19  C   UNL d   1      49.588  34.869  52.814  0.00  0.00     0.002 A 
ATOM     20  C   UNL d   1      50.319  34.590  53.086  0.00  0.00     0.025 A 
ENDBRANCH  14  15
ENDBRANCH  12  14
ENDBRANCH  11  12
BRANCH  11  21
ATOM     21  C   UNL d   1      53.306  33.860  52.966  0.00  0.00     0.129 C 
ATOM     22  N   UNL d   1      53.253  34.196  52.077  0.00  0.00    -0.146 N 
ENDBRANCH  11  21
ENDBRANCH   2  11
BRANCH   1  23
ATOM     23  N   UNL d   1      53.957  32.983  54.374  0.00  0.00    -0.284 N 
ATOM     24  C   UNL d   1      53.562  33.387  54.982  0.00  0.00     0.106 A 
ATOM     25  C   UNL d   1      53.944  34.000  55.378  0.00  0.00     0.118 A 
ATOM     26  C   UNL d   1      53.547  34.401  55.984  0.00  0.00     0.028 C 
ATOM     27  O   UNL d   1      54.714  34.217  55.178  0.00  0.00    -0.304 OA
ATOM     28  C   UNL d   1      55.109  33.813  54.570  0.00  0.00     0.118 A 
ATOM     29  C   UNL d   1      54.734  33.192  54.163  0.00  0.00     0.106 A 
ATOM     30  C   UNL d   1      55.885  34.021  54.359  0.00  0.00     0.028 C 
ENDBRANCH   1  23
TORSDOF 6
ENDMDL
MODEL 2
REMARK VINA RESULT:      -6.2      1.276      4.016
REMARK  6 active torsions:
REMARK  status: ('A' for Active; 'I' for Inactive)
REMARK    1  A    between atoms: N_3  and  C_1 
REMARK    2  A    between atoms: C_5  and  C_2 
REMARK    3  A    between atoms: C_7  and  C_5 
REMARK    4  A    between atoms: C_8  and  C_5 
REMARK    5  A    between atoms: O_15  and  C_7 
REMARK    6  A    between atoms: C_19  and  O_15 
ROOT
ATOM      1  C   UNL d   1      52.726  33.197  53.527  0.00  0.00     0.166 A 
ATOM      2  C   UNL d   1      52.364  32.525  53.214  0.00  0.00     0.122 A 
ATOM      3  N   UNL d   1      52.328  33.925  53.526  0.00  0.00    -0.225 NA
ATOM      4  N   UNL d   1      51.602  32.581  52.899  0.00  0.00    -0.241 NA
ATOM      5  C   UNL d   1      51.564  33.973  53.210  0.00  0.00     0.101 A 
ATOM      6  C   UNL d   1      51.205  33.304  52.898  0.00  0.00     0.099 A 
ATOM      7  C   UNL d   1      51.174  34.691  53.210  0.00  0.00     0.021 A 
ATOM      8  C   UNL d   1      50.444  33.356  52.584  0.00  0.00     0.021 A 
ATOM      9  C   UNL d   1      50.050  34.075  52.583  0.00  0.00     0.002 A 
ATOM     10  C   UNL d   1      50.412  34.748  52.896  0.00  0.00     0.002 A 
ENDROOT
BRANCH   2  11
ATOM     11  C   UNL d   1      52.762  31.797  53.214  0.00  0.00     0.105 C 
BRANCH  11  12
ATOM     12  C   UNL d   1      52.505  31.185  53.704  0.00  0.00     0.303 C 
ATOM     13  O   UNL d   1      51.719  31.161  53.950  0.00  0.00    -0.259 OA
BRANCH  12  14
ATOM     14  O   UNL d   1      53.029  30.602  53.946  0.00  0.00    -0.273 OA
BRANCH  14  15
ATOM     15  C   UNL d   1      53.168  29.881  54.313  0.00  0.00     0.103 A 
ATOM     16  C   UNL d   1      53.051  29.813  55.127  0.00  0.00     0.025 A 
ATOM     17  C   UNL d   1      53.189  29.091  55.498  0.00  0.00     0.002 A 
ATOM     18  C   UNL d   1      53.440  28.448  55.060  0.00  0.00     0.000 A 
ATOM     19  C   UNL d   1      53.555  28.516  54.254  0.00  0.00     0.002 A 
ATOM     20  C   UNL d   1      53.419  29.240  53.874  0.00  0.00     0.025 A 
ENDBRANCH  14  15
ENDBRANCH  12  14
ENDBRANCH  11  12
BRANCH  11  21
ATOM     21  C   UNL d   1      53.422  31.678  52.723  0.00  0.00     0.129 C 
ATOM     22  N   UNL d   1      53.396  31.128  51.946  0.00  0.00    -0.146 N 
ENDBRANCH  11  21
ENDBRANCH   2  11
BRANCH   1  23
ATOM     23  N   UNL d   1      53.488  33.148  53.843  0.00  0.00    -0.284 N 
ATOM     24  C   UNL d   1      54.147  33.138  53.338  0.00  0.00     0.106 A 
ATOM     25  C   UNL d   1      54.904  33.089  53.659  0.00  0.00     0.118 A 
ATOM     26  C   UNL d   1      55.559  33.079  53.152  0.00  0.00     0.028 C 
ATOM     27  O   UNL d   1      55.016  33.051  54.475  0.00  0.00    -0.304 OA
ATOM     28  C   UNL d   1      54.357  33.061  54.979  0.00  0.00     0.118 A 
ATOM     29  C   UNL d   1      53.586  33.110  54.668  0.00  0.00     0.106 A 
ATOM     30  C   UNL d   1      54.455  33.023  55.804  0.00  0.00     0.028 C 
ENDBRANCH   1  23
TORSDOF 6
ENDMDL
MODEL 3
REMARK VINA RESULT:      -5.3      1.341      4.322
REMARK  6 active torsions:
REMARK  status: ('A' for Active; 'I' for Inactive)
REMARK    1  A    between atoms: N_3  and  C_1 
REMARK    2  A    between atoms: C_5  and  C_2 
REMARK    3  A    between atoms: C_7  and  C_5 
REMARK    4  A    between atoms: C_8  and  C_5 
REMARK    5  A    between atoms: O_15  and  C_7 
REMARK    6  A    between atoms: C_19  and  O_15 
ROOT
ATOM      1  C   UNL d   1      52.476  33.893  53.609  0.00  0.00     0.166 A 
ATOM      2  C   UNL d   1      52.606  33.092  53.756  0.00  0.00     0.122 A 
ATOM      3  N   UNL d   1      52.967  34.467  53.951  0.00  0.00    -0.225 NA
ATOM      4  N   UNL d   1      53.231  32.865  54.249  0.00  0.00    -0.241 NA
ATOM      5  C   UNL d   1      53.590  34.232  54.442  0.00  0.00     0.101 A 
ATOM      6  C   UNL d   1      53.720  33.435  54.589  0.00  0.00     0.099 A 
ATOM      7  C   UNL d   1      54.073  34.799  54.777  0.00  0.00     0.021 A 
ATOM      8  C   UNL d   1      54.342  33.204  55.079  0.00  0.00     0.021 A 
ATOM      9  C   UNL d   1      54.828  33.771  55.417  0.00  0.00     0.002 A 
ATOM     10  C   UNL d   1      54.698  34.573  55.270  0.00  0.00     0.002 A 
ENDROOT
BRANCH   2  11
ATOM     11  C   UNL d   1      52.115  32.518  53.415  0.00  0.00     0.105 C 
BRANCH  11  12
ATOM     12  C   UNL d   1      52.445  31.870  53.025  0.00  0.00     0.303 C 
ATOM     13  O   UNL d   1      52.737  31.958  52.260  0.00  0.00    -0.259 OA
BRANCH  12  14
ATOM     14  O   UNL d   1      52.483  31.140  53.398  0.00  0.00    -0.273 OA
BRANCH  14  15
ATOM     15  C   UNL d   1      52.804  30.386  53.450  0.00  0.00     0.103 A 
ATOM     16  C   UNL d   1      53.003  30.081  54.190  0.00  0.00     0.025 A 
ATOM     17  C   UNL d   1      53.324  29.326  54.245  0.00  0.00     0.002 A 
ATOM     18  C   UNL d   1      53.445  28.883  53.569  0.00  0.00     0.000 A 
ATOM     19  C   UNL d   1      53.248  29.185  52.836  0.00  0.00     0.002 A 
ATOM     20  C   UNL d   1      52.923  29.945  52.773  0.00  0.00     0.025 A 
ENDBRANCH  14  15
ENDBRANCH  12  14
ENDBRANCH  11  12
BRANCH  11  21
ATOM     21  C   UNL d   1      51.288  32.589  53.462  0.00  0.00     0.129 C 
ATOM     22  N   UNL d   1      50.713  31.849  53.627  0.00  0.00    -0.146 N 
ENDBRANCH  11  21
ENDBRANCH   2  11
BRANCH   1  23
ATOM     23  N   UNL d   1      51.853  34.128  53.118  0.00  0.00    -0.284 N 
ATOM     24  C   UNL d   1      51.958  34.148  52.295  0.00  0.00     0.106 A 
ATOM     25  C   UNL d   1      51.334  34.382  51.812  0.00  0.00     0.118 A 
ATOM     26  C   UNL d   1      51.442  34.401  50.990  0.00  0.00     0.028 C 
ATOM     27  O   UNL d   1      50.607  34.597  52.134  0.00  0.00    -0.304 OA
ATOM     28  C   UNL d   1      50.502  34.577  52.957  0.00  0.00     0.118 A 
ATOM     29  C   UNL d   1      51.124  34.342  53.457  0.00  0.00     0.106 A 
ATOM     30  C   UNL d   1      49.773  34.791  53.296  0.00  0.00     0.028 C 
ENDBRANCH   1  23
TORSDOF 6
ENDMDL
