MODEL 1
REMARK VINA RESULT:      35.3      0.000      0.000
REMARK  8 active torsions:
REMARK  status: ('A' for Active; 'I' for Inactive)
REMARK    1  A    between atoms: N_5  and  C_1 
REMARK    2  A    between atoms: C_2  and  N_5 
REMARK    3  A    between atoms: N_3  and  C_2 
REMARK       I    between atoms: C_6  and  N_3 
REMARK    4  A    between atoms: C_13  and  C_6 
REMARK    5  A    between atoms: C_9  and  C_7 
REMARK    6  A    between atoms: C_11  and  C_9 
REMARK    7  A    between atoms: O_18  and  C_11 
REMARK    8  A    between atoms: C_22  and  O_18 
ROOT
ATOM      1  C   UNL d   1      45.597 -17.699  39.936  0.00  0.00     0.225 C 
ATOM      2  S   UNL d   1      44.907 -18.138  40.057  0.00  0.00    -0.037 SA
ENDROOT
BRANCH   1   3
ATOM      3  N   UNL d   1      46.262 -17.784  40.411  0.00  0.00    -0.192 NA
BRANCH   3   4
ATOM      4  C   UNL d   1      46.357 -18.469  40.834  0.00  0.00     0.196 A 
ATOM      5  N   UNL d   1      46.465 -18.661  41.623  0.00  0.00    -0.220 NA
ATOM      6  C   UNL d   1      46.525 -19.445  41.710  0.00  0.00     0.095 A 
ATOM      7  C   UNL d   1      46.460 -19.810  40.992  0.00  0.00     0.058 A 
ATOM      8  S   UNL d   1      46.355 -19.227  40.427  0.00  0.00    -0.046 SA
BRANCH   6   9
ATOM      9  C   UNL d   1      46.643 -19.872  42.465  0.00  0.00     0.088 C 
BRANCH   9  10
ATOM     10  C   UNL d   1      46.188 -19.696  43.112  0.00  0.00     0.302 C 
ATOM     11  O   UNL d   1      45.568 -20.188  43.335  0.00  0.00    -0.259 OA
BRANCH  10  12
ATOM     12  O   UNL d   1      46.348 -19.006  43.559  0.00  0.00    -0.271 OA
BRANCH  12  13
ATOM     13  C   UNL d   1      46.449 -19.059  44.383  0.00  0.00     0.126 C 
ATOM     14  C   UNL d   1      46.143 -18.488  44.876  0.00  0.00     0.029 C 
ENDBRANCH  12  13
ENDBRANCH  10  12
ENDBRANCH   9  10
ENDBRANCH   6   9
ENDBRANCH   3   4
ENDBRANCH   1   3
BRANCH   1  15
ATOM     15  N   UNL d   1      45.617 -17.146  39.301  0.00  0.00    -0.179 NA
ATOM     16  C   UNL d   1      44.966 -17.056  38.853  0.00  0.00     0.281 C 
ATOM     17  O   UNL d   1      44.275 -17.496  39.001  0.00  0.00    -0.265 OA
BRANCH  16  18
ATOM     18  C   UNL d   1      44.972 -16.500  38.207  0.00  0.00     0.058 A 
ATOM     19  C   UNL d   1      45.686 -16.209  37.915  0.00  0.00     0.005 A 
ATOM     20  C   UNL d   1      45.718 -15.679  37.301  0.00  0.00     0.000 A 
ATOM     21  C   UNL d   1      45.000 -15.420  36.956  0.00  0.00     0.000 A 
ATOM     22  C   UNL d   1      44.295 -15.707  37.244  0.00  0.00     0.000 A 
ATOM     23  C   UNL d   1      44.990 -14.881  36.330  0.00  0.00     0.000 C 
ATOM     24  C   UNL d   1      44.252 -16.248  37.869  0.00  0.00     0.005 A 
ENDBRANCH  16  18
ENDBRANCH   1  15
TORSDOF 8
ENDMDL
MODEL 2
REMARK VINA RESULT:      35.3      1.506      5.847
REMARK  8 active torsions:
REMARK  status: ('A' for Active; 'I' for Inactive)
REMARK    1  A    between atoms: N_5  and  C_1 
REMARK    2  A    between atoms: C_2  and  N_5 
REMARK    3  A    between atoms: N_3  and  C_2 
REMARK       I    between atoms: C_6  and  N_3 
REMARK    4  A    between atoms: C_13  and  C_6 
REMARK    5  A    between atoms: C_9  and  C_7 
REMARK    6  A    between atoms: C_11  and  C_9 
REMARK    7  A    between atoms: O_18  and  C_11 
REMARK    8  A    between atoms: C_22  and  O_18 
ROOT
ATOM      1  C   UNL d   1      45.450 -17.881  39.796  0.00  0.00     0.225 C 
ATOM      2  S   UNL d   1      46.121 -17.778  39.325  0.00  0.00    -0.037 SA
ENDROOT
BRANCH   1   3
ATOM      3  N   UNL d   1      44.732 -17.518  39.627  0.00  0.00    -0.192 NA
BRANCH   3   4
ATOM      4  C   UNL d   1      44.652 -17.117  38.927  0.00  0.00     0.196 A 
ATOM      5  N   UNL d   1      45.146 -16.919  38.304  0.00  0.00    -0.220 NA
ATOM      6  C   UNL d   1      44.748 -16.510  37.755  0.00  0.00     0.095 A 
ATOM      7  C   UNL d   1      43.978 -16.417  37.983  0.00  0.00     0.058 A 
ATOM      8  S   UNL d   1      43.889 -16.785  38.709  0.00  0.00    -0.046 SA
BRANCH   6   9
ATOM      9  C   UNL d   1      45.077 -16.198  37.007  0.00  0.00     0.088 C 
BRANCH   9  10
ATOM     10  C   UNL d   1      45.330 -15.430  36.959  0.00  0.00     0.302 C 
ATOM     11  O   UNL d   1      45.097 -14.875  37.518  0.00  0.00    -0.259 OA
BRANCH  10  12
ATOM     12  O   UNL d   1      45.836 -15.197  36.332  0.00  0.00    -0.271 OA
BRANCH  12  13
ATOM     13  C   UNL d   1      46.560 -14.824  36.500  0.00  0.00     0.126 C 
ATOM     14  C   UNL d   1      46.581 -14.038  36.711  0.00  0.00     0.029 C 
ENDBRANCH  12  13
ENDBRANCH  10  12
ENDBRANCH   9  10
ENDBRANCH   6   9
ENDBRANCH   3   4
ENDBRANCH   1   3
BRANCH   1  15
ATOM     15  N   UNL d   1      45.505 -18.376  40.475  0.00  0.00    -0.179 NA
ATOM     16  C   UNL d   1      46.089 -18.241  40.999  0.00  0.00     0.281 C 
ATOM     17  O   UNL d   1      46.637 -17.624  40.887  0.00  0.00    -0.265 OA
BRANCH  16  18
ATOM     18  C   UNL d   1      46.157 -18.734  41.691  0.00  0.00     0.058 A 
ATOM     19  C   UNL d   1      46.552 -19.457  41.650  0.00  0.00     0.005 A 
ATOM     20  C   UNL d   1      46.631 -19.944  42.293  0.00  0.00     0.000 A 
ATOM     21  C   UNL d   1      46.298 -19.701  43.023  0.00  0.00     0.000 A 
ATOM     22  C   UNL d   1      45.909 -18.988  43.065  0.00  0.00     0.000 A 
ATOM     23  C   UNL d   1      46.357 -20.169  43.702  0.00  0.00     0.000 C 
ATOM     24  C   UNL d   1      45.823 -18.485  42.414  0.00  0.00     0.005 A 
ENDBRANCH  16  18
ENDBRANCH   1  15
TORSDOF 8
ENDMDL
MODEL 3
REMARK VINA RESULT:      36.2      1.228      5.917
REMARK  8 active torsions:
REMARK  status: ('A' for Active; 'I' for Inactive)
REMARK    1  A    between atoms: N_5  and  C_1 
REMARK    2  A    between atoms: C_2  and  N_5 
REMARK    3  A    between atoms: N_3  and  C_2 
REMARK       I    between atoms: C_6  and  N_3 
REMARK    4  A    between atoms: C_13  and  C_6 
REMARK    5  A    between atoms: C_9  and  C_7 
REMARK    6  A    between atoms: C_11  and  C_9 
REMARK    7  A    between atoms: O_18  and  C_11 
REMARK    8  A    between atoms: C_22  and  O_18 
ROOT
ATOM      1  C   UNL d   1      46.145 -18.295  40.465  0.00  0.00     0.225 C 
ATOM      2  S   UNL d   1      46.634 -18.626  39.887  0.00  0.00    -0.037 SA
ENDROOT
BRANCH   1   3
ATOM      3  N   UNL d   1      45.486 -17.839  40.278  0.00  0.00    -0.192 NA
BRANCH   3   4
ATOM      4  C   UNL d   1      45.477 -17.436  39.575  0.00  0.00     0.196 A 
ATOM      5  N   UNL d   1      44.981 -17.404  38.923  0.00  0.00    -0.220 NA
ATOM      6  C   UNL d   1      45.262 -16.894  38.387  0.00  0.00     0.095 A 
ATOM      7  C   UNL d   1      45.950 -16.564  38.653  0.00  0.00     0.058 A 
ATOM      8  S   UNL d   1      46.109 -16.882  39.390  0.00  0.00    -0.046 SA
BRANCH   6   9
ATOM      9  C   UNL d   1      44.895 -16.702  37.617  0.00  0.00     0.088 C 
BRANCH   9  10
ATOM     10  C   UNL d   1      44.828 -15.932  37.373  0.00  0.00     0.302 C 
ATOM     11  O   UNL d   1      45.478 -15.429  37.391  0.00  0.00    -0.259 OA
BRANCH  10  12
ATOM     12  O   UNL d   1      44.090 -15.645  37.099  0.00  0.00    -0.271 OA
BRANCH  12  13
ATOM     13  C   UNL d   1      43.670 -16.068  36.519  0.00  0.00     0.126 C 
ATOM     14  C   UNL d   1      42.867 -15.964  36.431  0.00  0.00     0.029 C 
ENDBRANCH  12  13
ENDBRANCH  10  12
ENDBRANCH   9  10
ENDBRANCH   6   9
ENDBRANCH   3   4
ENDBRANCH   1   3
BRANCH   1  15
ATOM     15  N   UNL d   1      46.329 -18.429  41.276  0.00  0.00    -0.179 NA
ATOM     16  C   UNL d   1      45.959 -19.022  41.657  0.00  0.00     0.281 C 
ATOM     17  O   UNL d   1      45.401 -19.503  41.270  0.00  0.00    -0.265 OA
BRANCH  16  18
ATOM     18  C   UNL d   1      46.135 -19.170  42.478  0.00  0.00     0.058 A 
ATOM     19  C   UNL d   1      46.232 -18.541  43.003  0.00  0.00     0.005 A 
ATOM     20  C   UNL d   1      46.400 -18.656  43.788  0.00  0.00     0.000 A 
ATOM     21  C   UNL d   1      46.477 -19.441  44.072  0.00  0.00     0.000 A 
ATOM     22  C   UNL d   1      46.381 -20.061  43.554  0.00  0.00     0.000 A 
ATOM     23  C   UNL d   1      46.647 -19.600  44.865  0.00  0.00     0.000 C 
ATOM     24  C   UNL d   1      46.210 -19.954  42.752  0.00  0.00     0.005 A 
ENDBRANCH  16  18
ENDBRANCH   1  15
TORSDOF 8
ENDMDL
MODEL 4
REMARK VINA RESULT:      38.1      1.652      5.849
REMARK  8 active torsions:
REMARK  status: ('A' for Active; 'I' for Inactive)
REMARK    1  A    between atoms: N_5  and  C_1 
REMARK    2  A    between atoms: C_2  and  N_5 
REMARK    3  A    between atoms: N_3  and  C_2 
REMARK       I    between atoms: C_6  and  N_3 
REMARK    4  A    between atoms: C_13  and  C_6 
REMARK    5  A    between atoms: C_9  and  C_7 
REMARK    6  A    between atoms: C_11  and  C_9 
REMARK    7  A    between atoms: O_18  and  C_11 
REMARK    8  A    between atoms: C_22  and  O_18 
ROOT
ATOM      1  C   UNL d   1      45.563 -17.166  39.027  0.00  0.00     0.225 C 
ATOM      2  S   UNL d   1      44.947 -17.515  38.601  0.00  0.00    -0.037 SA
ENDROOT
BRANCH   1   3
ATOM      3  N   UNL d   1      45.872 -16.430  38.832  0.00  0.00    -0.192 NA
BRANCH   3   4
ATOM      4  C   UNL d   1      45.649 -16.084  38.133  0.00  0.00     0.196 A 
ATOM      5  N   UNL d   1      44.945 -15.988  37.724  0.00  0.00    -0.220 NA
ATOM      6  C   UNL d   1      45.070 -15.592  37.050  0.00  0.00     0.095 A 
ATOM      7  C   UNL d   1      45.854 -15.407  36.978  0.00  0.00     0.058 A 
ATOM      8  S   UNL d   1      46.239 -15.701  37.638  0.00  0.00    -0.046 SA
BRANCH   6   9
ATOM      9  C   UNL d   1      44.462 -15.378  36.459  0.00  0.00     0.088 C 
BRANCH   9  10
ATOM     10  C   UNL d   1      43.794 -15.830  36.375  0.00  0.00     0.302 C 
ATOM     11  O   UNL d   1      43.844 -16.649  36.330  0.00  0.00    -0.259 OA
BRANCH  10  12
ATOM     12  O   UNL d   1      43.044 -15.459  36.333  0.00  0.00    -0.271 OA
BRANCH  12  13
ATOM     13  C   UNL d   1      42.427 -15.712  36.830  0.00  0.00     0.126 C 
ATOM     14  C   UNL d   1      41.660 -15.474  36.694  0.00  0.00     0.029 C 
ENDBRANCH  12  13
ENDBRANCH  10  12
ENDBRANCH   9  10
ENDBRANCH   6   9
ENDBRANCH   3   4
ENDBRANCH   1   3
BRANCH   1  15
ATOM     15  N   UNL d   1      45.885 -17.581  39.686  0.00  0.00    -0.179 NA
ATOM     16  C   UNL d   1      45.390 -17.838  40.253  0.00  0.00     0.281 C 
ATOM     17  O   UNL d   1      44.570 -17.704  40.204  0.00  0.00    -0.265 OA
BRANCH  16  18
ATOM     18  C   UNL d   1      45.701 -18.259  40.925  0.00  0.00     0.058 A 
ATOM     19  C   UNL d   1      45.344 -18.184  41.666  0.00  0.00     0.005 A 
ATOM     20  C   UNL d   1      45.621 -18.574  42.321  0.00  0.00     0.000 A 
ATOM     21  C   UNL d   1      46.293 -19.069  42.239  0.00  0.00     0.000 A 
ATOM     22  C   UNL d   1      46.644 -19.144  41.509  0.00  0.00     0.000 A 
ATOM     23  C   UNL d   1      46.605 -19.483  42.882  0.00  0.00     0.000 C 
ATOM     24  C   UNL d   1      46.369 -18.750  40.835  0.00  0.00     0.005 A 
ENDBRANCH  16  18
ENDBRANCH   1  15
TORSDOF 8
ENDMDL
