MODEL 1
REMARK VINA RESULT:      -2.9      0.000      0.000
REMARK  7 active torsions:
REMARK  status: ('A' for Active; 'I' for Inactive)
REMARK    1  A    between atoms: N_9  and  C_2 
REMARK    2  A    between atoms: C_8  and  C_14 
REMARK    3  A    between atoms: C_15  and  N_9 
REMARK    4  A    between atoms: C_14  and  C_16 
REMARK    5  A    between atoms: C_17  and  C_15 
REMARK    6  A    between atoms: C_16  and  C_18 
REMARK    7  A    between atoms: C_18  and  C_17 
ROOT
ATOM      1  N   UNL d   1      32.523  22.485 -21.549  0.00  0.00    -0.198 NA
ATOM      2  C   UNL d   1      32.786  22.083 -20.875  0.00  0.00     0.166 A 
ATOM      3  C   UNL d   1      32.357  23.292 -21.509  0.00  0.00     0.222 A 
ATOM      4  C   UNL d   1      32.882  22.490 -20.164  0.00  0.00     0.054 A 
ATOM      5  N   UNL d   1      32.454  23.698 -20.795  0.00  0.00    -0.217 NA
ATOM      6  C   UNL d   1      32.717  23.297 -20.123  0.00  0.00     0.087 A 
ATOM      7  S   UNL d   1      32.095  23.700 -22.177  0.00  0.00    -0.037 SA
ATOM      8  C   UNL d   1      33.143  22.088 -19.498  0.00  0.00     0.005 A 
ATOM      9  C   UNL d   1      32.812  23.702 -19.417  0.00  0.00     0.019 A 
ATOM     10  C   UNL d   1      33.241  22.495 -18.781  0.00  0.00     0.000 A 
ATOM     11  C   UNL d   1      33.075  23.302 -18.741  0.00  0.00     0.002 A 
ENDROOT
BRANCH   2  12
ATOM     12  N   UNL d   1      32.952  21.278 -20.915  0.00  0.00    -0.225 NA
BRANCH  12  13
ATOM     13  C   UNL d   1      32.964  20.903 -21.648  0.00  0.00     0.101 C 
BRANCH  13  14
ATOM     14  C   UNL d   1      33.104  20.091 -21.686  0.00  0.00     0.021 C 
BRANCH  14  15
ATOM     15  C   UNL d   1      33.162  19.717 -22.423  0.00  0.00     0.002 C 
BRANCH  15  16
ATOM     16  C   UNL d   1      32.800  18.990 -22.541  0.00  0.00     0.006 C 
BRANCH  16  17
ATOM     17  C   UNL d   1      33.127  18.450 -23.073  0.00  0.00     0.070 C 
BRANCH  17  18
ATOM     18  C   UNL d   1      32.638  17.917 -23.469  0.00  0.00     0.211 C 
ATOM     19  O   UNL d   1      32.598  17.131 -23.225  0.00  0.00    -0.644 OA
ATOM     20  O   UNL d   1      32.186  18.174 -24.116  0.00  0.00    -0.644 OA
ENDBRANCH  17  18
ENDBRANCH  16  17
ENDBRANCH  15  16
ENDBRANCH  14  15
ENDBRANCH  13  14
ENDBRANCH  12  13
ENDBRANCH   2  12
TORSDOF 7
ENDMDL
MODEL 2
REMARK VINA RESULT:      -2.8      3.057      5.828
REMARK  7 active torsions:
REMARK  status: ('A' for Active; 'I' for Inactive)
REMARK    1  A    between atoms: N_9  and  C_2 
REMARK    2  A    between atoms: C_8  and  C_14 
REMARK    3  A    between atoms: C_15  and  N_9 
REMARK    4  A    between atoms: C_14  and  C_16 
REMARK    5  A    between atoms: C_17  and  C_15 
REMARK    6  A    between atoms: C_16  and  C_18 
REMARK    7  A    between atoms: C_18  and  C_17 
ROOT
ATOM      1  N   UNL d   1      32.070  18.314 -24.045  0.00  0.00    -0.198 NA
ATOM      2  C   UNL d   1      32.590  17.917 -23.537  0.00  0.00     0.166 A 
ATOM      3  C   UNL d   1      31.618  17.887 -24.587  0.00  0.00     0.222 A 
ATOM      4  C   UNL d   1      32.656  17.096 -23.574  0.00  0.00     0.054 A 
ATOM      5  N   UNL d   1      31.687  17.063 -24.622  0.00  0.00    -0.217 NA
ATOM      6  C   UNL d   1      32.205  16.669 -24.117  0.00  0.00     0.087 A 
ATOM      7  S   UNL d   1      31.098  18.275 -25.097  0.00  0.00    -0.037 SA
ATOM      8  C   UNL d   1      33.173  16.707 -23.069  0.00  0.00     0.005 A 
ATOM      9  C   UNL d   1      32.269  15.852 -24.154  0.00  0.00     0.019 A 
ATOM     10  C   UNL d   1      33.241  15.881 -23.104  0.00  0.00     0.000 A 
ATOM     11  C   UNL d   1      32.789  15.454 -23.647  0.00  0.00     0.002 A 
ENDROOT
BRANCH   2  12
ATOM     12  N   UNL d   1      33.040  18.344 -22.996  0.00  0.00    -0.225 NA
BRANCH  12  13
ATOM     13  C   UNL d   1      32.857  19.133 -22.849  0.00  0.00     0.101 C 
BRANCH  13  14
ATOM     14  C   UNL d   1      33.119  19.487 -22.152  0.00  0.00     0.021 C 
BRANCH  14  15
ATOM     15  C   UNL d   1      33.131  20.312 -22.088  0.00  0.00     0.002 C 
BRANCH  15  16
ATOM     16  C   UNL d   1      32.793  20.677 -21.435  0.00  0.00     0.006 C 
BRANCH  16  17
ATOM     17  C   UNL d   1      32.673  21.494 -21.438  0.00  0.00     0.070 C 
BRANCH  17  18
ATOM     18  C   UNL d   1      32.294  21.854 -20.800  0.00  0.00     0.211 C 
ATOM     19  O   UNL d   1      31.519  21.649 -20.607  0.00  0.00    -0.644 OA
ATOM     20  O   UNL d   1      32.696  22.426 -20.351  0.00  0.00    -0.644 OA
ENDBRANCH  17  18
ENDBRANCH  16  17
ENDBRANCH  15  16
ENDBRANCH  14  15
ENDBRANCH  13  14
ENDBRANCH  12  13
ENDBRANCH   2  12
TORSDOF 7
ENDMDL
MODEL 3
REMARK VINA RESULT:      -2.4      1.484      2.406
REMARK  7 active torsions:
REMARK  status: ('A' for Active; 'I' for Inactive)
REMARK    1  A    between atoms: N_9  and  C_2 
REMARK    2  A    between atoms: C_8  and  C_14 
REMARK    3  A    between atoms: C_15  and  N_9 
REMARK    4  A    between atoms: C_14  and  C_16 
REMARK    5  A    between atoms: C_17  and  C_15 
REMARK    6  A    between atoms: C_16  and  C_18 
REMARK    7  A    between atoms: C_18  and  C_17 
ROOT
ATOM      1  N   UNL d   1      33.146  21.207 -21.456  0.00  0.00    -0.198 NA
ATOM      2  C   UNL d   1      33.194  21.350 -22.269  0.00  0.00     0.166 A 
ATOM      3  C   UNL d   1      33.099  21.839 -20.928  0.00  0.00     0.222 A 
ATOM      4  C   UNL d   1      33.194  22.125 -22.552  0.00  0.00     0.054 A 
ATOM      5  N   UNL d   1      33.099  22.615 -21.213  0.00  0.00    -0.217 NA
ATOM      6  C   UNL d   1      33.146  22.758 -22.024  0.00  0.00     0.087 A 
ATOM      7  S   UNL d   1      33.051  21.703 -20.115  0.00  0.00    -0.037 SA
ATOM      8  C   UNL d   1      33.241  22.264 -23.359  0.00  0.00     0.005 A 
ATOM      9  C   UNL d   1      33.146  23.529 -22.303  0.00  0.00     0.019 A 
ATOM     10  C   UNL d   1      33.241  23.042 -23.646  0.00  0.00     0.000 A 
ATOM     11  C   UNL d   1      33.193  23.674 -23.118  0.00  0.00     0.002 A 
ENDROOT
BRANCH   2  12
ATOM     12  N   UNL d   1      33.241  20.720 -22.796  0.00  0.00    -0.225 NA
BRANCH  12  13
ATOM     13  C   UNL d   1      33.117  19.953 -22.522  0.00  0.00     0.101 C 
BRANCH  13  14
ATOM     14  C   UNL d   1      33.017  19.340 -23.064  0.00  0.00     0.021 C 
BRANCH  14  15
ATOM     15  C   UNL d   1      32.927  18.562 -22.795  0.00  0.00     0.002 C 
BRANCH  15  16
ATOM     16  C   UNL d   1      32.562  18.003 -23.273  0.00  0.00     0.006 C 
BRANCH  16  17
ATOM     17  C   UNL d   1      32.738  17.202 -23.175  0.00  0.00     0.070 C 
BRANCH  17  18
ATOM     18  C   UNL d   1      32.324  16.636 -23.610  0.00  0.00     0.211 C 
ATOM     19  O   UNL d   1      31.521  16.513 -23.474  0.00  0.00    -0.644 OA
ATOM     20  O   UNL d   1      32.721  16.190 -24.188  0.00  0.00    -0.644 OA
ENDBRANCH  17  18
ENDBRANCH  16  17
ENDBRANCH  15  16
ENDBRANCH  14  15
ENDBRANCH  13  14
ENDBRANCH  12  13
ENDBRANCH   2  12
TORSDOF 7
ENDMDL
MODEL 4
REMARK VINA RESULT:      -1.5      4.021      6.354
REMARK  7 active torsions:
REMARK  status: ('A' for Active; 'I' for Inactive)
REMARK    1  A    between atoms: N_9  and  C_2 
REMARK    2  A    between atoms: C_8  and  C_14 
REMARK    3  A    between atoms: C_15  and  N_9 
REMARK    4  A    between atoms: C_14  and  C_16 
REMARK    5  A    between atoms: C_17  and  C_15 
REMARK    6  A    between atoms: C_16  and  C_18 
REMARK    7  A    between atoms: C_18  and  C_17 
ROOT
ATOM      1  N   UNL d   1      29.859  17.913 -24.686  0.00  0.00    -0.198 NA
ATOM      2  C   UNL d   1      30.201  17.261 -24.308  0.00  0.00     0.166 A 
ATOM      3  C   UNL d   1      29.038  17.983 -24.722  0.00  0.00     0.222 A 
ATOM      4  C   UNL d   1      29.722  16.683 -23.967  0.00  0.00     0.054 A 
ATOM      5  N   UNL d   1      28.559  17.402 -24.380  0.00  0.00    -0.217 NA
ATOM      6  C   UNL d   1      28.901  16.753 -24.003  0.00  0.00     0.087 A 
ATOM      7  S   UNL d   1      28.689  18.630 -25.097  0.00  0.00    -0.037 SA
ATOM      8  C   UNL d   1      30.065  16.038 -23.593  0.00  0.00     0.005 A 
ATOM      9  C   UNL d   1      28.423  16.179 -23.665  0.00  0.00     0.019 A 
ATOM     10  C   UNL d   1      29.585  15.455 -23.250  0.00  0.00     0.000 A 
ATOM     11  C   UNL d   1      28.764  15.526 -23.286  0.00  0.00     0.002 A 
ENDROOT
BRANCH   2  12
ATOM     12  N   UNL d   1      31.020  17.191 -24.272  0.00  0.00    -0.225 NA
BRANCH  12  13
ATOM     13  C   UNL d   1      31.488  17.866 -24.330  0.00  0.00     0.101 C 
BRANCH  13  14
ATOM     14  C   UNL d   1      32.293  17.819 -24.154  0.00  0.00     0.021 C 
BRANCH  14  15
ATOM     15  C   UNL d   1      32.737  18.512 -24.070  0.00  0.00     0.002 C 
BRANCH  15  16
ATOM     16  C   UNL d   1      32.972  18.758 -23.322  0.00  0.00     0.006 C 
BRANCH  16  17
ATOM     17  C   UNL d   1      33.100  19.561 -23.177  0.00  0.00     0.070 C 
BRANCH  17  18
ATOM     18  C   UNL d   1      33.188  19.827 -22.401  0.00  0.00     0.211 C 
ATOM     19  O   UNL d   1      33.241  20.635 -22.243  0.00  0.00    -0.644 OA
ATOM     20  O   UNL d   1      33.223  19.279 -21.778  0.00  0.00    -0.644 OA
ENDBRANCH  17  18
ENDBRANCH  16  17
ENDBRANCH  15  16
ENDBRANCH  14  15
ENDBRANCH  13  14
ENDBRANCH  12  13
ENDBRANCH   2  12
TORSDOF 7
ENDMDL
