MODEL 1
REMARK VINA RESULT:      -5.8      0.000      0.000
REMARK  4 active torsions:
REMARK  status: ('A' for Active; 'I' for Inactive)
REMARK    1  A    between atoms: N_9  and  C_3 
REMARK    2  A    between atoms: C_12  and  C_5 
REMARK    3  A    between atoms: C_15  and  N_11 
REMARK    4  A    between atoms: C_19  and  C_15 
ROOT
ATOM      1  N   UNL d   1     -48.166  13.303  23.007  0.00  0.00    -0.196 N 
ATOM      2  C   UNL d   1     -48.963  13.487  23.117  0.00  0.00     0.167 A 
ATOM      3  C   UNL d   1     -47.902  12.533  23.122  0.00  0.00     0.152 A 
ATOM      4  N   UNL d   1     -47.779  13.989  22.787  0.00  0.00    -0.163 NA
ATOM      5  C   UNL d   1     -49.066  14.287  22.966  0.00  0.00     0.055 A 
ATOM      6  C   UNL d   1     -48.336  14.600  22.761  0.00  0.00     0.104 A 
ATOM      7  N   UNL d   1     -49.494  12.901  23.343  0.00  0.00    -0.227 NA
ATOM      8  C   UNL d   1     -48.434  11.939  23.349  0.00  0.00     0.057 A 
ATOM      9  C   UNL d   1     -49.231  12.123  23.460  0.00  0.00     0.086 A 
ATOM     10  C   UNL d   1     -48.186  15.386  22.565  0.00  0.00     0.023 C 
ATOM     11  C   UNL d   1     -49.774  11.536  23.688  0.00  0.00     0.021 C 
ENDROOT
BRANCH   3  12
ATOM     12  N   UNL d   1     -47.105  12.348  23.011  0.00  0.00    -0.286 N 
ATOM     13  C   UNL d   1     -46.857  11.993  22.320  0.00  0.00     0.101 A 
ATOM     14  C   UNL d   1     -46.056  11.809  22.213  0.00  0.00     0.100 A 
ATOM     15  N   UNL d   1     -45.522  11.980  22.786  0.00  0.00    -0.300 N 
ATOM     16  C   UNL d   1     -45.773  12.342  23.489  0.00  0.00     0.100 A 
ATOM     17  C   UNL d   1     -46.557  12.523  23.598  0.00  0.00     0.101 A 
BRANCH  15  18
ATOM     18  C   UNL d   1     -44.723  11.787  22.656  0.00  0.00     0.080 C 
BRANCH  18  19
ATOM     19  C   UNL d   1     -44.405  11.109  23.006  0.00  0.00     0.018 A 
ATOM     20  C   UNL d   1     -44.906  10.520  23.299  0.00  0.00     0.002 A 
ATOM     21  C   UNL d   1     -44.575   9.845  23.648  0.00  0.00     0.000 A 
ATOM     22  C   UNL d   1     -43.768   9.770  23.698  0.00  0.00     0.000 A 
ATOM     23  C   UNL d   1     -43.281  10.350  23.409  0.00  0.00     0.000 A 
ATOM     24  C   UNL d   1     -43.599  11.028  23.060  0.00  0.00     0.002 A 
ENDBRANCH  18  19
ENDBRANCH  15  18
ENDBRANCH   3  12
BRANCH   5  25
ATOM     25  C   UNL d   1     -49.731  14.778  22.986  0.00  0.00     0.004 A 
ATOM     26  C   UNL d   1     -50.260  14.786  22.354  0.00  0.00     0.000 A 
ATOM     27  C   UNL d   1     -50.921  15.274  22.373  0.00  0.00     0.000 A 
ATOM     28  C   UNL d   1     -51.058  15.761  23.033  0.00  0.00     0.000 A 
ATOM     29  C   UNL d   1     -50.529  15.753  23.665  0.00  0.00     0.000 A 
ATOM     30  C   UNL d   1     -49.865  15.262  23.645  0.00  0.00     0.000 A 
ENDBRANCH   5  25
TORSDOF 4
ENDMDL
MODEL 2
REMARK VINA RESULT:      -4.4      1.779      2.861
REMARK  4 active torsions:
REMARK  status: ('A' for Active; 'I' for Inactive)
REMARK    1  A    between atoms: N_9  and  C_3 
REMARK    2  A    between atoms: C_12  and  C_5 
REMARK    3  A    between atoms: C_15  and  N_11 
REMARK    4  A    between atoms: C_19  and  C_15 
ROOT
ATOM      1  N   UNL d   1     -47.335  12.966  22.494  0.00  0.00    -0.196 N 
ATOM      2  C   UNL d   1     -48.085  13.273  22.648  0.00  0.00     0.167 A 
ATOM      3  C   UNL d   1     -46.687  13.470  22.441  0.00  0.00     0.152 A 
ATOM      4  N   UNL d   1     -47.407  12.154  22.422  0.00  0.00    -0.163 NA
ATOM      5  C   UNL d   1     -48.619  12.650  22.671  0.00  0.00     0.055 A 
ATOM      6  C   UNL d   1     -48.202  11.958  22.531  0.00  0.00     0.104 A 
ATOM      7  N   UNL d   1     -48.186  14.083  22.748  0.00  0.00    -0.227 NA
ATOM      8  C   UNL d   1     -46.785  14.287  22.541  0.00  0.00     0.057 A 
ATOM      9  C   UNL d   1     -47.535  14.594  22.695  0.00  0.00     0.086 A 
ATOM     10  C   UNL d   1     -48.523  11.198  22.505  0.00  0.00     0.023 C 
ATOM     11  C   UNL d   1     -47.646  15.412  22.797  0.00  0.00     0.021 C 
ENDROOT
BRANCH   3  12
ATOM     12  N   UNL d   1     -45.937  13.163  22.287  0.00  0.00    -0.286 N 
ATOM     13  C   UNL d   1     -45.479  12.868  22.895  0.00  0.00     0.101 A 
ATOM     14  C   UNL d   1     -44.726  12.561  22.736  0.00  0.00     0.100 A 
ATOM     15  N   UNL d   1     -44.444  12.552  21.986  0.00  0.00    -0.300 N 
ATOM     16  C   UNL d   1     -44.907  12.851  21.366  0.00  0.00     0.100 A 
ATOM     17  C   UNL d   1     -45.645  13.153  21.518  0.00  0.00     0.101 A 
BRANCH  15  18
ATOM     18  C   UNL d   1     -43.685  12.238  21.850  0.00  0.00     0.080 C 
BRANCH  18  19
ATOM     19  C   UNL d   1     -43.097  12.719  21.527  0.00  0.00     0.018 A 
ATOM     20  C   UNL d   1     -42.502  13.030  22.011  0.00  0.00     0.002 A 
ATOM     21  C   UNL d   1     -41.917  13.512  21.674  0.00  0.00     0.000 A 
ATOM     22  C   UNL d   1     -41.934  13.672  20.878  0.00  0.00     0.000 A 
ATOM     23  C   UNL d   1     -42.519  13.365  20.408  0.00  0.00     0.000 A 
ATOM     24  C   UNL d   1     -43.107  12.884  20.732  0.00  0.00     0.002 A 
ENDBRANCH  18  19
ENDBRANCH  15  18
ENDBRANCH   3  12
BRANCH   5  25
ATOM     25  C   UNL d   1     -49.434  12.618  22.800  0.00  0.00     0.004 A 
ATOM     26  C   UNL d   1     -49.958  12.709  22.170  0.00  0.00     0.000 A 
ATOM     27  C   UNL d   1     -50.770  12.678  22.298  0.00  0.00     0.000 A 
ATOM     28  C   UNL d   1     -51.064  12.554  23.066  0.00  0.00     0.000 A 
ATOM     29  C   UNL d   1     -50.541  12.464  23.696  0.00  0.00     0.000 A 
ATOM     30  C   UNL d   1     -49.725  12.495  23.566  0.00  0.00     0.000 A 
ENDBRANCH   5  25
TORSDOF 4
ENDMDL
MODEL 3
REMARK VINA RESULT:      -4.3      0.981      5.845
REMARK  4 active torsions:
REMARK  status: ('A' for Active; 'I' for Inactive)
REMARK    1  A    between atoms: N_9  and  C_3 
REMARK    2  A    between atoms: C_12  and  C_5 
REMARK    3  A    between atoms: C_15  and  N_11 
REMARK    4  A    between atoms: C_19  and  C_15 
ROOT
ATOM      1  N   UNL d   1     -46.416  12.292  22.876  0.00  0.00    -0.196 N 
ATOM      2  C   UNL d   1     -45.599  12.202  22.813  0.00  0.00     0.167 A 
ATOM      3  C   UNL d   1     -46.776  12.985  22.616  0.00  0.00     0.152 A 
ATOM      4  N   UNL d   1     -46.718  11.611  23.213  0.00  0.00    -0.163 NA
ATOM      5  C   UNL d   1     -45.397  11.465  23.112  0.00  0.00     0.055 A 
ATOM      6  C   UNL d   1     -46.086  11.098  23.360  0.00  0.00     0.104 A 
ATOM      7  N   UNL d   1     -45.141  12.805  22.490  0.00  0.00    -0.227 NA
ATOM      8  C   UNL d   1     -46.317  13.595  22.290  0.00  0.00     0.057 A 
ATOM      9  C   UNL d   1     -45.500  13.505  22.227  0.00  0.00     0.086 A 
ATOM     10  C   UNL d   1     -46.140  10.347  23.697  0.00  0.00     0.023 C 
ATOM     11  C   UNL d   1     -45.030  14.110  21.902  0.00  0.00     0.021 C 
ENDROOT
BRANCH   3  12
ATOM     12  N   UNL d   1     -47.593  13.076  22.678  0.00  0.00    -0.286 N 
ATOM     13  C   UNL d   1     -48.085  12.794  22.091  0.00  0.00     0.101 A 
ATOM     14  C   UNL d   1     -48.906  12.887  22.158  0.00  0.00     0.100 A 
ATOM     15  N   UNL d   1     -49.220  13.253  22.799  0.00  0.00    -0.300 N 
ATOM     16  C   UNL d   1     -48.722  13.539  23.397  0.00  0.00     0.100 A 
ATOM     17  C   UNL d   1     -47.917  13.451  23.335  0.00  0.00     0.101 A 
BRANCH  15  18
ATOM     18  C   UNL d   1     -50.047  13.335  22.844  0.00  0.00     0.080 C 
BRANCH  18  19
ATOM     19  C   UNL d   1     -50.380  14.089  22.893  0.00  0.00     0.018 A 
ATOM     20  C   UNL d   1     -50.591  14.494  22.203  0.00  0.00     0.002 A 
ATOM     21  C   UNL d   1     -50.925  15.251  22.265  0.00  0.00     0.000 A 
ATOM     22  C   UNL d   1     -51.040  15.583  22.997  0.00  0.00     0.000 A 
ATOM     23  C   UNL d   1     -50.832  15.182  23.670  0.00  0.00     0.000 A 
ATOM     24  C   UNL d   1     -50.499  14.428  23.621  0.00  0.00     0.002 A 
ENDBRANCH  18  19
ENDBRANCH  15  18
ENDBRANCH   3  12
BRANCH   5  25
ATOM     25  C   UNL d   1     -44.673  11.075  23.193  0.00  0.00     0.004 A 
ATOM     26  C   UNL d   1     -43.991  11.391  22.854  0.00  0.00     0.000 A 
ATOM     27  C   UNL d   1     -43.271  11.003  22.934  0.00  0.00     0.000 A 
ATOM     28  C   UNL d   1     -43.228  10.290  23.359  0.00  0.00     0.000 A 
ATOM     29  C   UNL d   1     -43.910   9.973  23.698  0.00  0.00     0.000 A 
ATOM     30  C   UNL d   1     -44.634  10.364  23.617  0.00  0.00     0.000 A 
ENDBRANCH   5  25
TORSDOF 4
ENDMDL
MODEL 4
REMARK VINA RESULT:      -3.3      1.354      2.103
REMARK  4 active torsions:
REMARK  status: ('A' for Active; 'I' for Inactive)
REMARK    1  A    between atoms: N_9  and  C_3 
REMARK    2  A    between atoms: C_12  and  C_5 
REMARK    3  A    between atoms: C_15  and  N_11 
REMARK    4  A    between atoms: C_19  and  C_15 
ROOT
ATOM      1  N   UNL d   1     -47.277  13.058  22.499  0.00  0.00    -0.196 N 
ATOM      2  C   UNL d   1     -47.980  13.489  22.485  0.00  0.00     0.167 A 
ATOM      3  C   UNL d   1     -46.554  13.448  22.541  0.00  0.00     0.152 A 
ATOM      4  N   UNL d   1     -47.471  12.263  22.466  0.00  0.00    -0.163 NA
ATOM      5  C   UNL d   1     -48.606  12.961  22.443  0.00  0.00     0.055 A 
ATOM      6  C   UNL d   1     -48.295  12.203  22.431  0.00  0.00     0.104 A 
ATOM      7  N   UNL d   1     -47.959  14.311  22.513  0.00  0.00    -0.227 NA
ATOM      8  C   UNL d   1     -46.529  14.277  22.568  0.00  0.00     0.057 A 
ATOM      9  C   UNL d   1     -47.232  14.709  22.554  0.00  0.00     0.086 A 
ATOM     10  C   UNL d   1     -48.729  11.503  22.392  0.00  0.00     0.023 C 
ATOM     11  C   UNL d   1     -47.219  15.540  22.582  0.00  0.00     0.021 C 
ENDROOT
BRANCH   3  12
ATOM     12  N   UNL d   1     -45.851  13.016  22.555  0.00  0.00    -0.286 N 
ATOM     13  C   UNL d   1     -45.409  12.928  21.875  0.00  0.00     0.101 A 
ATOM     14  C   UNL d   1     -44.703  12.493  21.893  0.00  0.00     0.100 A 
ATOM     15  N   UNL d   1     -44.453  12.158  22.578  0.00  0.00    -0.300 N 
ATOM     16  C   UNL d   1     -44.901  12.248  23.270  0.00  0.00     0.100 A 
ATOM     17  C   UNL d   1     -45.593  12.673  23.256  0.00  0.00     0.101 A 
BRANCH  15  18
ATOM     18  C   UNL d   1     -43.741  11.726  22.572  0.00  0.00     0.080 C 
BRANCH  18  19
ATOM     19  C   UNL d   1     -43.707  10.992  22.949  0.00  0.00     0.018 A 
ATOM     20  C   UNL d   1     -44.367  10.493  22.946  0.00  0.00     0.002 A 
ATOM     21  C   UNL d   1     -44.320   9.759  23.328  0.00  0.00     0.000 A 
ATOM     22  C   UNL d   1     -43.631   9.539  23.698  0.00  0.00     0.000 A 
ATOM     23  C   UNL d   1     -42.987  10.032  23.698  0.00  0.00     0.000 A 
ATOM     24  C   UNL d   1     -43.022  10.766  23.321  0.00  0.00     0.002 A 
ENDBRANCH  18  19
ENDBRANCH  15  18
ENDBRANCH   3  12
BRANCH   5  25
ATOM     25  C   UNL d   1     -49.425  13.068  22.414  0.00  0.00     0.004 A 
ATOM     26  C   UNL d   1     -49.880  12.980  23.097  0.00  0.00     0.000 A 
ATOM     27  C   UNL d   1     -50.694  13.086  23.069  0.00  0.00     0.000 A 
ATOM     28  C   UNL d   1     -51.063  13.283  22.350  0.00  0.00     0.000 A 
ATOM     29  C   UNL d   1     -50.608  13.371  21.667  0.00  0.00     0.000 A 
ATOM     30  C   UNL d   1     -49.790  13.264  21.696  0.00  0.00     0.000 A 
ENDBRANCH   5  25
TORSDOF 4
ENDMDL
MODEL 5
REMARK VINA RESULT:      -3.3      8.466      9.694
REMARK  4 active torsions:
REMARK  status: ('A' for Active; 'I' for Inactive)
REMARK    1  A    between atoms: N_9  and  C_3 
REMARK    2  A    between atoms: C_12  and  C_5 
REMARK    3  A    between atoms: C_15  and  N_11 
REMARK    4  A    between atoms: C_19  and  C_15 
ROOT
ATOM      1  N   UNL d   1     -39.399  14.667  18.547  0.00  0.00    -0.196 N 
ATOM      2  C   UNL d   1     -39.597  14.719  17.748  0.00  0.00     0.167 A 
ATOM      3  C   UNL d   1     -38.745  14.227  18.782  0.00  0.00     0.152 A 
ATOM      4  N   UNL d   1     -39.946  15.105  18.970  0.00  0.00    -0.163 NA
ATOM      5  C   UNL d   1     -40.267  15.188  17.679  0.00  0.00     0.055 A 
ATOM      6  C   UNL d   1     -40.484  15.428  18.432  0.00  0.00     0.104 A 
ATOM      7  N   UNL d   1     -39.142  14.330  17.185  0.00  0.00    -0.227 NA
ATOM      8  C   UNL d   1     -38.283  13.833  18.216  0.00  0.00     0.057 A 
ATOM      9  C   UNL d   1     -38.481  13.885  17.417  0.00  0.00     0.086 A 
ATOM     10  C   UNL d   1     -41.128  15.909  18.619  0.00  0.00     0.023 C 
ATOM     11  C   UNL d   1     -38.025  13.494  16.841  0.00  0.00     0.021 C 
ENDROOT
BRANCH   3  12
ATOM     12  N   UNL d   1     -38.546  14.175  19.581  0.00  0.00    -0.286 N 
ATOM     13  C   UNL d   1     -38.142  14.783  19.945  0.00  0.00     0.101 A 
ATOM     14  C   UNL d   1     -37.944  14.728  20.748  0.00  0.00     0.100 A 
ATOM     15  N   UNL d   1     -38.149  14.077  21.170  0.00  0.00    -0.300 N 
ATOM     16  C   UNL d   1     -38.559  13.458  20.802  0.00  0.00     0.100 A 
ATOM     17  C   UNL d   1     -38.755  13.508  20.015  0.00  0.00     0.101 A 
BRANCH  15  18
ATOM     18  C   UNL d   1     -37.940  14.043  21.975  0.00  0.00     0.080 C 
BRANCH  18  19
ATOM     19  C   UNL d   1     -38.505  14.218  22.551  0.00  0.00     0.018 A 
ATOM     20  C   UNL d   1     -38.634  15.002  22.781  0.00  0.00     0.002 A 
ATOM     21  C   UNL d   1     -39.204  15.165  23.361  0.00  0.00     0.000 A 
ATOM     22  C   UNL d   1     -39.628  14.557  23.693  0.00  0.00     0.000 A 
ATOM     23  C   UNL d   1     -39.498  13.790  23.464  0.00  0.00     0.000 A 
ATOM     24  C   UNL d   1     -38.933  13.615  22.888  0.00  0.00     0.002 A 
ENDBRANCH  18  19
ENDBRANCH  15  18
ENDBRANCH   3  12
BRANCH   5  25
ATOM     25  C   UNL d   1     -40.712  15.432  17.027  0.00  0.00     0.004 A 
ATOM     26  C   UNL d   1     -41.535  15.432  17.063  0.00  0.00     0.000 A 
ATOM     27  C   UNL d   1     -41.979  15.675  16.414  0.00  0.00     0.000 A 
ATOM     28  C   UNL d   1     -41.596  15.921  15.719  0.00  0.00     0.000 A 
ATOM     29  C   UNL d   1     -40.772  15.922  15.682  0.00  0.00     0.000 A 
ATOM     30  C   UNL d   1     -40.327  15.678  16.334  0.00  0.00     0.000 A 
ENDBRANCH   5  25
TORSDOF 4
ENDMDL
MODEL 6
REMARK VINA RESULT:      -2.8      1.493      5.404
REMARK  4 active torsions:
REMARK  status: ('A' for Active; 'I' for Inactive)
REMARK    1  A    between atoms: N_9  and  C_3 
REMARK    2  A    between atoms: C_12  and  C_5 
REMARK    3  A    between atoms: C_15  and  N_11 
REMARK    4  A    between atoms: C_19  and  C_15 
ROOT
ATOM      1  N   UNL d   1     -45.596  12.248  22.692  0.00  0.00    -0.196 N 
ATOM      2  C   UNL d   1     -44.798  12.088  22.557  0.00  0.00     0.167 A 
ATOM      3  C   UNL d   1     -46.044  11.742  23.161  0.00  0.00     0.152 A 
ATOM      4  N   UNL d   1     -45.783  12.938  22.294  0.00  0.00    -0.163 NA
ATOM      5  C   UNL d   1     -44.494  12.679  22.076  0.00  0.00     0.055 A 
ATOM      6  C   UNL d   1     -45.100  13.205  21.912  0.00  0.00     0.104 A 
ATOM      7  N   UNL d   1     -44.449  11.421  22.891  0.00  0.00    -0.227 NA
ATOM      8  C   UNL d   1     -45.696  11.069  23.499  0.00  0.00     0.057 A 
ATOM      9  C   UNL d   1     -44.899  10.909  23.364  0.00  0.00     0.086 A 
ATOM     10  C   UNL d   1     -45.038  13.883  21.447  0.00  0.00     0.023 C 
ATOM     11  C   UNL d   1     -44.539  10.237  23.698  0.00  0.00     0.021 C 
ENDROOT
BRANCH   3  12
ATOM     12  N   UNL d   1     -46.842  11.902  23.295  0.00  0.00    -0.286 N 
ATOM     13  C   UNL d   1     -47.406  11.328  23.163  0.00  0.00     0.101 A 
ATOM     14  C   UNL d   1     -48.207  11.493  23.299  0.00  0.00     0.100 A 
ATOM     15  N   UNL d   1     -48.431  12.217  23.562  0.00  0.00    -0.300 N 
ATOM     16  C   UNL d   1     -47.859  12.802  23.698  0.00  0.00     0.100 A 
ATOM     17  C   UNL d   1     -47.073  12.644  23.565  0.00  0.00     0.101 A 
BRANCH  15  18
ATOM     18  C   UNL d   1     -49.240  12.360  23.693  0.00  0.00     0.080 C 
BRANCH  18  19
ATOM     19  C   UNL d   1     -49.686  12.738  23.110  0.00  0.00     0.018 A 
ATOM     20  C   UNL d   1     -49.983  12.308  22.469  0.00  0.00     0.002 A 
ATOM     21  C   UNL d   1     -50.430  12.699  21.891  0.00  0.00     0.000 A 
ATOM     22  C   UNL d   1     -50.570  13.496  21.959  0.00  0.00     0.000 A 
ATOM     23  C   UNL d   1     -50.277  13.914  22.589  0.00  0.00     0.000 A 
ATOM     24  C   UNL d   1     -49.831  13.535  23.172  0.00  0.00     0.002 A 
ENDBRANCH  18  19
ENDBRANCH  15  18
ENDBRANCH   3  12
BRANCH   5  25
ATOM     25  C   UNL d   1     -43.741  12.810  21.762  0.00  0.00     0.004 A 
ATOM     26  C   UNL d   1     -43.602  12.700  20.957  0.00  0.00     0.000 A 
ATOM     27  C   UNL d   1     -42.852  12.831  20.644  0.00  0.00     0.000 A 
ATOM     28  C   UNL d   1     -42.232  13.075  21.141  0.00  0.00     0.000 A 
ATOM     29  C   UNL d   1     -42.371  13.186  21.946  0.00  0.00     0.000 A 
ATOM     30  C   UNL d   1     -43.124  13.054  22.260  0.00  0.00     0.000 A 
ENDBRANCH   5  25
TORSDOF 4
ENDMDL
