MODEL 1
REMARK VINA RESULT:      -6.6      0.000      0.000
REMARK  2 active torsions:
REMARK  status: ('A' for Active; 'I' for Inactive)
REMARK    1  A    between atoms: C_7  and  C_1 
REMARK    2  A    between atoms: O_14  and  C_11 
ROOT
ATOM      1  C   UNL d   1     -41.582-122.352 -53.809  0.00  0.00     0.066 A 
ATOM      2  C   UNL d   1     -41.556-123.091 -53.382  0.00  0.00     0.200 A 
ATOM      3  C   UNL d   1     -41.449-123.080 -52.565  0.00  0.00     0.062 A 
ATOM      4  C   UNL d   1     -41.501-121.639 -53.401  0.00  0.00     0.126 A 
ATOM      5  C   UNL d   1     -41.368-122.367 -52.156  0.00  0.00     0.106 A 
ATOM      6  O   UNL d   1     -41.391-121.645 -52.554  0.00  0.00    -0.305 OA
ATOM      7  C   UNL d   1     -41.424-123.813 -52.148  0.00  0.00     0.009 A 
ATOM      8  C   UNL d   1     -41.259-122.367 -51.320  0.00  0.00     0.067 A 
ATOM      9  O   UNL d   1     -41.639-123.817 -53.798  0.00  0.00    -0.286 OA
ATOM     10  C   UNL d   1     -41.234-123.102 -50.900  0.00  0.00     0.198 A 
ATOM     11  C   UNL d   1     -41.315-123.815 -51.308  0.00  0.00     0.042 A 
ATOM     12  O   UNL d   1     -41.125-123.104 -50.061  0.00  0.00    -0.286 OA
ENDROOT
BRANCH   1  13
ATOM     13  C   UNL d   1     -41.657-122.351 -54.386  0.00  0.00     0.027 A 
ATOM     14  C   UNL d   1     -42.113-122.088 -54.618  0.00  0.00     0.094 A 
ATOM     15  C   UNL d   1     -42.194-122.083 -55.192  0.00  0.00     0.024 A 
ATOM     16  C   UNL d   1     -41.802-122.352 -55.531  0.00  0.00     0.002 A 
ATOM     17  C   UNL d   1     -41.345-122.615 -55.299  0.00  0.00     0.000 A 
ATOM     18  C   UNL d   1     -41.270-122.616 -54.722  0.00  0.00     0.002 A 
BRANCH  14  19
ATOM     19  O   UNL d   1     -42.507-121.818 -54.273  0.00  0.00    -0.328 OA
ATOM     20  C   UNL d   1     -42.952-121.533 -54.507  0.00  0.00     0.181 C 
ENDBRANCH  14  19
ENDBRANCH   1  13
TORSDOF 2
ENDMDL
MODEL 2
REMARK VINA RESULT:      -5.5      0.993      3.413
REMARK  2 active torsions:
REMARK  status: ('A' for Active; 'I' for Inactive)
REMARK    1  A    between atoms: C_7  and  C_1 
REMARK    2  A    between atoms: O_14  and  C_11 
ROOT
ATOM      1  C   UNL d   1     -41.566-122.418 -51.549  0.00  0.00     0.066 A 
ATOM      2  C   UNL d   1     -41.499-123.004 -52.166  0.00  0.00     0.200 A 
ATOM      3  C   UNL d   1     -41.496-122.761 -52.954  0.00  0.00     0.062 A 
ATOM      4  C   UNL d   1     -41.628-121.618 -51.747  0.00  0.00     0.126 A 
ATOM      5  C   UNL d   1     -41.558-121.961 -53.152  0.00  0.00     0.106 A 
ATOM      6  O   UNL d   1     -41.624-121.383 -52.568  0.00  0.00    -0.305 OA
ATOM      7  C   UNL d   1     -41.429-123.344 -53.559  0.00  0.00     0.009 A 
ATOM      8  C   UNL d   1     -41.554-121.724 -53.961  0.00  0.00     0.067 A 
ATOM      9  O   UNL d   1     -41.435-123.818 -51.964  0.00  0.00    -0.286 OA
ATOM     10  C   UNL d   1     -41.487-122.308 -54.571  0.00  0.00     0.198 A 
ATOM     11  C   UNL d   1     -41.425-123.107 -54.372  0.00  0.00     0.042 A 
ATOM     12  O   UNL d   1     -41.483-122.071 -55.383  0.00  0.00    -0.286 OA
ENDROOT
BRANCH   1  13
ATOM     13  C   UNL d   1     -41.569-122.581 -50.990  0.00  0.00     0.027 A 
ATOM     14  C   UNL d   1     -42.014-122.445 -50.651  0.00  0.00     0.094 A 
ATOM     15  C   UNL d   1     -42.023-122.604 -50.095  0.00  0.00     0.024 A 
ATOM     16  C   UNL d   1     -41.570-122.907 -49.883  0.00  0.00     0.002 A 
ATOM     17  C   UNL d   1     -41.125-123.043 -50.223  0.00  0.00     0.000 A 
ATOM     18  C   UNL d   1     -41.123-122.879 -50.781  0.00  0.00     0.002 A 
BRANCH  14  19
ATOM     19  O   UNL d   1     -42.470-122.140 -50.867  0.00  0.00    -0.328 OA
ATOM     20  C   UNL d   1     -42.906-121.986 -50.523  0.00  0.00     0.181 C 
ENDBRANCH  14  19
ENDBRANCH   1  13
TORSDOF 2
ENDMDL
MODEL 3
REMARK VINA RESULT:      -5.3      1.632      2.843
REMARK  2 active torsions:
REMARK  status: ('A' for Active; 'I' for Inactive)
REMARK    1  A    between atoms: C_7  and  C_1 
REMARK    2  A    between atoms: O_14  and  C_11 
ROOT
ATOM      1  C   UNL d   1     -41.505-122.771 -51.365  0.00  0.00     0.066 A 
ATOM      2  C   UNL d   1     -42.088-122.407 -50.858  0.00  0.00     0.200 A 
ATOM      3  C   UNL d   1     -42.261-122.754 -50.131  0.00  0.00     0.062 A 
ATOM      4  C   UNL d   1     -41.123-123.462 -51.122  0.00  0.00     0.126 A 
ATOM      5  C   UNL d   1     -41.880-123.445 -49.887  0.00  0.00     0.106 A 
ATOM      6  O   UNL d   1     -41.315-123.808 -50.365  0.00  0.00    -0.305 OA
ATOM      7  C   UNL d   1     -42.838-122.391 -49.634  0.00  0.00     0.009 A 
ATOM      8  C   UNL d   1     -42.065-123.791 -49.141  0.00  0.00     0.067 A 
ATOM      9  O   UNL d   1     -42.476-121.704 -51.106  0.00  0.00    -0.286 OA
ATOM     10  C   UNL d   1     -42.644-123.428 -48.641  0.00  0.00     0.198 A 
ATOM     11  C   UNL d   1     -43.025-122.737 -48.884  0.00  0.00     0.042 A 
ATOM     12  O   UNL d   1     -42.831-123.774 -47.892  0.00  0.00    -0.286 OA
ENDROOT
BRANCH   1  13
ATOM     13  C   UNL d   1     -41.377-122.532 -51.880  0.00  0.00     0.027 A 
ATOM     14  C   UNL d   1     -41.354-122.860 -52.353  0.00  0.00     0.094 A 
ATOM     15  C   UNL d   1     -41.227-122.629 -52.868  0.00  0.00     0.024 A 
ATOM     16  C   UNL d   1     -41.123-122.056 -52.900  0.00  0.00     0.002 A 
ATOM     17  C   UNL d   1     -41.145-121.728 -52.427  0.00  0.00     0.000 A 
ATOM     18  C   UNL d   1     -41.273-121.966 -51.912  0.00  0.00     0.002 A 
BRANCH  14  19
ATOM     19  O   UNL d   1     -41.460-123.439 -52.318  0.00  0.00    -0.328 OA
ATOM     20  C   UNL d   1     -41.527-123.751 -52.799  0.00  0.00     0.181 C 
ENDBRANCH  14  19
ENDBRANCH   1  13
TORSDOF 2
ENDMDL
MODEL 4
REMARK VINA RESULT:      -5.1      1.324      3.911
REMARK  2 active torsions:
REMARK  status: ('A' for Active; 'I' for Inactive)
REMARK    1  A    between atoms: C_7  and  C_1 
REMARK    2  A    between atoms: O_14  and  C_11 
ROOT
ATOM      1  C   UNL d   1     -41.852-122.608 -50.513  0.00  0.00     0.066 A 
ATOM      2  C   UNL d   1     -41.484-123.088 -51.116  0.00  0.00     0.200 A 
ATOM      3  C   UNL d   1     -41.489-122.826 -51.898  0.00  0.00     0.062 A 
ATOM      4  C   UNL d   1     -42.207-121.891 -50.719  0.00  0.00     0.126 A 
ATOM      5  C   UNL d   1     -41.844-122.110 -52.104  0.00  0.00     0.106 A 
ATOM      6  O   UNL d   1     -42.203-121.635 -51.533  0.00  0.00    -0.305 OA
ATOM      7  C   UNL d   1     -41.124-123.304 -52.489  0.00  0.00     0.009 A 
ATOM      8  C   UNL d   1     -41.843-121.852 -52.907  0.00  0.00     0.067 A 
ATOM      9  O   UNL d   1     -41.123-123.817 -50.906  0.00  0.00    -0.286 OA
ATOM     10  C   UNL d   1     -41.478-122.330 -53.502  0.00  0.00     0.198 A 
ATOM     11  C   UNL d   1     -41.123-123.047 -53.296  0.00  0.00     0.042 A 
ATOM     12  O   UNL d   1     -41.476-122.073 -54.307  0.00  0.00    -0.286 OA
ENDROOT
BRANCH   1  13
ATOM     13  C   UNL d   1     -41.852-122.785 -49.959  0.00  0.00     0.027 A 
ATOM     14  C   UNL d   1     -42.349-122.830 -49.670  0.00  0.00     0.094 A 
ATOM     15  C   UNL d   1     -42.357-123.006 -49.119  0.00  0.00     0.024 A 
ATOM     16  C   UNL d   1     -41.850-123.138 -48.860  0.00  0.00     0.002 A 
ATOM     17  C   UNL d   1     -41.353-123.093 -49.149  0.00  0.00     0.000 A 
ATOM     18  C   UNL d   1     -41.353-122.915 -49.703  0.00  0.00     0.002 A 
BRANCH  14  19
ATOM     19  O   UNL d   1     -42.859-122.697 -49.934  0.00  0.00    -0.328 OA
ATOM     20  C   UNL d   1     -43.354-122.720 -49.638  0.00  0.00     0.181 C 
ENDBRANCH  14  19
ENDBRANCH   1  13
TORSDOF 2
ENDMDL
MODEL 5
REMARK VINA RESULT:      -4.8      1.342      4.120
REMARK  2 active torsions:
REMARK  status: ('A' for Active; 'I' for Inactive)
REMARK    1  A    between atoms: C_7  and  C_1 
REMARK    2  A    between atoms: O_14  and  C_11 
ROOT
ATOM      1  C   UNL d   1     -41.591-123.119 -50.465  0.00  0.00     0.066 A 
ATOM      2  C   UNL d   1     -41.404-122.398 -50.882  0.00  0.00     0.200 A 
ATOM      3  C   UNL d   1     -41.358-122.409 -51.705  0.00  0.00     0.062 A 
ATOM      4  C   UNL d   1     -41.725-123.816 -50.889  0.00  0.00     0.126 A 
ATOM      5  C   UNL d   1     -41.492-123.105 -52.129  0.00  0.00     0.106 A 
ATOM      6  O   UNL d   1     -41.674-123.810 -51.741  0.00  0.00    -0.305 OA
ATOM      7  C   UNL d   1     -41.173-121.694 -52.112  0.00  0.00     0.009 A 
ATOM      8  C   UNL d   1     -41.443-123.105 -52.971  0.00  0.00     0.067 A 
ATOM      9  O   UNL d   1     -41.268-121.689 -50.451  0.00  0.00    -0.286 OA
ATOM     10  C   UNL d   1     -41.257-122.388 -53.381  0.00  0.00     0.198 A 
ATOM     11  C   UNL d   1     -41.123-121.692 -52.958  0.00  0.00     0.042 A 
ATOM     12  O   UNL d   1     -41.208-122.387 -54.226  0.00  0.00    -0.286 OA
ENDROOT
BRANCH   1  13
ATOM     13  C   UNL d   1     -41.625-123.120 -49.885  0.00  0.00     0.027 A 
ATOM     14  C   UNL d   1     -42.132-123.203 -49.624  0.00  0.00     0.094 A 
ATOM     15  C   UNL d   1     -42.173-123.205 -49.047  0.00  0.00     0.024 A 
ATOM     16  C   UNL d   1     -41.688-123.120 -48.732  0.00  0.00     0.002 A 
ATOM     17  C   UNL d   1     -41.181-123.037 -48.992  0.00  0.00     0.000 A 
ATOM     18  C   UNL d   1     -41.147-123.037 -49.573  0.00  0.00     0.002 A 
BRANCH  14  19
ATOM     19  O   UNL d   1     -42.620-123.288 -49.944  0.00  0.00    -0.328 OA
ATOM     20  C   UNL d   1     -43.127-123.378 -49.684  0.00  0.00     0.181 C 
ENDBRANCH  14  19
ENDBRANCH   1  13
TORSDOF 2
ENDMDL
