MODEL 1
REMARK VINA RESULT:     -10.7      0.000      0.000
REMARK  5 active torsions:
REMARK  status: ('A' for Active; 'I' for Inactive)
REMARK    1  A    between atoms: C_3  and  C_1 
REMARK    2  A    between atoms: C_6  and  C_9 
REMARK    3  A    between atoms: C_7  and  C_12 
REMARK    4  A    between atoms: C_9  and  C_11 
REMARK       I    between atoms: C_11  and  N_16 
REMARK    5  A    between atoms: N_16  and  C_18 
ROOT
ATOM      1  N   UNL d   1      53.834  31.591  54.097  0.00  0.00    -0.207 NA
ATOM      2  C   UNL d   1      53.624  32.288  53.684  0.00  0.00     0.285 A 
ATOM      3  S   UNL d   1      52.644  31.543  52.933  0.00  0.00    -0.080 SA
ATOM      4  C   UNL d   1      53.032  32.265  53.105  0.00  0.00     0.092 A 
ATOM      5  C   UNL d   1      53.447  30.880  53.922  0.00  0.00     0.090 A 
ATOM      6  C   UNL d   1      52.855  30.853  53.344  0.00  0.00     0.047 A 
ATOM      7  C   UNL d   1      53.272  29.484  54.158  0.00  0.00     0.073 A 
ATOM      8  C   UNL d   1      53.656  30.193  54.330  0.00  0.00     0.024 A 
ATOM      9  O   UNL d   1      54.003  32.998  53.850  0.00  0.00    -0.265 OA
ATOM     10  C   UNL d   1      52.472  30.146  53.172  0.00  0.00     0.008 A 
ATOM     11  C   UNL d   1      52.680  29.460  53.579  0.00  0.00     0.004 A 
ENDROOT
BRANCH   4  12
ATOM     12  C   UNL d   1      52.820  32.940  52.697  0.00  0.00     0.074 C 
BRANCH  12  13
ATOM     13  C   UNL d   1      52.061  33.265  52.803  0.00  0.00     0.280 C 
ATOM     14  N   UNL d   1      51.803  33.886  52.321  0.00  0.00    -0.208 NA
ATOM     15  O   UNL d   1      51.716  33.068  53.201  0.00  0.00    -0.265 OA
BRANCH  14  16
ATOM     16  C   UNL d   1      51.050  34.202  52.433  0.00  0.00     0.085 A 
ATOM     17  C   UNL d   1      50.502  34.174  51.821  0.00  0.00     0.024 A 
ATOM     18  C   UNL d   1      49.749  34.490  51.933  0.00  0.00     0.084 A 
ATOM     19  C   UNL d   1      49.547  34.832  52.655  0.00  0.00     0.062 A 
ATOM     20  C   UNL d   1      50.106  34.857  53.268  0.00  0.00     0.013 A 
ATOM     21 CL   UNL d   1      48.806  35.142  52.764  0.00  0.00    -0.082 Cl
ATOM     22  C   UNL d   1      50.852  34.544  53.157  0.00  0.00     0.020 A 
BRANCH  18  23
ATOM     23  C   UNL d   1      49.207  34.462  51.331  0.00  0.00     0.420 C 
ATOM     24  F   UNL d   1      48.706  34.434  50.779  0.00  0.00    -0.166 F 
ATOM     25  F   UNL d   1      48.583  33.904  51.196  0.00  0.00    -0.166 F 
ATOM     26  F   UNL d   1      49.113  34.984  50.672  0.00  0.00    -0.166 F 
ENDBRANCH  18  23
ENDBRANCH  14  16
ENDBRANCH  12  13
ENDBRANCH   4  12
BRANCH   7  27
ATOM     27  C   UNL d   1      53.476  28.809  54.558  0.00  0.00     0.419 C 
ATOM     28  F   UNL d   1      53.911  28.135  54.288  0.00  0.00    -0.166 F 
ATOM     29  F   UNL d   1      53.311  28.589  55.367  0.00  0.00    -0.166 F 
ATOM     30  F   UNL d   1      53.666  28.187  54.925  0.00  0.00    -0.166 F 
ENDBRANCH   7  27
TORSDOF 5
ENDMDL
MODEL 2
REMARK VINA RESULT:      -9.8      1.035      1.301
REMARK  5 active torsions:
REMARK  status: ('A' for Active; 'I' for Inactive)
REMARK    1  A    between atoms: C_3  and  C_1 
REMARK    2  A    between atoms: C_6  and  C_9 
REMARK    3  A    between atoms: C_7  and  C_12 
REMARK    4  A    between atoms: C_9  and  C_11 
REMARK       I    between atoms: C_11  and  N_16 
REMARK    5  A    between atoms: N_16  and  C_18 
ROOT
ATOM      1  N   UNL d   1      53.498  31.976  54.347  0.00  0.00    -0.207 NA
ATOM      2  C   UNL d   1      53.286  32.697  53.979  0.00  0.00     0.285 A 
ATOM      3  S   UNL d   1      52.647  31.961  52.916  0.00  0.00    -0.080 SA
ATOM      4  C   UNL d   1      52.863  32.690  53.267  0.00  0.00     0.092 A 
ATOM      5  C   UNL d   1      53.282  31.258  53.995  0.00  0.00     0.090 A 
ATOM      6  C   UNL d   1      52.859  31.247  53.284  0.00  0.00     0.047 A 
ATOM      7  C   UNL d   1      53.279  29.831  54.012  0.00  0.00     0.073 A 
ATOM      8  C   UNL d   1      53.493  30.548  54.360  0.00  0.00     0.024 A 
ATOM      9  O   UNL d   1      53.496  33.415  54.320  0.00  0.00    -0.265 OA
ATOM     10  C   UNL d   1      52.646  30.534  52.936  0.00  0.00     0.008 A 
ATOM     11  C   UNL d   1      52.856  29.824  53.300  0.00  0.00     0.004 A 
ENDROOT
BRANCH   4  12
ATOM     12  C   UNL d   1      52.651  33.388  52.900  0.00  0.00     0.074 C 
BRANCH  12  13
ATOM     13  C   UNL d   1      51.854  33.524  52.697  0.00  0.00     0.280 C 
ATOM     14  N   UNL d   1      51.606  34.279  52.469  0.00  0.00    -0.208 NA
ATOM     15  O   UNL d   1      51.478  33.106  52.714  0.00  0.00    -0.265 OA
BRANCH  14  16
ATOM     16  C   UNL d   1      50.815  34.404  52.270  0.00  0.00     0.085 A 
ATOM     17  C   UNL d   1      50.324  34.805  52.793  0.00  0.00     0.024 A 
ATOM     18  C   UNL d   1      49.534  34.930  52.594  0.00  0.00     0.084 A 
ATOM     19  C   UNL d   1      49.239  34.654  51.876  0.00  0.00     0.062 A 
ATOM     20  C   UNL d   1      49.742  34.250  51.354  0.00  0.00     0.013 A 
ATOM     21 CL   UNL d   1      48.461  34.777  51.682  0.00  0.00    -0.082 Cl
ATOM     22  C   UNL d   1      50.524  34.126  51.551  0.00  0.00     0.020 A 
BRANCH  18  23
ATOM     23  C   UNL d   1      49.046  35.325  53.108  0.00  0.00     0.420 C 
ATOM     24  F   UNL d   1      48.599  35.693  53.578  0.00  0.00    -0.166 F 
ATOM     25  F   UNL d   1      48.795  36.135  53.092  0.00  0.00    -0.166 F 
ATOM     26  F   UNL d   1      48.655  35.040  53.801  0.00  0.00    -0.166 F 
ENDBRANCH  18  23
ENDBRANCH  14  16
ENDBRANCH  12  13
ENDBRANCH   4  12
BRANCH   7  27
ATOM     27  C   UNL d   1      53.485  29.134  54.369  0.00  0.00     0.419 C 
ATOM     28  F   UNL d   1      53.051  28.667  54.927  0.00  0.00    -0.166 F 
ATOM     29  F   UNL d   1      54.199  28.673  54.284  0.00  0.00    -0.166 F 
ATOM     30  F   UNL d   1      53.673  28.492  54.700  0.00  0.00    -0.166 F 
ENDBRANCH   7  27
TORSDOF 5
ENDMDL
MODEL 3
REMARK VINA RESULT:      -9.8      2.567      3.112
REMARK  5 active torsions:
REMARK  status: ('A' for Active; 'I' for Inactive)
REMARK    1  A    between atoms: C_3  and  C_1 
REMARK    2  A    between atoms: C_6  and  C_9 
REMARK    3  A    between atoms: C_7  and  C_12 
REMARK    4  A    between atoms: C_9  and  C_11 
REMARK       I    between atoms: C_11  and  N_16 
REMARK    5  A    between atoms: N_16  and  C_18 
ROOT
ATOM      1  N   UNL d   1      52.797  32.651  53.382  0.00  0.00    -0.207 NA
ATOM      2  C   UNL d   1      52.147  32.802  52.877  0.00  0.00     0.285 A 
ATOM      3  S   UNL d   1      52.182  34.193  53.255  0.00  0.00    -0.080 SA
ATOM      4  C   UNL d   1      51.841  33.569  52.813  0.00  0.00     0.092 A 
ATOM      5  C   UNL d   1      53.130  33.273  53.816  0.00  0.00     0.090 A 
ATOM      6  C   UNL d   1      52.827  34.041  53.756  0.00  0.00     0.047 A 
ATOM      7  C   UNL d   1      54.106  33.739  54.748  0.00  0.00     0.073 A 
ATOM      8  C   UNL d   1      53.772  33.122  54.314  0.00  0.00     0.024 A 
ATOM      9  O   UNL d   1      51.810  32.192  52.442  0.00  0.00    -0.265 OA
ATOM     10  C   UNL d   1      53.159  34.656  54.187  0.00  0.00     0.008 A 
ATOM     11  C   UNL d   1      53.799  34.506  54.685  0.00  0.00     0.004 A 
ENDROOT
BRANCH   4  12
ATOM     12  C   UNL d   1      51.207  33.727  52.323  0.00  0.00     0.074 C 
BRANCH  12  13
ATOM     13  C   UNL d   1      50.535  34.114  52.628  0.00  0.00     0.280 C 
ATOM     14  N   UNL d   1      50.092  34.619  52.146  0.00  0.00    -0.208 NA
ATOM     15  O   UNL d   1      50.375  34.036  53.162  0.00  0.00    -0.265 OA
BRANCH  14  16
ATOM     16  C   UNL d   1      49.428  34.998  52.456  0.00  0.00     0.085 A 
ATOM     17  C   UNL d   1      48.778  35.137  51.974  0.00  0.00     0.024 A 
ATOM     18  C   UNL d   1      48.114  35.516  52.284  0.00  0.00     0.084 A 
ATOM     19  C   UNL d   1      48.104  35.753  53.073  0.00  0.00     0.062 A 
ATOM     20  C   UNL d   1      48.765  35.609  53.553  0.00  0.00     0.013 A 
ATOM     21 CL   UNL d   1      47.451  36.126  53.377  0.00  0.00    -0.082 Cl
ATOM     22  C   UNL d   1      49.422  35.234  53.246  0.00  0.00     0.020 A 
BRANCH  18  23
ATOM     23  C   UNL d   1      47.471  35.654  51.810  0.00  0.00     0.420 C 
ATOM     24  F   UNL d   1      46.877  35.778  51.376  0.00  0.00    -0.166 F 
ATOM     25  F   UNL d   1      46.784  35.174  51.685  0.00  0.00    -0.166 F 
ATOM     26  F   UNL d   1      47.307  36.316  51.310  0.00  0.00    -0.166 F 
ENDBRANCH  18  23
ENDBRANCH  14  16
ENDBRANCH  12  13
ENDBRANCH   4  12
BRANCH   7  27
ATOM     27  C   UNL d   1      54.735  33.591  55.237  0.00  0.00     0.419 C 
ATOM     28  F   UNL d   1      54.754  33.187  55.981  0.00  0.00    -0.166 F 
ATOM     29  F   UNL d   1      55.557  33.801  55.139  0.00  0.00    -0.166 F 
ATOM     30  F   UNL d   1      55.313  33.454  55.688  0.00  0.00    -0.166 F 
ENDBRANCH   7  27
TORSDOF 5
ENDMDL
MODEL 4
REMARK VINA RESULT:      -8.3      1.959      5.766
REMARK  5 active torsions:
REMARK  status: ('A' for Active; 'I' for Inactive)
REMARK    1  A    between atoms: C_3  and  C_1 
REMARK    2  A    between atoms: C_6  and  C_9 
REMARK    3  A    between atoms: C_7  and  C_12 
REMARK    4  A    between atoms: C_9  and  C_11 
REMARK       I    between atoms: C_11  and  N_16 
REMARK    5  A    between atoms: N_16  and  C_18 
ROOT
ATOM      1  N   UNL d   1      50.438  35.129  53.285  0.00  0.00    -0.207 NA
ATOM      2  C   UNL d   1      51.226  34.865  53.392  0.00  0.00     0.285 A 
ATOM      3  S   UNL d   1      51.131  34.101  52.173  0.00  0.00    -0.080 SA
ATOM      4  C   UNL d   1      51.570  34.354  52.840  0.00  0.00     0.092 A 
ATOM      5  C   UNL d   1      50.009  34.876  52.624  0.00  0.00     0.090 A 
ATOM      6  C   UNL d   1      50.350  34.365  52.069  0.00  0.00     0.047 A 
ATOM      7  C   UNL d   1      48.802  34.887  51.863  0.00  0.00     0.073 A 
ATOM      8  C   UNL d   1      49.233  35.138  52.520  0.00  0.00     0.024 A 
ATOM      9  O   UNL d   1      51.660  35.111  54.045  0.00  0.00    -0.265 OA
ATOM     10  C   UNL d   1      49.922  34.115  51.414  0.00  0.00     0.008 A 
ATOM     11  C   UNL d   1      49.147  34.376  51.310  0.00  0.00     0.004 A 
ENDROOT
BRANCH   4  12
ATOM     12  C   UNL d   1      52.338  34.090  52.935  0.00  0.00     0.074 C 
BRANCH  12  13
ATOM     13  C   UNL d   1      52.478  33.331  53.248  0.00  0.00     0.280 C 
ATOM     14  N   UNL d   1      53.118  32.882  52.979  0.00  0.00    -0.208 NA
ATOM     15  O   UNL d   1      52.141  33.116  53.644  0.00  0.00    -0.265 OA
BRANCH  14  16
ATOM     16  C   UNL d   1      53.250  32.132  53.294  0.00  0.00     0.085 A 
ATOM     17  C   UNL d   1      52.919  31.474  52.930  0.00  0.00     0.024 A 
ATOM     18  C   UNL d   1      53.050  30.724  53.245  0.00  0.00     0.084 A 
ATOM     19  C   UNL d   1      53.511  30.635  53.923  0.00  0.00     0.062 A 
ATOM     20  C   UNL d   1      53.841  31.304  54.285  0.00  0.00     0.013 A 
ATOM     21 CL   UNL d   1      53.639  29.896  54.232  0.00  0.00    -0.082 Cl
ATOM     22  C   UNL d   1      53.711  32.047  53.972  0.00  0.00     0.020 A 
BRANCH  18  23
ATOM     23  C   UNL d   1      52.725  30.073  52.887  0.00  0.00     0.420 C 
ATOM     24  F   UNL d   1      52.429  29.475  52.555  0.00  0.00    -0.166 F 
ATOM     25  F   UNL d   1      52.992  29.647  52.205  0.00  0.00    -0.166 F 
ATOM     26  F   UNL d   1      52.029  29.640  53.095  0.00  0.00    -0.166 F 
ENDBRANCH  18  23
ENDBRANCH  14  16
ENDBRANCH  12  13
ENDBRANCH   4  12
BRANCH   7  27
ATOM     27  C   UNL d   1      48.040  35.144  51.760  0.00  0.00     0.419 C 
ATOM     28  F   UNL d   1      47.755  35.837  51.367  0.00  0.00    -0.166 F 
ATOM     29  F   UNL d   1      47.309  34.786  52.021  0.00  0.00    -0.166 F 
ATOM     30  F   UNL d   1      47.340  35.382  51.665  0.00  0.00    -0.166 F 
ENDBRANCH   7  27
TORSDOF 5
ENDMDL
MODEL 5
REMARK VINA RESULT:      -8.2      2.880      6.407
REMARK  5 active torsions:
REMARK  status: ('A' for Active; 'I' for Inactive)
REMARK    1  A    between atoms: C_3  and  C_1 
REMARK    2  A    between atoms: C_6  and  C_9 
REMARK    3  A    between atoms: C_7  and  C_12 
REMARK    4  A    between atoms: C_9  and  C_11 
REMARK       I    between atoms: C_11  and  N_16 
REMARK    5  A    between atoms: N_16  and  C_18 
ROOT
ATOM      1  N   UNL d   1      48.613  34.859  51.502  0.00  0.00    -0.207 NA
ATOM      2  C   UNL d   1      49.359  34.486  51.427  0.00  0.00     0.285 A 
ATOM      3  S   UNL d   1      49.694  34.893  52.769  0.00  0.00    -0.080 SA
ATOM      4  C   UNL d   1      49.896  34.503  52.057  0.00  0.00     0.092 A 
ATOM      5  C   UNL d   1      48.419  35.244  52.209  0.00  0.00     0.090 A 
ATOM      6  C   UNL d   1      48.953  35.262  52.841  0.00  0.00     0.047 A 
ATOM      7  C   UNL d   1      47.486  35.995  52.985  0.00  0.00     0.073 A 
ATOM      8  C   UNL d   1      47.682  35.611  52.281  0.00  0.00     0.024 A 
ATOM      9  O   UNL d   1      49.562  34.102  50.729  0.00  0.00    -0.265 OA
ATOM     10  C   UNL d   1      48.757  35.645  53.542  0.00  0.00     0.008 A 
ATOM     11  C   UNL d   1      48.023  36.012  53.615  0.00  0.00     0.004 A 
ENDROOT
BRANCH   4  12
ATOM     12  C   UNL d   1      50.627  34.142  51.993  0.00  0.00     0.074 C 
BRANCH  12  13
ATOM     13  C   UNL d   1      51.140  34.129  52.649  0.00  0.00     0.280 C 
ATOM     14  N   UNL d   1      51.944  34.298  52.551  0.00  0.00    -0.208 NA
ATOM     15  O   UNL d   1      50.947  34.006  53.163  0.00  0.00    -0.265 OA
BRANCH  14  16
ATOM     16  C   UNL d   1      52.444  34.283  53.206  0.00  0.00     0.085 A 
ATOM     17  C   UNL d   1      52.862  33.598  53.382  0.00  0.00     0.024 A 
ATOM     18  C   UNL d   1      53.363  33.583  54.037  0.00  0.00     0.084 A 
ATOM     19  C   UNL d   1      53.443  34.251  54.512  0.00  0.00     0.062 A 
ATOM     20  C   UNL d   1      53.018  34.939  54.327  0.00  0.00     0.013 A 
ATOM     21 CL   UNL d   1      53.936  34.235  55.156  0.00  0.00    -0.082 Cl
ATOM     22  C   UNL d   1      52.522  34.954  53.679  0.00  0.00     0.020 A 
BRANCH  18  23
ATOM     23  C   UNL d   1      53.776  32.908  54.213  0.00  0.00     0.420 C 
ATOM     24  F   UNL d   1      54.154  32.287  54.378  0.00  0.00    -0.166 F 
ATOM     25  F   UNL d   1      53.678  32.373  54.864  0.00  0.00    -0.166 F 
ATOM     26  F   UNL d   1      54.420  32.551  53.796  0.00  0.00    -0.166 F 
ENDBRANCH  18  23
ENDBRANCH  14  16
ENDBRANCH  12  13
ENDBRANCH   4  12
BRANCH   7  27
ATOM     27  C   UNL d   1      46.763  36.356  53.056  0.00  0.00     0.419 C 
ATOM     28  F   UNL d   1      46.278  36.709  52.459  0.00  0.00    -0.166 F 
ATOM     29  F   UNL d   1      46.288  36.481  53.755  0.00  0.00    -0.166 F 
ATOM     30  F   UNL d   1      46.098  36.688  53.119  0.00  0.00    -0.166 F 
ENDBRANCH   7  27
TORSDOF 5
ENDMDL
