MODEL 1
REMARK VINA RESULT:      -7.6      0.000      0.000
REMARK  3 active torsions:
REMARK  status: ('A' for Active; 'I' for Inactive)
REMARK    1  A    between atoms: C_6  and  N_1 
REMARK    2  A    between atoms: C_11  and  C_6 
REMARK    3  A    between atoms: C_9  and  C_11 
ROOT
ATOM      1  N   UNL d   1     -48.607  14.127  22.847  0.00  0.00    -0.240 N 
ATOM      2  C   UNL d   1     -49.262  13.748  23.164  0.00  0.00     0.267 A 
ATOM      3  C   UNL d   1     -48.786  14.929  22.795  0.00  0.00     0.267 A 
ATOM      4  C   UNL d   1     -49.843  14.310  23.308  0.00  0.00     0.061 A 
ATOM      5  C   UNL d   1     -49.547  15.045  23.078  0.00  0.00     0.061 A 
ATOM      6  O   UNL d   1     -49.303  12.909  23.308  0.00  0.00    -0.267 OA
ATOM      7  O   UNL d   1     -48.258  15.503  22.499  0.00  0.00    -0.267 OA
ATOM      8  C   UNL d   1     -50.003  15.698  23.159  0.00  0.00     0.005 A 
ATOM      9  C   UNL d   1     -50.591  14.239  23.614  0.00  0.00     0.005 A 
ATOM     10  C   UNL d   1     -51.064  14.922  23.696  0.00  0.00     0.000 A 
ATOM     11  C   UNL d   1     -50.768  15.658  23.467  0.00  0.00     0.000 A 
ENDROOT
BRANCH   1  12
ATOM     12  C   UNL d   1     -47.898  13.771  22.621  0.00  0.00     0.086 C 
BRANCH  12  13
ATOM     13  C   UNL d   1     -47.243  13.775  23.131  0.00  0.00     0.019 C 
BRANCH  13  14
ATOM     14  C   UNL d   1     -46.563  13.364  22.913  0.00  0.00     0.002 A 
ATOM     15  C   UNL d   1     -46.409  12.630  23.213  0.00  0.00     0.000 A 
ATOM     16  C   UNL d   1     -45.717  12.215  22.990  0.00  0.00     0.000 A 
ATOM     17  C   UNL d   1     -45.182  12.560  22.456  0.00  0.00     0.000 A 
ATOM     18  C   UNL d   1     -45.340  13.294  22.160  0.00  0.00     0.000 A 
ATOM     19  C   UNL d   1     -46.029  13.712  22.379  0.00  0.00     0.000 A 
ENDBRANCH  13  14
ENDBRANCH  12  13
ENDBRANCH   1  12
TORSDOF 3
ENDMDL
MODEL 2
REMARK VINA RESULT:      -7.6      0.761      4.157
REMARK  3 active torsions:
REMARK  status: ('A' for Active; 'I' for Inactive)
REMARK    1  A    between atoms: C_6  and  N_1 
REMARK    2  A    between atoms: C_11  and  C_6 
REMARK    3  A    between atoms: C_9  and  C_11 
ROOT
ATOM      1  N   UNL d   1     -47.640  13.928  23.117  0.00  0.00    -0.240 N 
ATOM      2  C   UNL d   1     -47.487  13.130  23.236  0.00  0.00     0.267 A 
ATOM      3  C   UNL d   1     -46.971  14.258  22.767  0.00  0.00     0.267 A 
ATOM      4  C   UNL d   1     -46.730  12.967  22.962  0.00  0.00     0.061 A 
ATOM      5  C   UNL d   1     -46.409  13.669  22.670  0.00  0.00     0.061 A 
ATOM      6  O   UNL d   1     -48.040  12.587  23.587  0.00  0.00    -0.267 OA
ATOM      7  O   UNL d   1     -46.909  15.063  22.557  0.00  0.00    -0.267 OA
ATOM      8  C   UNL d   1     -45.668  13.669  22.366  0.00  0.00     0.005 A 
ATOM      9  C   UNL d   1     -46.305  12.276  22.945  0.00  0.00     0.005 A 
ATOM     10  C   UNL d   1     -45.533  12.280  22.627  0.00  0.00     0.000 A 
ATOM     11  C   UNL d   1     -45.212  12.982  22.335  0.00  0.00     0.000 A 
ENDROOT
BRANCH   1  12
ATOM     12  C   UNL d   1     -48.335  14.326  23.311  0.00  0.00     0.086 C 
BRANCH  12  13
ATOM     13  C   UNL d   1     -48.877  14.541  22.721  0.00  0.00     0.019 C 
BRANCH  13  14
ATOM     14  C   UNL d   1     -49.597  14.876  22.940  0.00  0.00     0.002 A 
ATOM     15  C   UNL d   1     -49.624  15.497  23.456  0.00  0.00     0.000 A 
ATOM     16  C   UNL d   1     -50.357  15.835  23.678  0.00  0.00     0.000 A 
ATOM     17  C   UNL d   1     -51.064  15.531  23.365  0.00  0.00     0.000 A 
ATOM     18  C   UNL d   1     -51.032  14.910  22.849  0.00  0.00     0.000 A 
ATOM     19  C   UNL d   1     -50.303  14.569  22.625  0.00  0.00     0.000 A 
ENDBRANCH  13  14
ENDBRANCH  12  13
ENDBRANCH   1  12
TORSDOF 3
ENDMDL
MODEL 3
REMARK VINA RESULT:      -7.6      0.129      1.393
REMARK  3 active torsions:
REMARK  status: ('A' for Active; 'I' for Inactive)
REMARK    1  A    between atoms: C_6  and  N_1 
REMARK    2  A    between atoms: C_11  and  C_6 
REMARK    3  A    between atoms: C_9  and  C_11 
ROOT
ATOM      1  N   UNL d   1     -48.597  13.974  22.861  0.00  0.00    -0.240 N 
ATOM      2  C   UNL d   1     -48.782  14.771  22.798  0.00  0.00     0.267 A 
ATOM      3  C   UNL d   1     -49.252  13.593  23.183  0.00  0.00     0.267 A 
ATOM      4  C   UNL d   1     -49.545  14.885  23.080  0.00  0.00     0.061 A 
ATOM      5  C   UNL d   1     -49.838  14.151  23.319  0.00  0.00     0.061 A 
ATOM      6  O   UNL d   1     -48.250  15.360  22.489  0.00  0.00    -0.267 OA
ATOM      7  O   UNL d   1     -49.283  12.773  23.334  0.00  0.00    -0.267 OA
ATOM      8  C   UNL d   1     -50.578  14.100  23.620  0.00  0.00     0.005 A 
ATOM      9  C   UNL d   1     -49.998  15.554  23.144  0.00  0.00     0.005 A 
ATOM     10  C   UNL d   1     -50.769  15.497  23.458  0.00  0.00     0.000 A 
ATOM     11  C   UNL d   1     -51.062  14.764  23.697  0.00  0.00     0.000 A 
ENDROOT
BRANCH   1  12
ATOM     12  C   UNL d   1     -47.886  13.619  22.641  0.00  0.00     0.086 C 
BRANCH  12  13
ATOM     13  C   UNL d   1     -47.197  13.746  23.085  0.00  0.00     0.019 C 
BRANCH  13  14
ATOM     14  C   UNL d   1     -46.505  13.350  22.875  0.00  0.00     0.002 A 
ATOM     15  C   UNL d   1     -45.965  13.695  22.383  0.00  0.00     0.000 A 
ATOM     16  C   UNL d   1     -45.264  13.291  22.170  0.00  0.00     0.000 A 
ATOM     17  C   UNL d   1     -45.119  12.528  22.467  0.00  0.00     0.000 A 
ATOM     18  C   UNL d   1     -45.663  12.188  22.958  0.00  0.00     0.000 A 
ATOM     19  C   UNL d   1     -46.364  12.587  23.173  0.00  0.00     0.000 A 
ENDBRANCH  13  14
ENDBRANCH  12  13
ENDBRANCH   1  12
TORSDOF 3
ENDMDL
MODEL 4
REMARK VINA RESULT:      -7.2      1.129      4.340
REMARK  3 active torsions:
REMARK  status: ('A' for Active; 'I' for Inactive)
REMARK    1  A    between atoms: C_6  and  N_1 
REMARK    2  A    between atoms: C_11  and  C_6 
REMARK    3  A    between atoms: C_9  and  C_11 
ROOT
ATOM      1  N   UNL d   1     -48.205  12.817  22.951  0.00  0.00    -0.240 N 
ATOM      2  C   UNL d   1     -47.425  13.018  22.795  0.00  0.00     0.267 A 
ATOM      3  C   UNL d   1     -48.203  12.080  23.319  0.00  0.00     0.267 A 
ATOM      4  C   UNL d   1     -46.941  12.411  23.064  0.00  0.00     0.061 A 
ATOM      5  C   UNL d   1     -47.425  11.827  23.390  0.00  0.00     0.061 A 
ATOM      6  O   UNL d   1     -47.186  13.743  22.417  0.00  0.00    -0.267 OA
ATOM      7  O   UNL d   1     -48.894  11.684  23.565  0.00  0.00    -0.267 OA
ATOM      8  C   UNL d   1     -47.095  11.165  23.697  0.00  0.00     0.005 A 
ATOM      9  C   UNL d   1     -46.135  12.323  23.051  0.00  0.00     0.005 A 
ATOM     10  C   UNL d   1     -45.795  11.632  23.372  0.00  0.00     0.000 A 
ATOM     11  C   UNL d   1     -46.279  11.048  23.698  0.00  0.00     0.000 A 
ENDROOT
BRANCH   1  12
ATOM     12  C   UNL d   1     -48.871  13.270  22.772  0.00  0.00     0.086 C 
BRANCH  12  13
ATOM     13  C   UNL d   1     -49.195  13.784  23.337  0.00  0.00     0.019 C 
BRANCH  13  14
ATOM     14  C   UNL d   1     -49.819  14.277  23.119  0.00  0.00     0.002 A 
ATOM     15  C   UNL d   1     -50.393  14.018  22.614  0.00  0.00     0.000 A 
ATOM     16  C   UNL d   1     -51.026  14.520  22.395  0.00  0.00     0.000 A 
ATOM     17  C   UNL d   1     -51.064  15.293  22.698  0.00  0.00     0.000 A 
ATOM     18  C   UNL d   1     -50.487  15.547  23.203  0.00  0.00     0.000 A 
ATOM     19  C   UNL d   1     -49.854  15.050  23.425  0.00  0.00     0.000 A 
ENDBRANCH  13  14
ENDBRANCH  12  13
ENDBRANCH   1  12
TORSDOF 3
ENDMDL
MODEL 5
REMARK VINA RESULT:      -7.0      1.518      4.293
REMARK  3 active torsions:
REMARK  status: ('A' for Active; 'I' for Inactive)
REMARK    1  A    between atoms: C_6  and  N_1 
REMARK    2  A    between atoms: C_11  and  C_6 
REMARK    3  A    between atoms: C_9  and  C_11 
ROOT
ATOM      1  N   UNL d   1     -47.291  12.729  23.136  0.00  0.00    -0.240 N 
ATOM      2  C   UNL d   1     -46.749  12.126  23.263  0.00  0.00     0.267 A 
ATOM      3  C   UNL d   1     -46.906  13.325  22.719  0.00  0.00     0.267 A 
ATOM      4  C   UNL d   1     -46.032  12.346  22.926  0.00  0.00     0.061 A 
ATOM      5  C   UNL d   1     -46.131  13.092  22.587  0.00  0.00     0.061 A 
ATOM      6  O   UNL d   1     -46.927  11.404  23.677  0.00  0.00    -0.267 OA
ATOM      7  O   UNL d   1     -47.273  14.036  22.483  0.00  0.00    -0.267 OA
ATOM      8  C   UNL d   1     -45.513  13.443  22.217  0.00  0.00     0.005 A 
ATOM      9  C   UNL d   1     -45.319  11.963  22.889  0.00  0.00     0.005 A 
ATOM     10  C   UNL d   1     -44.677  12.332  22.502  0.00  0.00     0.000 A 
ATOM     11  C   UNL d   1     -44.775  13.078  22.164  0.00  0.00     0.000 A 
ENDROOT
BRANCH   1  12
ATOM     12  C   UNL d   1     -48.079  12.737  23.383  0.00  0.00     0.086 C 
BRANCH  12  13
ATOM     13  C   UNL d   1     -48.684  12.506  22.865  0.00  0.00     0.019 C 
BRANCH  13  14
ATOM     14  C   UNL d   1     -49.459  12.474  23.143  0.00  0.00     0.002 A 
ATOM     15  C   UNL d   1     -49.772  11.781  23.416  0.00  0.00     0.000 A 
ATOM     16  C   UNL d   1     -50.560  11.751  23.698  0.00  0.00     0.000 A 
ATOM     17  C   UNL d   1     -51.026  12.439  23.698  0.00  0.00     0.000 A 
ATOM     18  C   UNL d   1     -50.708  13.129  23.424  0.00  0.00     0.000 A 
ATOM     19  C   UNL d   1     -49.923  13.164  23.142  0.00  0.00     0.000 A 
ENDBRANCH  13  14
ENDBRANCH  12  13
ENDBRANCH   1  12
TORSDOF 3
ENDMDL
