MODEL 1
REMARK VINA RESULT:      34.7      0.000      0.000
REMARK  3 active torsions:
REMARK  status: ('A' for Active; 'I' for Inactive)
REMARK    1  A    between atoms: C_7  and  C_1 
REMARK    2  A    between atoms: N_9  and  C_7 
REMARK    3  A    between atoms: C_8  and  N_9 
ROOT
ATOM      1  C   UNL d   1     -51.880  26.795  33.314  0.00  0.00     0.146 A 
ATOM      2  C   UNL d   1     -52.201  27.559  33.318  0.00  0.00     0.304 A 
ATOM      3  C   UNL d   1     -51.032  26.716  33.314  0.00  0.00     0.304 A 
ATOM      4  O   UNL d   1     -50.563  27.367  33.318  0.00  0.00    -0.277 OA
ATOM      5  O   UNL d   1     -51.697  28.215  33.322  0.00  0.00    -0.277 OA
ATOM      6  C   UNL d   1     -50.904  28.148  33.322  0.00  0.00     0.203 A 
ATOM      7  O   UNL d   1     -50.700  25.943  33.309  0.00  0.00    -0.259 OA
ATOM      8  O   UNL d   1     -53.067  27.651  33.318  0.00  0.00    -0.259 OA
ATOM      9  C   UNL d   1     -50.817  28.948  33.327  0.00  0.00     0.062 C 
ATOM     10  C   UNL d   1     -50.152  28.468  33.325  0.00  0.00     0.062 C 
ENDROOT
BRANCH   1  11
ATOM     11  C   UNL d   1     -52.363  26.126  33.309  0.00  0.00     0.129 C 
BRANCH  11  12
ATOM     12  N   UNL d   1     -52.316  25.596  33.922  0.00  0.00    -0.057 NA
BRANCH  12  13
ATOM     13  C   UNL d   1     -52.496  24.793  33.785  0.00  0.00     0.750 A 
ATOM     14  N   UNL d   1     -51.876  24.224  33.718  0.00  0.00    -0.058 NA
ATOM     15  C   UNL d   1     -52.086  23.430  33.581  0.00  0.00     0.120 A 
ATOM     16  C   UNL d   1     -52.854  23.193  33.510  0.00  0.00     0.043 A 
ATOM     17  C   UNL d   1     -53.452  23.757  33.577  0.00  0.00     0.120 A 
ATOM     18  N   UNL d   1     -53.277  24.539  33.711  0.00  0.00    -0.058 NA
ENDBRANCH  12  13
ENDBRANCH  11  12
ENDBRANCH   1  11
TORSDOF 3
ENDMDL
