MODEL 1
REMARK VINA RESULT:      -9.6      0.000      0.000
REMARK  7 active torsions:
REMARK  status: ('A' for Active; 'I' for Inactive)
REMARK    1  A    between atoms: C_4  and  C_1 
REMARK    2  A    between atoms: N_5  and  C_2 
REMARK    3  A    between atoms: C_15  and  C_4 
REMARK    4  A    between atoms: C_9  and  C_13 
REMARK    5  A    between atoms: O_21  and  C_9 
REMARK    6  A    between atoms: C_25  and  C_20 
REMARK    7  A    between atoms: C_26  and  O_21 
ROOT
ATOM      1  C   UNL d   1      53.197  32.390  53.427  0.00  0.00     0.074 A 
ATOM      2  C   UNL d   1      52.917  33.144  53.637  0.00  0.00     0.070 A 
ATOM      3  C   UNL d   1      53.340  33.608  54.169  0.00  0.00     0.034 A 
ATOM      4  C   UNL d   1      53.901  32.110  53.753  0.00  0.00     0.103 A 
ATOM      5  N   UNL d   1      54.325  32.582  54.289  0.00  0.00    -0.244 NA
ATOM      6  C   UNL d   1      54.044  33.327  54.495  0.00  0.00     0.083 A 
ATOM      7  C   UNL d   1      53.058  34.355  54.375  0.00  0.00     0.003 A 
ATOM      8  C   UNL d   1      54.466  33.793  55.027  0.00  0.00     0.019 A 
ATOM      9  C   UNL d   1      53.482  34.824  54.909  0.00  0.00     0.000 A 
ATOM     10  C   UNL d   1      54.186  34.543  55.235  0.00  0.00     0.002 A 
ENDROOT
BRANCH   2  11
ATOM     11  N   UNL d   1      52.203  33.429  53.307  0.00  0.00    -0.304 N 
ATOM     12  C   UNL d   1      52.214  33.847  52.597  0.00  0.00     0.080 A 
ATOM     13  C   UNL d   1      51.510  34.128  52.271  0.00  0.00     0.024 A 
ATOM     14  C   UNL d   1      50.795  33.990  52.655  0.00  0.00     0.067 A 
ATOM     15  C   UNL d   1      50.780  33.570  53.367  0.00  0.00     0.024 A 
ATOM     16  C   UNL d   1      51.484  33.289  53.693  0.00  0.00     0.080 A 
BRANCH  14  17
ATOM     17  C   UNL d   1      50.095  34.275  52.322  0.00  0.00     0.300 C 
ATOM     18  O   UNL d   1      49.897  34.093  51.540  0.00  0.00    -0.259 OA
BRANCH  17  19
ATOM     19  O   UNL d   1      49.592  34.743  52.776  0.00  0.00    -0.271 OA
BRANCH  19  20
ATOM     20  C   UNL d   1      48.926  35.096  52.441  0.00  0.00     0.126 C 
ATOM     21  C   UNL d   1      48.467  35.635  52.870  0.00  0.00     0.029 C 
ENDBRANCH  19  20
ENDBRANCH  17  19
ENDBRANCH  14  17
ENDBRANCH   2  11
BRANCH   1  22
ATOM     22  C   UNL d   1      52.774  31.922  52.893  0.00  0.00     0.198 C 
ATOM     23  O   UNL d   1      52.401  32.263  52.241  0.00  0.00    -0.286 OA
BRANCH  22  24
ATOM     24  C   UNL d   1      52.722  31.109  53.011  0.00  0.00     0.039 A 
ATOM     25  C   UNL d   1      53.278  30.608  52.663  0.00  0.00     0.003 A 
ATOM     26  C   UNL d   1      53.225  29.794  52.781  0.00  0.00     0.000 A 
ATOM     27  C   UNL d   1      52.619  29.482  53.247  0.00  0.00     0.000 A 
ATOM     28  C   UNL d   1      52.061  29.979  53.597  0.00  0.00     0.000 A 
ATOM     29  C   UNL d   1      52.117  30.800  53.476  0.00  0.00     0.003 A 
ENDBRANCH  22  24
ENDBRANCH   1  22
BRANCH   9  30
ATOM     30  C   UNL d   1      53.198  35.577  55.117  0.00  0.00     0.000 C 
ATOM     31  C   UNL d   1      53.478  36.242  54.717  0.00  0.00     0.000 C 
ENDBRANCH   9  30
TORSDOF 7
ENDMDL
MODEL 2
REMARK VINA RESULT:      -8.7      1.063      3.879
REMARK  7 active torsions:
REMARK  status: ('A' for Active; 'I' for Inactive)
REMARK    1  A    between atoms: C_4  and  C_1 
REMARK    2  A    between atoms: N_5  and  C_2 
REMARK    3  A    between atoms: C_15  and  C_4 
REMARK    4  A    between atoms: C_9  and  C_13 
REMARK    5  A    between atoms: O_21  and  C_9 
REMARK    6  A    between atoms: C_25  and  C_20 
REMARK    7  A    between atoms: C_26  and  O_21 
ROOT
ATOM      1  C   UNL d   1      52.153  34.138  53.035  0.00  0.00     0.074 A 
ATOM      2  C   UNL d   1      52.690  33.720  53.512  0.00  0.00     0.070 A 
ATOM      3  C   UNL d   1      53.150  34.122  54.064  0.00  0.00     0.034 A 
ATOM      4  C   UNL d   1      52.082  34.956  53.116  0.00  0.00     0.103 A 
ATOM      5  N   UNL d   1      52.548  35.356  53.674  0.00  0.00    -0.244 NA
ATOM      6  C   UNL d   1      53.079  34.940  54.145  0.00  0.00     0.083 A 
ATOM      7  C   UNL d   1      53.682  33.705  54.535  0.00  0.00     0.003 A 
ATOM      8  C   UNL d   1      53.540  35.341  54.697  0.00  0.00     0.019 A 
ATOM      9  C   UNL d   1      54.145  34.107  55.090  0.00  0.00     0.000 A 
ATOM     10  C   UNL d   1      54.074  34.925  55.171  0.00  0.00     0.002 A 
ENDROOT
BRANCH   2  11
ATOM     11  N   UNL d   1      52.762  32.891  53.430  0.00  0.00    -0.304 N 
ATOM     12  C   UNL d   1      52.276  32.389  53.868  0.00  0.00     0.080 A 
ATOM     13  C   UNL d   1      52.347  31.571  53.787  0.00  0.00     0.024 A 
ATOM     14  C   UNL d   1      52.904  31.255  53.269  0.00  0.00     0.067 A 
ATOM     15  C   UNL d   1      53.392  31.756  52.829  0.00  0.00     0.024 A 
ATOM     16  C   UNL d   1      53.321  32.574  52.910  0.00  0.00     0.080 A 
BRANCH  14  17
ATOM     17  C   UNL d   1      52.968  30.436  53.194  0.00  0.00     0.300 C 
ATOM     18  O   UNL d   1      52.734  30.057  52.498  0.00  0.00    -0.259 OA
BRANCH  17  19
ATOM     19  O   UNL d   1      53.269  29.994  53.821  0.00  0.00    -0.271 OA
BRANCH  19  20
ATOM     20  C   UNL d   1      53.198  29.172  53.833  0.00  0.00     0.126 C 
ATOM     21  C   UNL d   1      53.415  28.735  54.500  0.00  0.00     0.029 C 
ENDBRANCH  19  20
ENDBRANCH  17  19
ENDBRANCH  14  17
ENDBRANCH   2  11
BRANCH   1  22
ATOM     22  C   UNL d   1      51.689  33.736  52.480  0.00  0.00     0.198 C 
ATOM     23  O   UNL d   1      51.987  33.075  52.085  0.00  0.00    -0.286 OA
BRANCH  22  24
ATOM     24  C   UNL d   1      50.924  33.995  52.318  0.00  0.00     0.039 A 
ATOM     25  C   UNL d   1      50.364  34.023  52.924  0.00  0.00     0.003 A 
ATOM     26  C   UNL d   1      49.600  34.282  52.761  0.00  0.00     0.000 A 
ATOM     27  C   UNL d   1      49.396  34.513  51.994  0.00  0.00     0.000 A 
ATOM     28  C   UNL d   1      49.952  34.486  51.386  0.00  0.00     0.000 A 
ATOM     29  C   UNL d   1      50.723  34.224  51.553  0.00  0.00     0.003 A 
ENDBRANCH  22  24
ENDBRANCH   1  22
BRANCH   9  30
ATOM     30  C   UNL d   1      54.682  33.686  55.566  0.00  0.00     0.000 C 
ATOM     31  C   UNL d   1      55.493  33.782  55.447  0.00  0.00     0.000 C 
ENDBRANCH   9  30
TORSDOF 7
ENDMDL
MODEL 3
REMARK VINA RESULT:      -7.4      1.748      4.241
REMARK  7 active torsions:
REMARK  status: ('A' for Active; 'I' for Inactive)
REMARK    1  A    between atoms: C_4  and  C_1 
REMARK    2  A    between atoms: N_5  and  C_2 
REMARK    3  A    between atoms: C_15  and  C_4 
REMARK    4  A    between atoms: C_9  and  C_13 
REMARK    5  A    between atoms: O_21  and  C_9 
REMARK    6  A    between atoms: C_25  and  C_20 
REMARK    7  A    between atoms: C_26  and  O_21 
ROOT
ATOM      1  C   UNL d   1      53.550  33.666  53.569  0.00  0.00     0.074 A 
ATOM      2  C   UNL d   1      52.854  33.269  53.350  0.00  0.00     0.070 A 
ATOM      3  C   UNL d   1      52.187  33.697  53.127  0.00  0.00     0.034 A 
ATOM      4  C   UNL d   1      53.571  34.491  53.561  0.00  0.00     0.103 A 
ATOM      5  N   UNL d   1      52.896  34.918  53.335  0.00  0.00    -0.244 NA
ATOM      6  C   UNL d   1      52.208  34.522  53.119  0.00  0.00     0.083 A 
ATOM      7  C   UNL d   1      51.498  33.300  52.911  0.00  0.00     0.003 A 
ATOM      8  C   UNL d   1      51.541  34.949  52.895  0.00  0.00     0.019 A 
ATOM      9  C   UNL d   1      50.827  33.728  52.686  0.00  0.00     0.000 A 
ATOM     10  C   UNL d   1      50.848  34.552  52.678  0.00  0.00     0.002 A 
ENDROOT
BRANCH   2  11
ATOM     11  N   UNL d   1      52.832  32.432  53.358  0.00  0.00    -0.304 N 
ATOM     12  C   UNL d   1      52.569  32.032  54.029  0.00  0.00     0.080 A 
ATOM     13  C   UNL d   1      52.547  31.208  54.037  0.00  0.00     0.024 A 
ATOM     14  C   UNL d   1      52.790  30.783  53.374  0.00  0.00     0.067 A 
ATOM     15  C   UNL d   1      53.055  31.182  52.700  0.00  0.00     0.024 A 
ATOM     16  C   UNL d   1      53.076  32.007  52.692  0.00  0.00     0.080 A 
BRANCH  14  17
ATOM     17  C   UNL d   1      52.766  29.958  53.390  0.00  0.00     0.300 C 
ATOM     18  O   UNL d   1      52.205  29.545  52.944  0.00  0.00    -0.259 OA
BRANCH  17  19
ATOM     19  O   UNL d   1      53.306  29.546  53.856  0.00  0.00    -0.271 OA
BRANCH  19  20
ATOM     20  C   UNL d   1      53.104  28.825  54.201  0.00  0.00     0.126 C 
ATOM     21  C   UNL d   1      53.594  28.469  54.764  0.00  0.00     0.029 C 
ENDBRANCH  19  20
ENDBRANCH  17  19
ENDBRANCH  14  17
ENDBRANCH   2  11
BRANCH   1  22
ATOM     22  C   UNL d   1      54.221  33.238  53.794  0.00  0.00     0.198 C 
ATOM     23  O   UNL d   1      54.481  32.599  53.342  0.00  0.00    -0.286 OA
BRANCH  22  24
ATOM     24  C   UNL d   1      54.634  33.449  54.474  0.00  0.00     0.039 A 
ATOM     25  C   UNL d   1      55.368  33.821  54.409  0.00  0.00     0.003 A 
ATOM     26  C   UNL d   1      55.780  34.032  55.090  0.00  0.00     0.000 A 
ATOM     27  C   UNL d   1      55.460  33.872  55.835  0.00  0.00     0.000 A 
ATOM     28  C   UNL d   1      54.727  33.500  55.904  0.00  0.00     0.000 A 
ATOM     29  C   UNL d   1      54.313  33.288  55.215  0.00  0.00     0.003 A 
ENDBRANCH  22  24
ENDBRANCH   1  22
BRANCH   9  30
ATOM     30  C   UNL d   1      50.132  33.326  52.467  0.00  0.00     0.000 C 
ATOM     31  C   UNL d   1      49.541  33.730  52.057  0.00  0.00     0.000 C 
ENDBRANCH   9  30
TORSDOF 7
ENDMDL
