MODEL 1
REMARK VINA RESULT:      -4.2      0.000      0.000
REMARK  3 active torsions:
REMARK  status: ('A' for Active; 'I' for Inactive)
REMARK    1  A    between atoms: S_10  and  C_6 
REMARK    2  A    between atoms: C_14  and  S_10 
REMARK    3  A    between atoms: C_15  and  C_14 
ROOT
ATOM      1  C   UNL d   1     -41.756-122.676 -51.351  0.00  0.00     0.141 A 
ATOM      2  O   UNL d   1     -42.102-123.384 -51.106  0.00  0.00    -0.303 OA
ATOM      3  C   UNL d   1     -41.759-122.155 -50.711  0.00  0.00     0.110 A 
ATOM      4  C   UNL d   1     -42.108-122.541 -50.070  0.00  0.00     0.043 A 
ATOM      5  C   UNL d   1     -42.320-123.300 -50.315  0.00  0.00     0.102 A 
ATOM      6  C   UNL d   1     -41.437-122.438 -52.074  0.00  0.00     0.137 A 
ATOM      7  N   UNL d   1     -41.123-121.680 -52.157  0.00  0.00    -0.215 NA
ATOM      8  N   UNL d   1     -41.445-121.397 -50.794  0.00  0.00    -0.222 NA
ATOM      9  C   UNL d   1     -41.126-121.160 -51.518  0.00  0.00     0.200 A 
ATOM     10  C   UNL d   1     -42.260-122.299 -49.296  0.00  0.00     0.004 A 
ATOM     11  C   UNL d   1     -42.684-123.817 -49.785  0.00  0.00     0.025 A 
ATOM     12  C   UNL d   1     -42.624-122.817 -48.767  0.00  0.00     0.000 A 
ATOM     13  C   UNL d   1     -42.836-123.575 -49.011  0.00  0.00     0.002 A 
ENDROOT
BRANCH   6  14
ATOM     14  S   UNL d   1     -41.434-122.959 -52.714  0.00  0.00    -0.062 SA
BRANCH  14  15
ATOM     15  C   UNL d   1     -41.161-122.705 -53.451  0.00  0.00     0.082 C 
BRANCH  15  16
ATOM     16  C   UNL d   1     -41.278-123.177 -54.118  0.00  0.00     0.241 C 
ATOM     17  O   UNL d   1     -41.126-122.873 -54.868  0.00  0.00    -0.283 OA
ENDBRANCH  15  16
ENDBRANCH  14  15
ENDBRANCH   6  14
TORSDOF 3
ENDMDL
MODEL 2
REMARK VINA RESULT:      -4.2      1.650      2.290
REMARK  3 active torsions:
REMARK  status: ('A' for Active; 'I' for Inactive)
REMARK    1  A    between atoms: S_10  and  C_6 
REMARK    2  A    between atoms: C_14  and  S_10 
REMARK    3  A    between atoms: C_15  and  C_14 
ROOT
ATOM      1  C   UNL d   1     -41.630-122.391 -52.945  0.00  0.00     0.141 A 
ATOM      2  O   UNL d   1     -41.830-121.754 -52.459  0.00  0.00    -0.303 OA
ATOM      3  C   UNL d   1     -41.363-123.005 -52.464  0.00  0.00     0.110 A 
ATOM      4  C   UNL d   1     -41.397-122.750 -51.681  0.00  0.00     0.043 A 
ATOM      5  C   UNL d   1     -41.686-121.976 -51.677  0.00  0.00     0.102 A 
ATOM      6  C   UNL d   1     -41.657-122.490 -53.764  0.00  0.00     0.137 A 
ATOM      7  N   UNL d   1     -41.418-123.203 -54.101  0.00  0.00    -0.215 NA
ATOM      8  N   UNL d   1     -41.123-123.719 -52.801  0.00  0.00    -0.222 NA
ATOM      9  C   UNL d   1     -41.151-123.817 -53.621  0.00  0.00     0.200 A 
ATOM     10  C   UNL d   1     -41.203-123.120 -50.969  0.00  0.00     0.004 A 
ATOM     11  C   UNL d   1     -41.780-121.574 -50.963  0.00  0.00     0.025 A 
ATOM     12  C   UNL d   1     -41.297-122.718 -50.255  0.00  0.00     0.000 A 
ATOM     13  C   UNL d   1     -41.585-121.945 -50.252  0.00  0.00     0.002 A 
ENDROOT
BRANCH   6  14
ATOM     14  S   UNL d   1     -41.924-121.875 -54.245  0.00  0.00    -0.062 SA
BRANCH  14  15
ATOM     15  C   UNL d   1     -41.953-121.974 -55.064  0.00  0.00     0.082 C 
BRANCH  15  16
ATOM     16  C   UNL d   1     -42.541-121.598 -55.504  0.00  0.00     0.241 C 
ATOM     17  O   UNL d   1     -42.533-121.646 -56.327  0.00  0.00    -0.283 OA
ENDBRANCH  15  16
ENDBRANCH  14  15
ENDBRANCH   6  14
TORSDOF 3
ENDMDL
MODEL 3
REMARK VINA RESULT:      -3.4      1.490      2.023
REMARK  3 active torsions:
REMARK  status: ('A' for Active; 'I' for Inactive)
REMARK    1  A    between atoms: S_10  and  C_6 
REMARK    2  A    between atoms: C_14  and  S_10 
REMARK    3  A    between atoms: C_15  and  C_14 
ROOT
ATOM      1  C   UNL d   1     -41.979-123.061 -49.746  0.00  0.00     0.141 A 
ATOM      2  O   UNL d   1     -41.336-123.399 -49.353  0.00  0.00    -0.303 OA
ATOM      3  C   UNL d   1     -42.581-122.943 -49.195  0.00  0.00     0.110 A 
ATOM      4  C   UNL d   1     -42.311-123.208 -48.461  0.00  0.00     0.043 A 
ATOM      5  C   UNL d   1     -41.541-123.490 -48.559  0.00  0.00     0.102 A 
ATOM      6  C   UNL d   1     -42.093-122.846 -50.534  0.00  0.00     0.137 A 
ATOM      7  N   UNL d   1     -42.810-122.513 -50.771  0.00  0.00    -0.215 NA
ATOM      8  N   UNL d   1     -43.297-122.610 -49.431  0.00  0.00    -0.222 NA
ATOM      9  C   UNL d   1     -43.411-122.395 -50.220  0.00  0.00     0.200 A 
ATOM     10  C   UNL d   1     -42.665-123.229 -47.717  0.00  0.00     0.004 A 
ATOM     11  C   UNL d   1     -41.126-123.792 -47.913  0.00  0.00     0.025 A 
ATOM     12  C   UNL d   1     -42.251-123.531 -47.070  0.00  0.00     0.000 A 
ATOM     13  C   UNL d   1     -41.482-123.813 -47.169  0.00  0.00     0.002 A 
ENDROOT
BRANCH   6  14
ATOM     14  S   UNL d   1     -41.491-122.964 -51.085  0.00  0.00    -0.062 SA
BRANCH  14  15
ATOM     15  C   UNL d   1     -41.569-122.667 -51.851  0.00  0.00     0.082 C 
BRANCH  15  16
ATOM     16  C   UNL d   1     -41.123-122.990 -52.466  0.00  0.00     0.241 C 
ATOM     17  O   UNL d   1     -41.315-122.817 -53.249  0.00  0.00    -0.283 OA
ENDBRANCH  15  16
ENDBRANCH  14  15
ENDBRANCH   6  14
TORSDOF 3
ENDMDL
