MODEL 1
REMARK VINA RESULT:     -10.4      0.000      0.000
REMARK  6 active torsions:
REMARK  status: ('A' for Active; 'I' for Inactive)
REMARK    1  A    between atoms: C_9  and  N_2 
REMARK       I    between atoms: N_5  and  C_6 
REMARK    2  A    between atoms: C_6  and  C_10 
REMARK    3  A    between atoms: C_11  and  N_7 
REMARK    4  A    between atoms: C_10  and  C_9 
REMARK    5  A    between atoms: C_18  and  C_11 
REMARK    6  A    between atoms: C_19  and  C_11 
ROOT
ATOM      1  N   UNL d   1      51.598  33.762  52.631  0.00  0.00    -0.269 N 
ATOM      2  C   UNL d   1      51.014  34.211  52.265  0.00  0.00     0.266 C 
ATOM      3  N   UNL d   1      52.773  32.857  53.375  0.00  0.00    -0.301 N 
ATOM      4  C   UNL d   1      51.510  33.543  53.428  0.00  0.00     0.102 A 
ATOM      5  C   UNL d   1      52.265  33.530  52.215  0.00  0.00     0.102 A 
ATOM      6  C   UNL d   1      52.853  33.078  52.586  0.00  0.00     0.100 A 
ATOM      7  C   UNL d   1      52.090  33.095  53.798  0.00  0.00     0.100 A 
ATOM      8  O   UNL d   1      51.103  34.428  51.473  0.00  0.00    -0.267 OA
ENDROOT
BRANCH   2   9
ATOM      9  C   UNL d   1      50.343  34.445  52.682  0.00  0.00     0.080 C 
BRANCH   9  10
ATOM     10  C   UNL d   1      49.623  34.535  52.296  0.00  0.00     0.090 C 
BRANCH  10  11
ATOM     11  N   UNL d   1      49.061  35.064  52.584  0.00  0.00    -0.251 N 
ATOM     12  C   UNL d   1      49.096  35.467  53.300  0.00  0.00     0.378 A 
ATOM     13  O   UNL d   1      48.402  35.909  53.299  0.00  0.00    -0.258 OA
ATOM     14  O   UNL d   1      49.702  35.411  53.857  0.00  0.00    -0.237 OA
ATOM     15  C   UNL d   1      47.967  35.820  52.682  0.00  0.00     0.121 A 
ATOM     16  C   UNL d   1      47.241  36.139  52.440  0.00  0.00     0.026 A 
ATOM     17  C   UNL d   1      48.363  35.281  52.199  0.00  0.00     0.092 A 
ATOM     18  C   UNL d   1      46.912  35.917  51.711  0.00  0.00     0.002 A 
ATOM     19  C   UNL d   1      47.317  35.376  51.236  0.00  0.00     0.002 A 
ATOM     20  C   UNL d   1      48.041  35.061  51.481  0.00  0.00     0.020 A 
ENDBRANCH  10  11
ENDBRANCH   9  10
ENDBRANCH   2   9
BRANCH   3  21
ATOM     21  C   UNL d   1      53.355  32.403  53.759  0.00  0.00     0.064 C 
BRANCH  21  22
ATOM     22  C   UNL d   1      53.358  31.583  53.703  0.00  0.00     0.016 A 
ATOM     23  C   UNL d   1      53.655  31.219  53.025  0.00  0.00     0.001 A 
ATOM     24  C   UNL d   1      53.657  30.398  52.970  0.00  0.00     0.000 A 
ATOM     25  C   UNL d   1      53.362  29.942  53.592  0.00  0.00     0.000 A 
ATOM     26  C   UNL d   1      53.067  30.308  54.266  0.00  0.00     0.000 A 
ATOM     27  C   UNL d   1      53.065  31.129  54.322  0.00  0.00     0.001 A 
ENDBRANCH  21  22
BRANCH  21  28
ATOM     28  C   UNL d   1      53.938  32.795  54.202  0.00  0.00     0.016 A 
ATOM     29  C   UNL d   1      54.641  33.027  53.823  0.00  0.00     0.001 A 
ATOM     30  C   UNL d   1      55.223  33.419  54.266  0.00  0.00     0.000 A 
ATOM     31  C   UNL d   1      55.104  33.571  55.065  0.00  0.00     0.000 A 
ATOM     32  C   UNL d   1      54.402  33.335  55.430  0.00  0.00     0.000 A 
ATOM     33  C   UNL d   1      53.817  32.945  54.998  0.00  0.00     0.001 A 
ENDBRANCH  21  28
ENDBRANCH   3  21
TORSDOF 6
ENDMDL
MODEL 2
REMARK VINA RESULT:     -10.3      0.045      1.829
REMARK  6 active torsions:
REMARK  status: ('A' for Active; 'I' for Inactive)
REMARK    1  A    between atoms: C_9  and  N_2 
REMARK       I    between atoms: N_5  and  C_6 
REMARK    2  A    between atoms: C_6  and  C_10 
REMARK    3  A    between atoms: C_11  and  N_7 
REMARK    4  A    between atoms: C_10  and  C_9 
REMARK    5  A    between atoms: C_18  and  C_11 
REMARK    6  A    between atoms: C_19  and  C_11 
ROOT
ATOM      1  N   UNL d   1      51.607  33.780  52.636  0.00  0.00    -0.269 N 
ATOM      2  C   UNL d   1      51.017  34.213  52.262  0.00  0.00     0.266 C 
ATOM      3  N   UNL d   1      52.796  32.906  53.395  0.00  0.00    -0.301 N 
ATOM      4  C   UNL d   1      51.524  33.576  53.437  0.00  0.00     0.102 A 
ATOM      5  C   UNL d   1      52.277  33.550  52.224  0.00  0.00     0.102 A 
ATOM      6  C   UNL d   1      52.871  33.113  52.603  0.00  0.00     0.100 A 
ATOM      7  C   UNL d   1      52.111  33.144  53.815  0.00  0.00     0.100 A 
ATOM      8  O   UNL d   1      51.101  34.416  51.466  0.00  0.00    -0.267 OA
ENDROOT
BRANCH   2   9
ATOM      9  C   UNL d   1      50.343  34.446  52.676  0.00  0.00     0.080 C 
BRANCH   9  10
ATOM     10  C   UNL d   1      49.626  34.543  52.285  0.00  0.00     0.090 C 
BRANCH  10  11
ATOM     11  N   UNL d   1      49.061  35.066  52.576  0.00  0.00    -0.251 N 
ATOM     12  C   UNL d   1      49.095  35.466  53.294  0.00  0.00     0.378 A 
ATOM     13  O   UNL d   1      48.398  35.903  53.297  0.00  0.00    -0.258 OA
ATOM     14  O   UNL d   1      49.703  35.413  53.849  0.00  0.00    -0.237 OA
ATOM     15  C   UNL d   1      47.962  35.814  52.681  0.00  0.00     0.121 A 
ATOM     16  C   UNL d   1      47.234  36.129  52.442  0.00  0.00     0.026 A 
ATOM     17  C   UNL d   1      48.361  35.280  52.194  0.00  0.00     0.092 A 
ATOM     18  C   UNL d   1      46.904  35.907  51.713  0.00  0.00     0.002 A 
ATOM     19  C   UNL d   1      47.312  35.371  51.234  0.00  0.00     0.002 A 
ATOM     20  C   UNL d   1      48.038  35.060  51.476  0.00  0.00     0.020 A 
ENDBRANCH  10  11
ENDBRANCH   9  10
ENDBRANCH   2   9
BRANCH   3  21
ATOM     21  C   UNL d   1      53.385  32.469  53.787  0.00  0.00     0.064 C 
BRANCH  21  22
ATOM     22  C   UNL d   1      53.968  32.844  54.229  0.00  0.00     0.016 A 
ATOM     23  C   UNL d   1      54.669  33.081  53.866  0.00  0.00     0.001 A 
ATOM     24  C   UNL d   1      55.252  33.457  54.309  0.00  0.00     0.000 A 
ATOM     25  C   UNL d   1      55.133  33.595  55.114  0.00  0.00     0.000 A 
ATOM     26  C   UNL d   1      54.433  33.358  55.473  0.00  0.00     0.000 A 
ATOM     27  C   UNL d   1      53.850  32.982  55.030  0.00  0.00     0.001 A 
ENDBRANCH  21  22
BRANCH  21  28
ATOM     28  C   UNL d   1      53.376  31.641  53.724  0.00  0.00     0.016 A 
ATOM     29  C   UNL d   1      53.679  31.289  53.034  0.00  0.00     0.001 A 
ATOM     30  C   UNL d   1      53.669  30.461  52.971  0.00  0.00     0.000 A 
ATOM     31  C   UNL d   1      53.365  30.002  53.581  0.00  0.00     0.000 A 
ATOM     32  C   UNL d   1      53.067  30.365  54.261  0.00  0.00     0.000 A 
ATOM     33  C   UNL d   1      53.071  31.186  54.333  0.00  0.00     0.001 A 
ENDBRANCH  21  28
ENDBRANCH   3  21
TORSDOF 6
ENDMDL
MODEL 3
REMARK VINA RESULT:      -8.9      1.393      2.024
REMARK  6 active torsions:
REMARK  status: ('A' for Active; 'I' for Inactive)
REMARK    1  A    between atoms: C_9  and  N_2 
REMARK       I    between atoms: N_5  and  C_6 
REMARK    2  A    between atoms: C_6  and  C_10 
REMARK    3  A    between atoms: C_11  and  N_7 
REMARK    4  A    between atoms: C_10  and  C_9 
REMARK    5  A    between atoms: C_18  and  C_11 
REMARK    6  A    between atoms: C_19  and  C_11 
ROOT
ATOM      1  N   UNL d   1      49.886  34.515  52.089  0.00  0.00    -0.269 N 
ATOM      2  C   UNL d   1      49.205  34.811  51.737  0.00  0.00     0.266 C 
ATOM      3  N   UNL d   1      51.260  33.918  52.805  0.00  0.00    -0.301 N 
ATOM      4  C   UNL d   1      49.950  34.503  52.918  0.00  0.00     0.102 A 
ATOM      5  C   UNL d   1      50.502  34.232  51.629  0.00  0.00     0.102 A 
ATOM      6  C   UNL d   1      51.189  33.934  51.986  0.00  0.00     0.100 A 
ATOM      7  C   UNL d   1      50.628  34.208  53.274  0.00  0.00     0.100 A 
ATOM      8  O   UNL d   1      49.143  34.823  50.914  0.00  0.00    -0.267 OA
ENDROOT
BRANCH   2   9
ATOM      9  C   UNL d   1      48.585  35.096  52.199  0.00  0.00     0.080 C 
BRANCH   9  10
ATOM     10  C   UNL d   1      48.060  35.652  51.897  0.00  0.00     0.090 C 
BRANCH  10  11
ATOM     11  N   UNL d   1      47.440  35.933  52.360  0.00  0.00    -0.251 N 
ATOM     12  C   UNL d   1      47.510  36.419  53.020  0.00  0.00     0.378 A 
ATOM     13  O   UNL d   1      46.729  36.523  53.258  0.00  0.00    -0.258 OA
ATOM     14  O   UNL d   1      48.215  36.709  53.335  0.00  0.00    -0.237 OA
ATOM     15  C   UNL d   1      46.214  36.166  52.828  0.00  0.00     0.121 A 
ATOM     16  C   UNL d   1      45.387  36.109  52.850  0.00  0.00     0.026 A 
ATOM     17  C   UNL d   1      46.639  35.775  52.239  0.00  0.00     0.092 A 
ATOM     18  C   UNL d   1      44.986  35.659  52.279  0.00  0.00     0.002 A 
ATOM     19  C   UNL d   1      45.422  35.272  51.694  0.00  0.00     0.002 A 
ATOM     20  C   UNL d   1      46.246  35.332  51.675  0.00  0.00     0.020 A 
ENDBRANCH  10  11
ENDBRANCH   9  10
ENDBRANCH   2   9
BRANCH   3  21
ATOM     21  C   UNL d   1      51.942  33.622  53.176  0.00  0.00     0.064 C 
BRANCH  21  22
ATOM     22  C   UNL d   1      52.144  32.827  53.118  0.00  0.00     0.016 A 
ATOM     23  C   UNL d   1      51.684  32.259  53.500  0.00  0.00     0.001 A 
ATOM     24  C   UNL d   1      51.886  31.463  53.441  0.00  0.00     0.000 A 
ATOM     25  C   UNL d   1      52.547  31.236  53.002  0.00  0.00     0.000 A 
ATOM     26  C   UNL d   1      53.004  31.805  52.622  0.00  0.00     0.000 A 
ATOM     27  C   UNL d   1      52.802  32.601  52.680  0.00  0.00     0.001 A 
ENDBRANCH  21  22
BRANCH  21  28
ATOM     28  C   UNL d   1      52.421  34.145  53.608  0.00  0.00     0.016 A 
ATOM     29  C   UNL d   1      52.883  34.699  53.194  0.00  0.00     0.001 A 
ATOM     30  C   UNL d   1      53.361  35.222  53.627  0.00  0.00     0.000 A 
ATOM     31  C   UNL d   1      53.375  35.189  54.448  0.00  0.00     0.000 A 
ATOM     32  C   UNL d   1      52.912  34.633  54.846  0.00  0.00     0.000 A 
ATOM     33  C   UNL d   1      52.433  34.109  54.426  0.00  0.00     0.001 A 
ENDBRANCH  21  28
ENDBRANCH   3  21
TORSDOF 6
ENDMDL
MODEL 4
REMARK VINA RESULT:      -8.9      1.526      2.833
REMARK  6 active torsions:
REMARK  status: ('A' for Active; 'I' for Inactive)
REMARK    1  A    between atoms: C_9  and  N_2 
REMARK       I    between atoms: N_5  and  C_6 
REMARK    2  A    between atoms: C_6  and  C_10 
REMARK    3  A    between atoms: C_11  and  N_7 
REMARK    4  A    between atoms: C_10  and  C_9 
REMARK    5  A    between atoms: C_18  and  C_11 
REMARK    6  A    between atoms: C_19  and  C_11 
ROOT
ATOM      1  N   UNL d   1      49.955  34.460  51.897  0.00  0.00    -0.269 N 
ATOM      2  C   UNL d   1      49.291  34.720  51.489  0.00  0.00     0.266 C 
ATOM      3  N   UNL d   1      51.293  33.935  52.727  0.00  0.00    -0.301 N 
ATOM      4  C   UNL d   1      49.914  34.344  52.719  0.00  0.00     0.102 A 
ATOM      5  C   UNL d   1      50.656  34.314  51.499  0.00  0.00     0.102 A 
ATOM      6  C   UNL d   1      51.326  34.052  51.913  0.00  0.00     0.100 A 
ATOM      7  C   UNL d   1      50.575  34.084  53.132  0.00  0.00     0.100 A 
ATOM      8  O   UNL d   1      49.333  34.834  50.672  0.00  0.00    -0.267 OA
ENDROOT
BRANCH   2   9
ATOM      9  C   UNL d   1      48.585  34.866  51.887  0.00  0.00     0.080 C 
BRANCH   9  10
ATOM     10  C   UNL d   1      48.121  35.516  51.690  0.00  0.00     0.090 C 
BRANCH  10  11
ATOM     11  N   UNL d   1      47.356  35.585  51.985  0.00  0.00    -0.251 N 
ATOM     12  C   UNL d   1      46.673  35.284  51.639  0.00  0.00     0.378 A 
ATOM     13  O   UNL d   1      46.081  35.513  52.162  0.00  0.00    -0.258 OA
ATOM     14  O   UNL d   1      46.637  34.858  50.933  0.00  0.00    -0.237 OA
ATOM     15  C   UNL d   1      46.323  35.906  52.765  0.00  0.00     0.121 A 
ATOM     16  C   UNL d   1      45.944  36.244  53.421  0.00  0.00     0.026 A 
ATOM     17  C   UNL d   1      47.142  35.971  52.683  0.00  0.00     0.092 A 
ATOM     18  C   UNL d   1      46.388  36.648  53.995  0.00  0.00     0.002 A 
ATOM     19  C   UNL d   1      47.206  36.706  53.902  0.00  0.00     0.002 A 
ATOM     20  C   UNL d   1      47.580  36.368  53.247  0.00  0.00     0.020 A 
ENDBRANCH  10  11
ENDBRANCH   9  10
ENDBRANCH   2   9
BRANCH   3  21
ATOM     21  C   UNL d   1      51.957  33.672  53.154  0.00  0.00     0.064 C 
BRANCH  21  22
ATOM     22  C   UNL d   1      52.402  34.193  53.608  0.00  0.00     0.016 A 
ATOM     23  C   UNL d   1      52.907  34.730  53.239  0.00  0.00     0.001 A 
ATOM     24  C   UNL d   1      53.352  35.251  53.694  0.00  0.00     0.000 A 
ATOM     25  C   UNL d   1      53.291  35.236  54.517  0.00  0.00     0.000 A 
ATOM     26  C   UNL d   1      52.786  34.700  54.882  0.00  0.00     0.000 A 
ATOM     27  C   UNL d   1      52.341  34.179  54.427  0.00  0.00     0.001 A 
ENDBRANCH  21  22
BRANCH  21  28
ATOM     28  C   UNL d   1      52.165  32.869  53.114  0.00  0.00     0.016 A 
ATOM     29  C   UNL d   1      52.881  32.659  52.745  0.00  0.00     0.001 A 
ATOM     30  C   UNL d   1      53.089  31.856  52.705  0.00  0.00     0.000 A 
ATOM     31  C   UNL d   1      52.593  31.283  53.025  0.00  0.00     0.000 A 
ATOM     32  C   UNL d   1      51.886  31.505  53.388  0.00  0.00     0.000 A 
ATOM     33  C   UNL d   1      51.670  32.300  53.433  0.00  0.00     0.001 A 
ENDBRANCH  21  28
ENDBRANCH   3  21
TORSDOF 6
ENDMDL
