MODEL 1
REMARK VINA RESULT:      -4.2      0.000      0.000
REMARK  6 active torsions:
REMARK  status: ('A' for Active; 'I' for Inactive)
REMARK    1  A    between atoms: C_7  and  C_1 
REMARK    2  A    between atoms: N_5  and  C_3 
REMARK       I    between atoms: C_9  and  N_5 
REMARK    3  A    between atoms: C_8  and  S_11 
REMARK    4  A    between atoms: C_13  and  C_9 
REMARK    5  A    between atoms: S_11  and  C_13 
REMARK    6  A    between atoms: O_17  and  C_14 
ROOT
ATOM      1  C   UNL d   1      58.563  -0.463  29.756  0.00  0.00     0.137 A 
ATOM      2  S   UNL d   1      58.472  -0.305  30.567  0.00  0.00    -0.026 SA
ATOM      3  C   UNL d   1      57.734   0.050  30.682  0.00  0.00     0.219 A 
ATOM      4  N   UNL d   1      57.874  -0.201  29.370  0.00  0.00    -0.139 NA
ATOM      5  N   UNL d   1      57.362   0.116  29.941  0.00  0.00    -0.121 NA
ENDROOT
BRANCH   3   6
ATOM      6  N   UNL d   1      57.417   0.299  31.402  0.00  0.00    -0.181 NA
ATOM      7  C   UNL d   1      57.023  -0.238  31.898  0.00  0.00     0.287 C 
ATOM      8  O   UNL d   1      56.949  -1.028  31.664  0.00  0.00    -0.265 OA
BRANCH   7   9
ATOM      9  C   UNL d   1      56.707   0.018  32.620  0.00  0.00     0.089 C 
ATOM     10  C   UNL d   1      57.054   0.651  33.019  0.00  0.00     0.012 C 
BRANCH   9  11
ATOM     11  S   UNL d   1      56.040  -0.369  32.934  0.00  0.00    -0.057 SA
BRANCH  11  12
ATOM     12  C   UNL d   1      55.601   0.008  33.524  0.00  0.00     0.141 A 
ATOM     13  N   UNL d   1      55.809   0.095  34.326  0.00  0.00    -0.230 NA
ATOM     14  C   UNL d   1      55.201   0.509  34.710  0.00  0.00     0.107 A 
ATOM     15  C   UNL d   1      54.610   0.682  34.150  0.00  0.00     0.058 A 
ATOM     16  S   UNL d   1      54.856   0.373  33.416  0.00  0.00    -0.059 SA
ENDBRANCH  11  12
ENDBRANCH   9  11
ENDBRANCH   7   9
ENDBRANCH   3   6
BRANCH   1  17
ATOM     17  C   UNL d   1      59.219  -0.816  29.391  0.00  0.00     0.048 A 
ATOM     18  C   UNL d   1      59.210  -1.605  29.196  0.00  0.00     0.096 A 
ATOM     19  C   UNL d   1      59.856  -1.947  28.838  0.00  0.00     0.024 A 
ATOM     20  C   UNL d   1      60.507  -1.478  28.682  0.00  0.00     0.002 A 
ATOM     21  C   UNL d   1      60.528  -0.703  28.868  0.00  0.00     0.000 A 
ATOM     22  C   UNL d   1      59.879  -0.358  29.228  0.00  0.00     0.004 A 
BRANCH  18  23
ATOM     23  O   UNL d   1      58.561  -2.062  29.354  0.00  0.00    -0.328 OA
ATOM     24  C   UNL d   1      58.557  -2.888  28.912  0.00  0.00     0.181 C 
ENDBRANCH  18  23
ENDBRANCH   1  17
TORSDOF 6
ENDMDL
MODEL 2
REMARK VINA RESULT:      -3.8      1.379      5.381
REMARK  6 active torsions:
REMARK  status: ('A' for Active; 'I' for Inactive)
REMARK    1  A    between atoms: C_7  and  C_1 
REMARK    2  A    between atoms: N_5  and  C_3 
REMARK       I    between atoms: C_9  and  N_5 
REMARK    3  A    between atoms: C_8  and  S_11 
REMARK    4  A    between atoms: C_13  and  C_9 
REMARK    5  A    between atoms: S_11  and  C_13 
REMARK    6  A    between atoms: O_17  and  C_14 
ROOT
ATOM      1  C   UNL d   1      56.437  -0.087  32.365  0.00  0.00     0.137 A 
ATOM      2  S   UNL d   1      56.829   0.389  31.809  0.00  0.00    -0.026 SA
ATOM      3  C   UNL d   1      57.166  -0.103  31.236  0.00  0.00     0.219 A 
ATOM      4  N   UNL d   1      56.535  -0.880  32.130  0.00  0.00    -0.139 NA
ATOM      5  N   UNL d   1      56.984  -0.889  31.434  0.00  0.00    -0.121 NA
ENDROOT
BRANCH   3   6
ATOM      6  N   UNL d   1      57.606   0.139  30.581  0.00  0.00    -0.181 NA
ATOM      7  C   UNL d   1      58.077  -0.403  30.165  0.00  0.00     0.287 C 
ATOM      8  O   UNL d   1      58.102  -1.192  30.411  0.00  0.00    -0.265 OA
BRANCH   7   9
ATOM      9  C   UNL d   1      58.516  -0.154  29.508  0.00  0.00     0.089 C 
ATOM     10  C   UNL d   1      58.427  -0.538  28.783  0.00  0.00     0.012 C 
BRANCH   9  11
ATOM     11  S   UNL d   1      59.045   0.485  29.588  0.00  0.00    -0.057 SA
BRANCH  11  12
ATOM     12  C   UNL d   1      59.832   0.384  29.359  0.00  0.00     0.141 A 
ATOM     13  N   UNL d   1      60.434  -0.004  29.786  0.00  0.00    -0.230 NA
ATOM     14  C   UNL d   1      61.133   0.031  29.343  0.00  0.00     0.107 A 
ATOM     15  C   UNL d   1      60.973   0.440  28.636  0.00  0.00     0.058 A 
ATOM     16  S   UNL d   1      60.169   0.660  28.645  0.00  0.00    -0.059 SA
ENDBRANCH  11  12
ENDBRANCH   9  11
ENDBRANCH   7   9
ENDBRANCH   3   6
BRANCH   1  17
ATOM     17  C   UNL d   1      56.021   0.172  33.034  0.00  0.00     0.048 A 
ATOM     18  C   UNL d   1      56.409   0.315  33.734  0.00  0.00     0.096 A 
ATOM     19  C   UNL d   1      55.997   0.569  34.388  0.00  0.00     0.024 A 
ATOM     20  C   UNL d   1      55.189   0.676  34.321  0.00  0.00     0.002 A 
ATOM     21  C   UNL d   1      54.797   0.540  33.640  0.00  0.00     0.000 A 
ATOM     22  C   UNL d   1      55.210   0.284  32.982  0.00  0.00     0.004 A 
BRANCH  18  23
ATOM     23  O   UNL d   1      57.209   0.206  33.792  0.00  0.00    -0.328 OA
ATOM     24  C   UNL d   1      57.611   0.682  34.492  0.00  0.00     0.181 C 
ENDBRANCH  18  23
ENDBRANCH   1  17
TORSDOF 6
ENDMDL
MODEL 3
REMARK VINA RESULT:      -1.3      1.375      5.326
REMARK  6 active torsions:
REMARK  status: ('A' for Active; 'I' for Inactive)
REMARK    1  A    between atoms: C_7  and  C_1 
REMARK    2  A    between atoms: N_5  and  C_3 
REMARK       I    between atoms: C_9  and  N_5 
REMARK    3  A    between atoms: C_8  and  S_11 
REMARK    4  A    between atoms: C_13  and  C_9 
REMARK    5  A    between atoms: S_11  and  C_13 
REMARK    6  A    between atoms: O_17  and  C_14 
ROOT
ATOM      1  C   UNL d   1      56.756   0.102  32.882  0.00  0.00     0.137 A 
ATOM      2  S   UNL d   1      56.834   0.430  32.124  0.00  0.00    -0.026 SA
ATOM      3  C   UNL d   1      57.614   0.321  31.872  0.00  0.00     0.219 A 
ATOM      4  N   UNL d   1      57.496  -0.212  33.098  0.00  0.00    -0.139 NA
ATOM      5  N   UNL d   1      58.025  -0.078  32.475  0.00  0.00    -0.121 NA
ENDROOT
BRANCH   3   6
ATOM      6  N   UNL d   1      57.934   0.562  31.150  0.00  0.00    -0.181 NA
ATOM      7  C   UNL d   1      58.049   0.016  30.535  0.00  0.00     0.287 C 
ATOM      8  O   UNL d   1      57.840  -0.776  30.651  0.00  0.00    -0.265 OA
BRANCH   7   9
ATOM      9  C   UNL d   1      58.371   0.265  29.814  0.00  0.00     0.089 C 
ATOM     10  C   UNL d   1      57.937   0.175  29.118  0.00  0.00     0.012 C 
BRANCH   9  11
ATOM     11  S   UNL d   1      59.131   0.603  29.800  0.00  0.00    -0.057 SA
BRANCH  11  12
ATOM     12  C   UNL d   1      59.721   0.245  29.346  0.00  0.00     0.141 A 
ATOM     13  N   UNL d   1      59.619  -0.346  28.766  0.00  0.00    -0.230 NA
ATOM     14  C   UNL d   1      60.363  -0.538  28.456  0.00  0.00     0.107 A 
ATOM     15  C   UNL d   1      60.935  -0.069  28.839  0.00  0.00     0.058 A 
ATOM     16  S   UNL d   1      60.539   0.415  29.389  0.00  0.00    -0.059 SA
ENDBRANCH  11  12
ENDBRANCH   9  11
ENDBRANCH   7   9
ENDBRANCH   3   6
BRANCH   1  17
ATOM     17  C   UNL d   1      56.068   0.086  33.347  0.00  0.00     0.048 A 
ATOM     18  C   UNL d   1      55.522  -0.509  33.260  0.00  0.00     0.096 A 
ATOM     19  C   UNL d   1      54.850  -0.520  33.718  0.00  0.00     0.024 A 
ATOM     20  C   UNL d   1      54.741   0.080  34.262  0.00  0.00     0.002 A 
ATOM     21  C   UNL d   1      55.269   0.670  34.357  0.00  0.00     0.000 A 
ATOM     22  C   UNL d   1      55.946   0.682  33.897  0.00  0.00     0.004 A 
BRANCH  18  23
ATOM     23  O   UNL d   1      55.638  -1.100  32.719  0.00  0.00    -0.328 OA
ATOM     24  C   UNL d   1      55.263  -1.923  32.963  0.00  0.00     0.181 C 
ENDBRANCH  18  23
ENDBRANCH   1  17
TORSDOF 6
ENDMDL
