MODEL 1
REMARK VINA RESULT:      -8.4      0.000      0.000
REMARK  9 active torsions:
REMARK  status: ('A' for Active; 'I' for Inactive)
REMARK    1  A    between atoms: C_10  and  S_1 
REMARK    2  A    between atoms: N_11  and  S_1 
REMARK    3  A    between atoms: C_8  and  C_2 
REMARK    4  A    between atoms: C_3  and  N_6 
REMARK       I    between atoms: N_6  and  C_9 
REMARK    5  A    between atoms: C_9  and  C_14 
REMARK    6  A    between atoms: C_23  and  N_11 
REMARK    7  A    between atoms: C_24  and  N_11 
REMARK    8  A    between atoms: C_26  and  C_24 
REMARK    9  A    between atoms: C_27  and  C_26 
ROOT
ATOM      1  C   UNL d   1      51.910  34.247  53.422  0.00  0.00     0.104 A 
ATOM      2  C   UNL d   1      53.330  34.032  54.252  0.00  0.00     0.058 A 
ATOM      3  C   UNL d   1      52.627  34.500  53.102  0.00  0.00     0.013 A 
ATOM      4  C   UNL d   1      51.910  33.889  54.152  0.00  0.00     0.013 A 
ATOM      5  C   UNL d   1      53.334  34.389  53.523  0.00  0.00     0.005 A 
ATOM      6  C   UNL d   1      52.612  33.779  54.571  0.00  0.00     0.005 A 
ENDROOT
BRANCH   2   7
ATOM      7  C   UNL d   1      54.044  33.921  54.674  0.00  0.00     0.282 C 
ATOM      8  N   UNL d   1      54.503  33.244  54.547  0.00  0.00    -0.165 NA
ATOM      9  O   UNL d   1      54.287  34.480  55.209  0.00  0.00    -0.265 OA
BRANCH   8  10
ATOM     10  C   UNL d   1      54.261  32.685  54.012  0.00  0.00     0.297 A 
ATOM     11  O   UNL d   1      53.974  31.957  54.276  0.00  0.00    -0.253 OA
ATOM     12  C   UNL d   1      53.774  31.513  53.615  0.00  0.00     0.207 A 
ATOM     13  N   UNL d   1      53.938  31.966  52.953  0.00  0.00    -0.119 NA
ATOM     14  N   UNL d   1      54.240  32.694  53.193  0.00  0.00    -0.101 NA
BRANCH  12  15
ATOM     15  C   UNL d   1      53.467  30.749  53.682  0.00  0.00     0.054 A 
ATOM     16  C   UNL d   1      52.940  30.477  53.110  0.00  0.00     0.061 A 
ATOM     17 CL   UNL d   1      52.724  30.961  52.480  0.00  0.00    -0.082 Cl
ATOM     18  C   UNL d   1      52.633  29.716  53.175  0.00  0.00     0.011 A 
ATOM     19  C   UNL d   1      52.843  29.215  53.808  0.00  0.00     0.001 A 
ATOM     20  C   UNL d   1      53.364  29.483  54.375  0.00  0.00     0.000 A 
ATOM     21  C   UNL d   1      53.677  30.254  54.311  0.00  0.00     0.004 A 
ENDBRANCH  12  15
ENDBRANCH   8  10
ENDBRANCH   2   7
BRANCH   1  22
ATOM     22  S   UNL d   1      51.193  34.353  53.007  0.00  0.00     0.271 S 
ATOM     23  O   UNL d   1      50.850  33.718  53.416  0.00  0.00    -0.200 OA
ATOM     24  O   UNL d   1      51.536  34.985  52.601  0.00  0.00    -0.200 OA
BRANCH  22  25
ATOM     25  N   UNL d   1      50.465  34.461  52.586  0.00  0.00    -0.229 N 
BRANCH  25  26
ATOM     26  C   UNL d   1      50.440  34.422  51.763  0.00  0.00     0.092 C 
ATOM     27  C   UNL d   1      49.926  33.896  51.388  0.00  0.00     0.021 C 
ENDBRANCH  25  26
BRANCH  25  28
ATOM     28  C   UNL d   1      49.775  34.608  53.011  0.00  0.00     0.092 C 
BRANCH  28  29
ATOM     29  C   UNL d   1      49.291  35.237  52.791  0.00  0.00     0.020 C 
BRANCH  29  30
ATOM     30  C   UNL d   1      48.731  35.520  53.322  0.00  0.00     0.002 C 
ATOM     31  C   UNL d   1      48.135  36.024  53.057  0.00  0.00     0.000 C 
ENDBRANCH  29  30
ENDBRANCH  28  29
ENDBRANCH  25  28
ENDBRANCH  22  25
ENDBRANCH   1  22
TORSDOF 9
ENDMDL
MODEL 2
REMARK VINA RESULT:      -7.8      1.444      4.569
REMARK  9 active torsions:
REMARK  status: ('A' for Active; 'I' for Inactive)
REMARK    1  A    between atoms: C_10  and  S_1 
REMARK    2  A    between atoms: N_11  and  S_1 
REMARK    3  A    between atoms: C_8  and  C_2 
REMARK    4  A    between atoms: C_3  and  N_6 
REMARK       I    between atoms: N_6  and  C_9 
REMARK    5  A    between atoms: C_9  and  C_14 
REMARK    6  A    between atoms: C_23  and  N_11 
REMARK    7  A    between atoms: C_24  and  N_11 
REMARK    8  A    between atoms: C_26  and  C_24 
REMARK    9  A    between atoms: C_27  and  C_26 
ROOT
ATOM      1  C   UNL d   1      53.600  32.065  53.949  0.00  0.00     0.104 A 
ATOM      2  C   UNL d   1      53.843  33.623  54.464  0.00  0.00     0.058 A 
ATOM      3  C   UNL d   1      54.175  32.540  53.596  0.00  0.00     0.013 A 
ATOM      4  C   UNL d   1      53.153  32.372  54.554  0.00  0.00     0.013 A 
ATOM      5  C   UNL d   1      54.291  33.319  53.859  0.00  0.00     0.005 A 
ATOM      6  C   UNL d   1      53.269  33.147  54.816  0.00  0.00     0.005 A 
ENDROOT
BRANCH   2   7
ATOM      7  C   UNL d   1      53.963  34.408  54.726  0.00  0.00     0.282 C 
ATOM      8  N   UNL d   1      53.592  35.039  54.338  0.00  0.00    -0.165 NA
ATOM      9  O   UNL d   1      54.443  34.552  55.363  0.00  0.00    -0.265 OA
BRANCH   8  10
ATOM     10  C   UNL d   1      53.112  34.896  53.701  0.00  0.00     0.297 A 
ATOM     11  O   UNL d   1      52.292  34.886  53.795  0.00  0.00    -0.253 OA
ATOM     12  C   UNL d   1      51.957  34.729  53.062  0.00  0.00     0.207 A 
ATOM     13  N   UNL d   1      52.569  34.644  52.524  0.00  0.00    -0.119 NA
ATOM     14  N   UNL d   1      53.287  34.746  52.914  0.00  0.00    -0.101 NA
BRANCH  12  15
ATOM     15  C   UNL d   1      51.139  34.680  52.959  0.00  0.00     0.054 A 
ATOM     16  C   UNL d   1      50.840  34.292  52.297  0.00  0.00     0.061 A 
ATOM     17 CL   UNL d   1      51.352  33.957  51.745  0.00  0.00    -0.082 Cl
ATOM     18  C   UNL d   1      50.026  34.243  52.193  0.00  0.00     0.011 A 
ATOM     19  C   UNL d   1      49.495  34.578  52.744  0.00  0.00     0.001 A 
ATOM     20  C   UNL d   1      49.790  34.962  53.400  0.00  0.00     0.000 A 
ATOM     21  C   UNL d   1      50.616  35.014  53.507  0.00  0.00     0.004 A 
ENDBRANCH  12  15
ENDBRANCH   8  10
ENDBRANCH   2   7
BRANCH   1  22
ATOM     22  S   UNL d   1      53.475  31.280  53.692  0.00  0.00     0.271 S 
ATOM     23  O   UNL d   1      52.654  31.383  53.742  0.00  0.00    -0.200 OA
ATOM     24  O   UNL d   1      54.293  31.178  53.643  0.00  0.00    -0.200 OA
BRANCH  22  25
ATOM     25  N   UNL d   1      53.348  30.483  53.432  0.00  0.00    -0.229 N 
BRANCH  25  26
ATOM     26  C   UNL d   1      52.858  30.319  52.789  0.00  0.00     0.092 C 
ATOM     27  C   UNL d   1      53.161  29.938  52.122  0.00  0.00     0.021 C 
ENDBRANCH  25  26
BRANCH  25  28
ATOM     28  C   UNL d   1      53.722  29.867  53.830  0.00  0.00     0.092 C 
BRANCH  28  29
ATOM     29  C   UNL d   1      53.266  29.299  54.214  0.00  0.00     0.020 C 
BRANCH  29  30
ATOM     30  C   UNL d   1      53.639  28.692  54.625  0.00  0.00     0.002 C 
ATOM     31  C   UNL d   1      53.321  28.425  55.337  0.00  0.00     0.000 C 
ENDBRANCH  29  30
ENDBRANCH  28  29
ENDBRANCH  25  28
ENDBRANCH  22  25
ENDBRANCH   1  22
TORSDOF 9
ENDMDL
