MODEL 1
REMARK VINA RESULT:      -7.7      0.000      0.000
REMARK  3 active torsions:
REMARK  status: ('A' for Active; 'I' for Inactive)
REMARK       I    between atoms: C_2  and  N_1 
REMARK    1  A    between atoms: C_6  and  C_2 
REMARK    2  A    between atoms: O_14  and  C_9 
REMARK    3  A    between atoms: O_16  and  C_11 
ROOT
ATOM      1  C   UNL d   1     -47.767  13.203  23.059  0.00  0.00     0.060 A 
ATOM      2  C   UNL d   1     -47.047  13.388  22.709  0.00  0.00     0.031 A 
ATOM      3  C   UNL d   1     -46.387  12.917  22.839  0.00  0.00     0.116 A 
ATOM      4  C   UNL d   1     -46.447  12.250  23.327  0.00  0.00     0.116 A 
ATOM      5  C   UNL d   1     -47.827  12.535  23.547  0.00  0.00     0.007 A 
ATOM      6  C   UNL d   1     -47.167  12.060  23.680  0.00  0.00     0.026 A 
ENDROOT
BRANCH   1   7
ATOM      7  C   UNL d   1     -48.425  13.677  22.927  0.00  0.00     0.280 C 
ATOM      8  N   UNL d   1     -49.006  13.431  22.400  0.00  0.00    -0.195 N 
ATOM      9  N   UNL d   1     -49.700  13.847  22.209  0.00  0.00    -0.163 NA
ATOM     10  C   UNL d   1     -49.006  12.730  21.969  0.00  0.00     0.088 A 
ATOM     11  C   UNL d   1     -50.125  13.400  21.660  0.00  0.00     0.103 A 
ATOM     12  C   UNL d   1     -50.850  13.608  21.320  0.00  0.00     0.022 C 
ATOM     13  C   UNL d   1     -49.700  12.711  21.510  0.00  0.00     0.040 A 
ATOM     14  C   UNL d   1     -48.420  12.146  21.988  0.00  0.00     0.021 C 
ATOM     15  O   UNL d   1     -48.502  14.397  23.320  0.00  0.00    -0.265 OA
ENDBRANCH   1   7
BRANCH   3  16
ATOM     16  O   UNL d   1     -45.668  13.106  22.487  0.00  0.00    -0.326 OA
ATOM     17  C   UNL d   1     -45.484  13.894  22.322  0.00  0.00     0.181 C 
ENDBRANCH   3  16
BRANCH   4  18
ATOM     18  O   UNL d   1     -45.788  11.778  23.458  0.00  0.00    -0.326 OA
ATOM     19  C   UNL d   1     -45.877  10.995  23.698  0.00  0.00     0.181 C 
ENDBRANCH   4  18
TORSDOF 3
ENDMDL
MODEL 2
REMARK VINA RESULT:      -7.2      1.795      3.860
REMARK  3 active torsions:
REMARK  status: ('A' for Active; 'I' for Inactive)
REMARK       I    between atoms: C_2  and  N_1 
REMARK    1  A    between atoms: C_6  and  C_2 
REMARK    2  A    between atoms: O_14  and  C_9 
REMARK    3  A    between atoms: O_16  and  C_11 
ROOT
ATOM      1  C   UNL d   1     -48.796  13.397  22.185  0.00  0.00     0.060 A 
ATOM      2  C   UNL d   1     -49.236  12.954  22.720  0.00  0.00     0.031 A 
ATOM      3  C   UNL d   1     -49.912  13.268  23.065  0.00  0.00     0.116 A 
ATOM      4  C   UNL d   1     -50.152  14.038  22.874  0.00  0.00     0.116 A 
ATOM      5  C   UNL d   1     -49.036  14.167  21.993  0.00  0.00     0.007 A 
ATOM      6  C   UNL d   1     -49.714  14.486  22.338  0.00  0.00     0.026 A 
ENDROOT
BRANCH   1   7
ATOM      7  C   UNL d   1     -48.121  13.078  21.842  0.00  0.00     0.280 C 
ATOM      8  N   UNL d   1     -47.379  13.288  22.127  0.00  0.00    -0.195 N 
ATOM      9  N   UNL d   1     -46.649  13.014  21.839  0.00  0.00    -0.163 NA
ATOM     10  C   UNL d   1     -47.227  13.806  22.748  0.00  0.00     0.088 A 
ATOM     11  C   UNL d   1     -46.049  13.365  22.285  0.00  0.00     0.103 A 
ATOM     12  C   UNL d   1     -45.236  13.246  22.185  0.00  0.00     0.022 C 
ATOM     13  C   UNL d   1     -46.401  13.854  22.845  0.00  0.00     0.040 A 
ATOM     14  C   UNL d   1     -47.793  14.210  23.197  0.00  0.00     0.021 C 
ATOM     15  O   UNL d   1     -48.187  12.549  21.213  0.00  0.00    -0.265 OA
ENDBRANCH   1   7
BRANCH   3  16
ATOM     16  O   UNL d   1     -50.349  12.822  23.600  0.00  0.00    -0.326 OA
ATOM     17  C   UNL d   1     -50.409  12.004  23.502  0.00  0.00     0.181 C 
ENDBRANCH   3  16
BRANCH   4  18
ATOM     18  O   UNL d   1     -50.827  14.354  23.218  0.00  0.00    -0.326 OA
ATOM     19  C   UNL d   1     -51.061  15.125  23.046  0.00  0.00     0.181 C 
ENDBRANCH   4  18
TORSDOF 3
ENDMDL
MODEL 3
REMARK VINA RESULT:      -5.9      1.736      3.746
REMARK  3 active torsions:
REMARK  status: ('A' for Active; 'I' for Inactive)
REMARK       I    between atoms: C_2  and  N_1 
REMARK    1  A    between atoms: C_6  and  C_2 
REMARK    2  A    between atoms: O_14  and  C_9 
REMARK    3  A    between atoms: O_16  and  C_11 
ROOT
ATOM      1  C   UNL d   1     -47.656  12.214  23.144  0.00  0.00     0.060 A 
ATOM      2  C   UNL d   1     -47.944  12.311  22.380  0.00  0.00     0.031 A 
ATOM      3  C   UNL d   1     -48.264  13.029  22.143  0.00  0.00     0.116 A 
ATOM      4  C   UNL d   1     -48.296  13.662  22.678  0.00  0.00     0.116 A 
ATOM      5  C   UNL d   1     -47.688  12.846  23.679  0.00  0.00     0.007 A 
ATOM      6  C   UNL d   1     -48.008  13.570  23.445  0.00  0.00     0.026 A 
ENDROOT
BRANCH   1   7
ATOM      7  C   UNL d   1     -47.337  11.493  23.377  0.00  0.00     0.280 C 
ATOM      8  N   UNL d   1     -46.522  11.391  23.386  0.00  0.00    -0.195 N 
ATOM      9  N   UNL d   1     -46.119  10.698  23.607  0.00  0.00    -0.163 NA
ATOM     10  C   UNL d   1     -45.960  11.954  23.179  0.00  0.00     0.088 A 
ATOM     11  C   UNL d   1     -45.309  10.838  23.534  0.00  0.00     0.103 A 
ATOM     12  C   UNL d   1     -44.705  10.296  23.698  0.00  0.00     0.022 C 
ATOM     13  C   UNL d   1     -45.207  11.611  23.271  0.00  0.00     0.040 A 
ATOM     14  C   UNL d   1     -46.114  12.726  22.923  0.00  0.00     0.021 C 
ATOM     15  O   UNL d   1     -47.834  10.874  23.601  0.00  0.00    -0.265 OA
ENDBRANCH   1   7
BRANCH   3  16
ATOM     16  O   UNL d   1     -48.551  13.122  21.378  0.00  0.00    -0.326 OA
ATOM     17  C   UNL d   1     -49.106  12.590  21.079  0.00  0.00     0.181 C 
ENDBRANCH   3  16
BRANCH   4  18
ATOM     18  O   UNL d   1     -48.615  14.381  22.443  0.00  0.00    -0.326 OA
ATOM     19  C   UNL d   1     -48.371  15.082  22.800  0.00  0.00     0.181 C 
ENDBRANCH   4  18
TORSDOF 3
ENDMDL
MODEL 4
REMARK VINA RESULT:      -5.9      8.024     10.064
REMARK  3 active torsions:
REMARK  status: ('A' for Active; 'I' for Inactive)
REMARK       I    between atoms: C_2  and  N_1 
REMARK    1  A    between atoms: C_6  and  C_2 
REMARK    2  A    between atoms: O_14  and  C_9 
REMARK    3  A    between atoms: O_16  and  C_11 
ROOT
ATOM      1  C   UNL d   1     -39.837  14.502  17.659  0.00  0.00     0.060 A 
ATOM      2  C   UNL d   1     -39.179  14.031  17.508  0.00  0.00     0.031 A 
ATOM      3  C   UNL d   1     -38.641  14.243  16.925  0.00  0.00     0.116 A 
ATOM      4  C   UNL d   1     -38.761  14.936  16.486  0.00  0.00     0.116 A 
ATOM      5  C   UNL d   1     -39.957  15.194  17.220  0.00  0.00     0.007 A 
ATOM      6  C   UNL d   1     -39.418  15.410  16.634  0.00  0.00     0.026 A 
ENDROOT
BRANCH   1   7
ATOM      7  C   UNL d   1     -40.373  14.286  18.244  0.00  0.00     0.280 C 
ATOM      8  N   UNL d   1     -40.342  14.648  18.981  0.00  0.00    -0.195 N 
ATOM      9  N   UNL d   1     -40.844  14.490  19.624  0.00  0.00    -0.163 NA
ATOM     10  C   UNL d   1     -39.809  15.230  19.214  0.00  0.00     0.088 A 
ATOM     11  C   UNL d   1     -40.618  14.976  20.252  0.00  0.00     0.103 A 
ATOM     12  C   UNL d   1     -40.970  14.999  21.001  0.00  0.00     0.022 C 
ATOM     13  C   UNL d   1     -39.980  15.433  20.003  0.00  0.00     0.040 A 
ATOM     14  C   UNL d   1     -39.208  15.556  18.747  0.00  0.00     0.021 C 
ATOM     15  O   UNL d   1     -40.942  13.708  18.090  0.00  0.00    -0.265 OA
ENDBRANCH   1   7
BRANCH   3  16
ATOM     16  O   UNL d   1     -37.984  13.770  16.777  0.00  0.00    -0.326 OA
ATOM     17  C   UNL d   1     -38.003  12.968  16.969  0.00  0.00     0.181 C 
ENDBRANCH   3  16
BRANCH   4  18
ATOM     18  O   UNL d   1     -38.223  15.149  15.903  0.00  0.00    -0.326 OA
ATOM     19  C   UNL d   1     -38.286  15.878  15.525  0.00  0.00     0.181 C 
ENDBRANCH   4  18
TORSDOF 3
ENDMDL
MODEL 5
REMARK VINA RESULT:      -5.8      8.504      9.558
REMARK  3 active torsions:
REMARK  status: ('A' for Active; 'I' for Inactive)
REMARK       I    between atoms: C_2  and  N_1 
REMARK    1  A    between atoms: C_6  and  C_2 
REMARK    2  A    between atoms: O_14  and  C_9 
REMARK    3  A    between atoms: O_16  and  C_11 
ROOT
ATOM      1  C   UNL d   1     -39.509  15.365  19.032  0.00  0.00     0.060 A 
ATOM      2  C   UNL d   1     -39.468  14.614  18.698  0.00  0.00     0.031 A 
ATOM      3  C   UNL d   1     -39.958  14.410  18.071  0.00  0.00     0.116 A 
ATOM      4  C   UNL d   1     -40.498  14.964  17.773  0.00  0.00     0.116 A 
ATOM      5  C   UNL d   1     -40.049  15.919  18.734  0.00  0.00     0.007 A 
ATOM      6  C   UNL d   1     -40.542  15.717  18.105  0.00  0.00     0.026 A 
ENDROOT
BRANCH   1   7
ATOM      7  C   UNL d   1     -39.017  15.565  19.659  0.00  0.00     0.280 C 
ATOM      8  N   UNL d   1     -39.317  15.584  20.424  0.00  0.00    -0.195 N 
ATOM      9  N   UNL d   1     -38.890  15.775  21.111  0.00  0.00    -0.163 NA
ATOM     10  C   UNL d   1     -40.091  15.417  20.646  0.00  0.00     0.088 A 
ATOM     11  C   UNL d   1     -39.405  15.725  21.755  0.00  0.00     0.103 A 
ATOM     12  C   UNL d   1     -39.210  15.871  22.546  0.00  0.00     0.022 C 
ATOM     13  C   UNL d   1     -40.145  15.505  21.472  0.00  0.00     0.040 A 
ATOM     14  C   UNL d   1     -40.708  15.200  20.139  0.00  0.00     0.021 C 
ATOM     15  O   UNL d   1     -38.224  15.746  19.521  0.00  0.00    -0.265 OA
ENDBRANCH   1   7
BRANCH   3  16
ATOM     16  O   UNL d   1     -39.913  13.659  17.739  0.00  0.00    -0.326 OA
ATOM     17  C   UNL d   1     -39.190  13.263  17.710  0.00  0.00     0.181 C 
ENDBRANCH   3  16
BRANCH   4  18
ATOM     18  O   UNL d   1     -40.988  14.761  17.146  0.00  0.00    -0.326 OA
ATOM     19  C   UNL d   1     -41.370  15.346  16.711  0.00  0.00     0.181 C 
ENDBRANCH   4  18
TORSDOF 3
ENDMDL
MODEL 6
REMARK VINA RESULT:      -5.5      8.214      8.914
REMARK  3 active torsions:
REMARK  status: ('A' for Active; 'I' for Inactive)
REMARK       I    between atoms: C_2  and  N_1 
REMARK    1  A    between atoms: C_6  and  C_2 
REMARK    2  A    between atoms: O_14  and  C_9 
REMARK    3  A    between atoms: O_16  and  C_11 
ROOT
ATOM      1  C   UNL d   1     -40.232  14.593  19.873  0.00  0.00     0.060 A 
ATOM      2  C   UNL d   1     -39.501  14.266  20.059  0.00  0.00     0.031 A 
ATOM      3  C   UNL d   1     -39.111  14.484  20.749  0.00  0.00     0.116 A 
ATOM      4  C   UNL d   1     -39.457  15.037  21.261  0.00  0.00     0.116 A 
ATOM      5  C   UNL d   1     -40.578  15.146  20.384  0.00  0.00     0.007 A 
ATOM      6  C   UNL d   1     -40.189  15.367  21.078  0.00  0.00     0.026 A 
ENDROOT
BRANCH   1   7
ATOM      7  C   UNL d   1     -40.618  14.373  19.182  0.00  0.00     0.280 C 
ATOM      8  N   UNL d   1     -40.569  14.852  18.516  0.00  0.00    -0.195 N 
ATOM      9  N   UNL d   1     -40.928  14.704  17.780  0.00  0.00    -0.163 NA
ATOM     10  C   UNL d   1     -40.158  15.562  18.457  0.00  0.00     0.088 A 
ATOM     11  C   UNL d   1     -40.735  15.325  17.271  0.00  0.00     0.103 A 
ATOM     12  C   UNL d   1     -40.977  15.401  16.483  0.00  0.00     0.022 C 
ATOM     13  C   UNL d   1     -40.261  15.855  17.685  0.00  0.00     0.040 A 
ATOM     14  C   UNL d   1     -39.718  15.922  19.059  0.00  0.00     0.021 C 
ATOM     15  O   UNL d   1     -41.054  13.673  19.157  0.00  0.00    -0.265 OA
ENDBRANCH   1   7
BRANCH   3  16
ATOM     16  O   UNL d   1     -38.379  14.154  20.932  0.00  0.00    -0.326 OA
ATOM     17  C   UNL d   1     -38.224  13.366  20.745  0.00  0.00     0.181 C 
ENDBRANCH   3  16
BRANCH   4  18
ATOM     18  O   UNL d   1     -39.068  15.255  21.950  0.00  0.00    -0.326 OA
ATOM     19  C   UNL d   1     -39.370  15.856  22.426  0.00  0.00     0.181 C 
ENDBRANCH   4  18
TORSDOF 3
ENDMDL
MODEL 7
REMARK VINA RESULT:      -5.3      8.577     10.287
REMARK  3 active torsions:
REMARK  status: ('A' for Active; 'I' for Inactive)
REMARK       I    between atoms: C_2  and  N_1 
REMARK    1  A    between atoms: C_6  and  C_2 
REMARK    2  A    between atoms: O_14  and  C_9 
REMARK    3  A    between atoms: O_16  and  C_11 
ROOT
ATOM      1  C   UNL d   1     -39.494  14.081  18.275  0.00  0.00     0.060 A 
ATOM      2  C   UNL d   1     -39.038  14.160  18.955  0.00  0.00     0.031 A 
ATOM      3  C   UNL d   1     -39.283  14.651  19.566  0.00  0.00     0.116 A 
ATOM      4  C   UNL d   1     -39.995  15.071  19.497  0.00  0.00     0.116 A 
ATOM      5  C   UNL d   1     -40.206  14.501  18.206  0.00  0.00     0.007 A 
ATOM      6  C   UNL d   1     -40.455  14.995  18.818  0.00  0.00     0.026 A 
ENDROOT
BRANCH   1   7
ATOM      7  C   UNL d   1     -39.245  13.589  17.666  0.00  0.00     0.280 C 
ATOM      8  N   UNL d   1     -38.883  13.911  17.002  0.00  0.00    -0.195 N 
ATOM      9  N   UNL d   1     -38.603  13.487  16.344  0.00  0.00    -0.163 NA
ATOM     10  C   UNL d   1     -38.733  14.709  16.870  0.00  0.00     0.088 A 
ATOM     11  C   UNL d   1     -38.282  14.026  15.808  0.00  0.00     0.103 A 
ATOM     12  C   UNL d   1     -37.940  13.842  15.077  0.00  0.00     0.022 C 
ATOM     13  C   UNL d   1     -38.360  14.780  16.129  0.00  0.00     0.040 A 
ATOM     14  C   UNL d   1     -38.920  15.332  17.381  0.00  0.00     0.021 C 
ATOM     15  O   UNL d   1     -39.359  12.774  17.721  0.00  0.00    -0.265 OA
ENDBRANCH   1   7
BRANCH   3  16
ATOM     16  O   UNL d   1     -38.824  14.727  20.244  0.00  0.00    -0.326 OA
ATOM     17  C   UNL d   1     -38.434  14.069  20.554  0.00  0.00     0.181 C 
ENDBRANCH   3  16
BRANCH   4  18
ATOM     18  O   UNL d   1     -40.240  15.562  20.107  0.00  0.00    -0.326 OA
ATOM     19  C   UNL d   1     -40.981  15.921  20.080  0.00  0.00     0.181 C 
ENDBRANCH   4  18
TORSDOF 3
ENDMDL
