MODEL 1
REMARK VINA RESULT:      20.0      0.000      0.000
REMARK  3 active torsions:
REMARK  status: ('A' for Active; 'I' for Inactive)
REMARK    1  A    between atoms: N_7  and  S_1 
REMARK    2  A    between atoms: C_3  and  C_8 
REMARK    3  A    between atoms: C_13  and  N_7 
ROOT
ATOM      1  C   UNL d   1      58.473  49.698  50.473  0.00  0.00     0.018 A 
ATOM      2  C   UNL d   1      58.697  49.691  51.260  0.00  0.00     0.003 A 
ATOM      3  C   UNL d   1      59.046  49.706  49.878  0.00  0.00     0.003 A 
ATOM      4  C   UNL d   1      60.067  49.699  50.886  0.00  0.00     0.093 A 
ATOM      5  C   UNL d   1      59.493  49.692  51.469  0.00  0.00     0.020 A 
ATOM      6  C   UNL d   1      59.841  49.707  50.083  0.00  0.00     0.020 A 
ENDROOT
BRANCH   1   7
ATOM      7  C   UNL d   1      57.675  49.697  50.263  0.00  0.00     0.088 A 
ATOM      8  N   UNL d   1      57.379  49.705  49.494  0.00  0.00    -0.239 NA
ATOM      9  C   UNL d   1      56.561  49.701  49.536  0.00  0.00     0.111 A 
ATOM     10  C   UNL d   1      56.039  49.707  48.887  0.00  0.00     0.028 C 
ATOM     11  S   UNL d   1      56.344  49.690  50.333  0.00  0.00    -0.066 SA
ATOM     12  C   UNL d   1      57.038  49.688  50.785  0.00  0.00     0.056 A 
ENDBRANCH   1   7
BRANCH   4  13
ATOM     13  N   UNL d   1      60.869  49.700  51.087  0.00  0.00    -0.162 NA
BRANCH  13  14
ATOM     14  S   UNL d   1      61.124  49.128  51.626  0.00  0.00     0.266 S 
ATOM     15  O   UNL d   1      61.050  49.701  52.281  0.00  0.00    -0.203 OA
ATOM     16  O   UNL d   1      61.188  48.504  50.795  0.00  0.00    -0.203 OA
ATOM     17  C   UNL d   1      61.479  48.246  52.203  0.00  0.00     0.165 C 
ENDBRANCH  13  14
ENDBRANCH   4  13
TORSDOF 3
ENDMDL
