MODEL 1
REMARK VINA RESULT:     119.7      0.000      0.000
REMARK  3 active torsions:
REMARK  status: ('A' for Active; 'I' for Inactive)
REMARK    1  A    between atoms: N_2  and  S_1 
REMARK    2  A    between atoms: C_3  and  S_1 
REMARK    3  A    between atoms: C_5  and  N_4 
ROOT
ATOM      1  N   UNL d   1      61.310  45.842  50.551  0.00  0.00    -0.226 N 
ATOM      2  N   UNL d   1      61.805  44.295  50.258  0.00  0.00    -0.301 N 
ATOM      3  C   UNL d   1      61.857  45.692  49.942  0.00  0.00     0.111 A 
ATOM      4  C   UNL d   1      61.018  45.222  51.003  0.00  0.00     0.111 A 
ATOM      5  C   UNL d   1      61.266  44.449  50.857  0.00  0.00     0.100 A 
ATOM      6  C   UNL d   1      62.105  44.919  49.796  0.00  0.00     0.100 A 
ENDROOT
BRANCH   1   7
ATOM      7  S   UNL d   1      61.062  46.615  50.697  0.00  0.00     0.271 S 
ATOM      8  O   UNL d   1      60.662  46.359  51.371  0.00  0.00    -0.200 OA
ATOM      9  O   UNL d   1      61.462  46.871  50.022  0.00  0.00    -0.200 OA
BRANCH   7  10
ATOM     10  C   UNL d   1      60.814  47.388  50.844  0.00  0.00     0.104 A 
ATOM     11  C   UNL d   1      61.073  48.001  50.366  0.00  0.00     0.015 A 
ATOM     12  C   UNL d   1      60.826  48.773  50.512  0.00  0.00     0.028 A 
ATOM     13  C   UNL d   1      61.090  49.389  50.027  0.00  0.00     0.002 C 
ATOM     14  C   UNL d   1      60.318  48.932  51.136  0.00  0.00     0.140 A 
ATOM     15  C   UNL d   1      60.051  48.314  51.625  0.00  0.00     0.030 A 
ATOM     16  F   UNL d   1      60.071  49.705  51.282  0.00  0.00    -0.204 F 
ATOM     17  C   UNL d   1      60.299  47.542  51.479  0.00  0.00     0.015 A 
ENDBRANCH   7  10
ENDBRANCH   1   7
BRANCH   2  18
ATOM     18  C   UNL d   1      62.052  43.526  50.113  0.00  0.00     0.064 A 
ATOM     19  C   UNL d   1      61.869  43.161  49.401  0.00  0.00     0.016 A 
ATOM     20  C   UNL d   1      62.117  42.388  49.255  0.00  0.00     0.001 A 
ATOM     21  C   UNL d   1      61.434  43.571  48.828  0.00  0.00     0.002 C 
ATOM     22  C   UNL d   1      62.547  41.981  49.820  0.00  0.00     0.000 A 
ATOM     23  C   UNL d   1      62.737  42.343  50.544  0.00  0.00     0.001 A 
ATOM     24  C   UNL d   1      62.490  43.116  50.691  0.00  0.00     0.016 A 
ATOM     25  C   UNL d   1      62.673  43.481  51.403  0.00  0.00     0.002 C 
ENDBRANCH   2  18
TORSDOF 3
ENDMDL
