MODEL 1
REMARK VINA RESULT:      -6.3      0.000      0.000
REMARK  5 active torsions:
REMARK  status: ('A' for Active; 'I' for Inactive)
REMARK    1  A    between atoms: C_2  and  C_1 
REMARK    2  A    between atoms: O_4  and  C_2 
REMARK    3  A    between atoms: C_9  and  O_4 
REMARK    4  A    between atoms: C_5  and  C_9 
REMARK    5  A    between atoms: C_12  and  C_5 
ROOT
ATOM      1  C   UNL d   1     -47.774  13.734  22.742  0.00  0.00     0.168 C 
ENDROOT
BRANCH   1   2
ATOM      2  C   UNL d   1     -47.007  13.674  23.056  0.00  0.00     0.220 C 
ATOM      3  O   UNL d   1     -46.599  14.354  23.274  0.00  0.00    -0.284 OA
BRANCH   2   4
ATOM      4  C   UNL d   1     -46.662  12.929  23.145  0.00  0.00     0.041 A 
ATOM      5  C   UNL d   1     -45.949  12.767  22.756  0.00  0.00     0.003 A 
ATOM      6  C   UNL d   1     -45.603  12.027  22.843  0.00  0.00     0.000 A 
ATOM      7  C   UNL d   1     -45.962  11.453  23.311  0.00  0.00     0.000 A 
ATOM      8  C   UNL d   1     -46.677  11.625  23.697  0.00  0.00     0.000 A 
ATOM      9  C   UNL d   1     -47.022  12.365  23.609  0.00  0.00     0.003 A 
ENDBRANCH   2   4
ENDBRANCH   1   2
BRANCH   1  10
ATOM     10  O   UNL d   1     -48.243  14.380  22.931  0.00  0.00    -0.267 OA
BRANCH  10  11
ATOM     11  C   UNL d   1     -48.982  14.466  22.584  0.00  0.00     0.306 C 
ATOM     12  O   UNL d   1     -49.132  14.148  21.842  0.00  0.00    -0.258 OA
BRANCH  11  13
ATOM     13  C   UNL d   1     -49.579  14.876  22.986  0.00  0.00     0.093 A 
ATOM     14  S   UNL d   1     -50.311  14.571  23.210  0.00  0.00    -0.081 SA
ATOM     15  C   UNL d   1     -50.733  15.164  23.594  0.00  0.00     0.036 A 
ATOM     16  C   UNL d   1     -50.261  15.843  23.609  0.00  0.00     0.008 A 
ATOM     17  C   UNL d   1     -49.551  15.666  23.235  0.00  0.00     0.012 A 
ENDBRANCH  11  13
ENDBRANCH  10  11
ENDBRANCH   1  10
TORSDOF 5
ENDMDL
MODEL 2
REMARK VINA RESULT:      -6.1      2.304      4.150
REMARK  5 active torsions:
REMARK  status: ('A' for Active; 'I' for Inactive)
REMARK    1  A    between atoms: C_2  and  C_1 
REMARK    2  A    between atoms: O_4  and  C_2 
REMARK    3  A    between atoms: C_9  and  O_4 
REMARK    4  A    between atoms: C_5  and  C_9 
REMARK    5  A    between atoms: C_12  and  C_5 
ROOT
ATOM      1  C   UNL d   1     -48.077  12.403  23.232  0.00  0.00     0.168 C 
ENDROOT
BRANCH   1   2
ATOM      2  C   UNL d   1     -48.638  11.823  23.038  0.00  0.00     0.220 C 
ATOM      3  O   UNL d   1     -48.395  11.055  22.875  0.00  0.00    -0.284 OA
BRANCH   2   4
ATOM      4  C   UNL d   1     -49.438  12.025  23.012  0.00  0.00     0.041 A 
ATOM      5  C   UNL d   1     -49.756  12.321  22.307  0.00  0.00     0.003 A 
ATOM      6  C   UNL d   1     -50.551  12.524  22.277  0.00  0.00     0.000 A 
ATOM      7  C   UNL d   1     -51.027  12.432  22.942  0.00  0.00     0.000 A 
ATOM      8  C   UNL d   1     -50.701  12.134  23.645  0.00  0.00     0.000 A 
ATOM      9  C   UNL d   1     -49.905  11.932  23.673  0.00  0.00     0.003 A 
ENDBRANCH   2   4
ENDBRANCH   1   2
BRANCH   1  10
ATOM     10  O   UNL d   1     -47.305  12.330  22.965  0.00  0.00    -0.267 OA
BRANCH  10  11
ATOM     11  C   UNL d   1     -46.753  12.914  23.136  0.00  0.00     0.306 C 
ATOM     12  O   UNL d   1     -46.919  13.491  23.697  0.00  0.00    -0.258 OA
BRANCH  11  13
ATOM     13  C   UNL d   1     -46.026  12.921  22.740  0.00  0.00     0.093 A 
ATOM     14  S   UNL d   1     -45.763  13.503  22.219  0.00  0.00    -0.081 SA
ATOM     15  C   UNL d   1     -45.013  13.293  21.953  0.00  0.00     0.036 A 
ATOM     16  C   UNL d   1     -44.807  12.576  22.310  0.00  0.00     0.008 A 
ATOM     17  C   UNL d   1     -45.431  12.347  22.794  0.00  0.00     0.012 A 
ENDBRANCH  11  13
ENDBRANCH  10  11
ENDBRANCH   1  10
TORSDOF 5
ENDMDL
MODEL 3
REMARK VINA RESULT:      -4.0      1.291      4.240
REMARK  5 active torsions:
REMARK  status: ('A' for Active; 'I' for Inactive)
REMARK    1  A    between atoms: C_2  and  C_1 
REMARK    2  A    between atoms: O_4  and  C_2 
REMARK    3  A    between atoms: C_9  and  O_4 
REMARK    4  A    between atoms: C_5  and  C_9 
REMARK    5  A    between atoms: C_12  and  C_5 
ROOT
ATOM      1  C   UNL d   1     -48.125  14.163  22.930  0.00  0.00     0.168 C 
ENDROOT
BRANCH   1   2
ATOM      2  C   UNL d   1     -48.820  14.313  22.501  0.00  0.00     0.220 C 
ATOM      3  O   UNL d   1     -48.883  14.060  21.721  0.00  0.00    -0.284 OA
BRANCH   2   4
ATOM      4  C   UNL d   1     -49.442  14.716  22.864  0.00  0.00     0.041 A 
ATOM      5  C   UNL d   1     -50.109  14.291  23.108  0.00  0.00     0.003 A 
ATOM      6  C   UNL d   1     -50.730  14.689  23.470  0.00  0.00     0.000 A 
ATOM      7  C   UNL d   1     -50.689  15.502  23.588  0.00  0.00     0.000 A 
ATOM      8  C   UNL d   1     -50.017  15.921  23.340  0.00  0.00     0.000 A 
ATOM      9  C   UNL d   1     -49.396  15.521  22.978  0.00  0.00     0.003 A 
ENDBRANCH   2   4
ENDBRANCH   1   2
BRANCH   1  10
ATOM     10  O   UNL d   1     -47.752  13.436  22.863  0.00  0.00    -0.267 OA
BRANCH  10  11
ATOM     11  C   UNL d   1     -46.994  13.333  23.160  0.00  0.00     0.306 C 
ATOM     12  O   UNL d   1     -46.522  13.985  23.329  0.00  0.00    -0.258 OA
BRANCH  11  13
ATOM     13  C   UNL d   1     -46.703  12.568  23.291  0.00  0.00     0.093 A 
ATOM     14  S   UNL d   1     -45.975  12.277  23.040  0.00  0.00    -0.081 SA
ATOM     15  C   UNL d   1     -45.909  11.495  23.287  0.00  0.00     0.036 A 
ATOM     16  C   UNL d   1     -46.601  11.298  23.695  0.00  0.00     0.008 A 
ATOM     17  C   UNL d   1     -47.090  11.959  23.698  0.00  0.00     0.012 A 
ENDBRANCH  11  13
ENDBRANCH  10  11
ENDBRANCH   1  10
TORSDOF 5
ENDMDL
