MODEL 1
REMARK VINA RESULT:      -3.0      0.000      0.000
REMARK  3 active torsions:
REMARK  status: ('A' for Active; 'I' for Inactive)
REMARK    1  A    between atoms: C_6  and  N_2 
REMARK    2  A    between atoms: C_7  and  C_6 
REMARK    3  A    between atoms: C_8  and  C_7 
ROOT
ATOM      1  N   UNL d   1      30.354  15.453 -22.989  0.00  0.00    -0.224 NA
ATOM      2  N   UNL d   1      30.728  16.540 -23.648  0.00  0.00    -0.287 N 
ATOM      3  C   UNL d   1      30.963  15.908 -23.223  0.00  0.00     0.183 A 
ATOM      4  C   UNL d   1      29.890  16.493 -23.696  0.00  0.00     0.083 A 
ATOM      5  C   UNL d   1      29.666  15.841 -23.301  0.00  0.00     0.099 A 
ATOM      6  C   UNL d   1      29.313  16.957 -24.045  0.00  0.00     0.019 A 
ATOM      7  C   UNL d   1      28.844  15.592 -23.219  0.00  0.00     0.021 A 
ATOM      8  C   UNL d   1      28.517  16.778 -24.005  0.00  0.00     0.002 A 
ATOM      9  C   UNL d   1      28.293  16.125 -23.610  0.00  0.00     0.002 A 
ENDROOT
BRANCH   2  10
ATOM     10  C   UNL d   1      31.190  17.149 -23.993  0.00  0.00     0.082 C 
BRANCH  10  11
ATOM     11  C   UNL d   1      31.968  17.209 -23.805  0.00  0.00     0.019 C 
BRANCH  11  12
ATOM     12  C   UNL d   1      32.395  17.884 -24.055  0.00  0.00     0.002 A 
ATOM     13  C   UNL d   1      32.619  18.454 -23.480  0.00  0.00     0.000 A 
ATOM     14  C   UNL d   1      33.048  19.133 -23.728  0.00  0.00     0.000 A 
ATOM     15  C   UNL d   1      33.234  19.218 -24.522  0.00  0.00     0.000 A 
ATOM     16  C   UNL d   1      33.008  18.645 -25.094  0.00  0.00     0.000 A 
ATOM     17  C   UNL d   1      32.592  17.990 -24.848  0.00  0.00     0.000 A 
ENDBRANCH  11  12
ENDBRANCH  10  11
ENDBRANCH   2  10
TORSDOF 3
ENDMDL
MODEL 2
REMARK VINA RESULT:      -2.9      3.279      5.248
REMARK  3 active torsions:
REMARK  status: ('A' for Active; 'I' for Inactive)
REMARK    1  A    between atoms: C_6  and  N_2 
REMARK    2  A    between atoms: C_7  and  C_6 
REMARK    3  A    between atoms: C_8  and  C_7 
ROOT
ATOM      1  N   UNL d   1      33.225  20.873 -20.271  0.00  0.00    -0.224 NA
ATOM      2  N   UNL d   1      33.005  20.660 -21.560  0.00  0.00    -0.287 N 
ATOM      3  C   UNL d   1      33.241  20.346 -20.867  0.00  0.00     0.183 A 
ATOM      4  C   UNL d   1      32.819  21.464 -21.403  0.00  0.00     0.083 A 
ATOM      5  C   UNL d   1      32.950  21.592 -20.630  0.00  0.00     0.099 A 
ATOM      6  C   UNL d   1      32.549  22.086 -21.862  0.00  0.00     0.019 A 
ATOM      7  C   UNL d   1      32.825  22.354 -20.245  0.00  0.00     0.021 A 
ATOM      8  C   UNL d   1      32.410  22.832 -21.560  0.00  0.00     0.002 A 
ATOM      9  C   UNL d   1      32.542  22.960 -20.787  0.00  0.00     0.002 A 
ENDROOT
BRANCH   2  10
ATOM     10  C   UNL d   1      32.942  20.296 -22.313  0.00  0.00     0.082 C 
BRANCH  10  11
ATOM     11  C   UNL d   1      33.110  19.515 -22.389  0.00  0.00     0.019 C 
BRANCH  11  12
ATOM     12  C   UNL d   1      32.977  19.141 -23.126  0.00  0.00     0.002 A 
ATOM     13  C   UNL d   1      32.584  18.399 -23.136  0.00  0.00     0.000 A 
ATOM     14  C   UNL d   1      32.449  18.021 -23.874  0.00  0.00     0.000 A 
ATOM     15  C   UNL d   1      32.704  18.389 -24.562  0.00  0.00     0.000 A 
ATOM     16  C   UNL d   1      33.097  19.132 -24.548  0.00  0.00     0.000 A 
ATOM     17  C   UNL d   1      33.225  19.492 -23.829  0.00  0.00     0.000 A 
ENDBRANCH  11  12
ENDBRANCH  10  11
ENDBRANCH   2  10
TORSDOF 3
ENDMDL
MODEL 3
REMARK VINA RESULT:      -2.7      3.254      4.761
REMARK  3 active torsions:
REMARK  status: ('A' for Active; 'I' for Inactive)
REMARK    1  A    between atoms: C_6  and  N_2 
REMARK    2  A    between atoms: C_7  and  C_6 
REMARK    3  A    between atoms: C_8  and  C_7 
ROOT
ATOM      1  N   UNL d   1      33.117  18.236 -22.759  0.00  0.00    -0.224 NA
ATOM      2  N   UNL d   1      33.115  19.540 -22.525  0.00  0.00    -0.287 N 
ATOM      3  C   UNL d   1      33.093  18.810 -22.208  0.00  0.00     0.183 A 
ATOM      4  C   UNL d   1      33.158  19.435 -23.358  0.00  0.00     0.083 A 
ATOM      5  C   UNL d   1      33.159  18.653 -23.498  0.00  0.00     0.099 A 
ATOM      6  C   UNL d   1      33.196  19.947 -23.995  0.00  0.00     0.019 A 
ATOM      7  C   UNL d   1      33.198  18.311 -24.289  0.00  0.00     0.021 A 
ATOM      8  C   UNL d   1      33.234  19.689 -24.769  0.00  0.00     0.002 A 
ATOM      9  C   UNL d   1      33.235  18.906 -24.910  0.00  0.00     0.002 A 
ENDROOT
BRANCH   2  10
ATOM     10  C   UNL d   1      33.101  20.286 -22.141  0.00  0.00     0.082 C 
BRANCH  10  11
ATOM     11  C   UNL d   1      32.785  20.345 -21.406  0.00  0.00     0.019 C 
BRANCH  11  12
ATOM     12  C   UNL d   1      32.733  21.099 -21.046  0.00  0.00     0.002 A 
ATOM     13  C   UNL d   1      32.150  21.638 -21.322  0.00  0.00     0.000 A 
ATOM     14  C   UNL d   1      32.095  22.395 -20.962  0.00  0.00     0.000 A 
ATOM     15  C   UNL d   1      32.611  22.585 -20.354  0.00  0.00     0.000 A 
ATOM     16  C   UNL d   1      33.193  22.043 -20.081  0.00  0.00     0.000 A 
ATOM     17  C   UNL d   1      33.241  21.311 -20.433  0.00  0.00     0.000 A 
ENDBRANCH  11  12
ENDBRANCH  10  11
ENDBRANCH   2  10
TORSDOF 3
ENDMDL
MODEL 4
REMARK VINA RESULT:      -2.6      3.016      5.161
REMARK  3 active torsions:
REMARK  status: ('A' for Active; 'I' for Inactive)
REMARK    1  A    between atoms: C_6  and  N_2 
REMARK    2  A    between atoms: C_7  and  C_6 
REMARK    3  A    between atoms: C_8  and  C_7 
ROOT
ATOM      1  N   UNL d   1      33.241  21.924 -22.661  0.00  0.00    -0.224 NA
ATOM      2  N   UNL d   1      33.039  20.641 -22.401  0.00  0.00    -0.287 N 
ATOM      3  C   UNL d   1      33.239  21.183 -22.950  0.00  0.00     0.183 A 
ATOM      4  C   UNL d   1      32.899  21.066 -21.690  0.00  0.00     0.083 A 
ATOM      5  C   UNL d   1      33.019  21.836 -21.846  0.00  0.00     0.099 A 
ATOM      6  C   UNL d   1      32.679  20.850 -20.932  0.00  0.00     0.019 A 
ATOM      7  C   UNL d   1      32.931  22.460 -21.258  0.00  0.00     0.021 A 
ATOM      8  C   UNL d   1      32.578  21.392 -20.329  0.00  0.00     0.002 A 
ATOM      9  C   UNL d   1      32.699  22.162 -20.485  0.00  0.00     0.002 A 
ENDROOT
BRANCH   2  10
ATOM     10  C   UNL d   1      32.973  19.808 -22.477  0.00  0.00     0.082 C 
BRANCH  10  11
ATOM     11  C   UNL d   1      32.889  19.484 -23.207  0.00  0.00     0.019 C 
BRANCH  11  12
ATOM     12  C   UNL d   1      32.780  18.657 -23.274  0.00  0.00     0.002 A 
ATOM     13  C   UNL d   1      32.204  18.369 -23.813  0.00  0.00     0.000 A 
ATOM     14  C   UNL d   1      32.092  17.539 -23.881  0.00  0.00     0.000 A 
ATOM     15  C   UNL d   1      32.549  17.036 -23.421  0.00  0.00     0.000 A 
ATOM     16  C   UNL d   1      33.124  17.329 -22.883  0.00  0.00     0.000 A 
ATOM     17  C   UNL d   1      33.228  18.134 -22.821  0.00  0.00     0.000 A 
ENDBRANCH  11  12
ENDBRANCH  10  11
ENDBRANCH   2  10
TORSDOF 3
ENDMDL
MODEL 5
REMARK VINA RESULT:      -2.4      0.904      4.022
REMARK  3 active torsions:
REMARK  status: ('A' for Active; 'I' for Inactive)
REMARK    1  A    between atoms: C_6  and  N_2 
REMARK    2  A    between atoms: C_7  and  C_6 
REMARK    3  A    between atoms: C_8  and  C_7 
ROOT
ATOM      1  N   UNL d   1      32.810  17.186 -23.190  0.00  0.00    -0.224 NA
ATOM      2  N   UNL d   1      31.648  16.935 -23.777  0.00  0.00    -0.287 N 
ATOM      3  C   UNL d   1      32.158  16.729 -23.200  0.00  0.00     0.183 A 
ATOM      4  C   UNL d   1      31.997  17.586 -24.178  0.00  0.00     0.083 A 
ATOM      5  C   UNL d   1      32.694  17.736 -23.826  0.00  0.00     0.099 A 
ATOM      6  C   UNL d   1      31.770  18.052 -24.811  0.00  0.00     0.019 A 
ATOM      7  C   UNL d   1      33.226  18.367 -24.076  0.00  0.00     0.021 A 
ATOM      8  C   UNL d   1      32.228  18.665 -25.097  0.00  0.00     0.002 A 
ATOM      9  C   UNL d   1      32.924  18.816 -24.745  0.00  0.00     0.002 A 
ENDROOT
BRANCH   2  10
ATOM     10  C   UNL d   1      30.906  16.598 -23.974  0.00  0.00     0.082 C 
BRANCH  10  11
ATOM     11  C   UNL d   1      30.614  15.998 -23.528  0.00  0.00     0.019 C 
BRANCH  11  12
ATOM     12  C   UNL d   1      29.799  15.815 -23.578  0.00  0.00     0.002 A 
ATOM     13  C   UNL d   1      29.467  15.658 -24.333  0.00  0.00     0.000 A 
ATOM     14  C   UNL d   1      28.649  15.473 -24.385  0.00  0.00     0.000 A 
ATOM     15  C   UNL d   1      28.200  15.453 -23.699  0.00  0.00     0.000 A 
ATOM     16  C   UNL d   1      28.537  15.611 -22.945  0.00  0.00     0.000 A 
ATOM     17  C   UNL d   1      29.330  15.788 -22.901  0.00  0.00     0.000 A 
ENDBRANCH  11  12
ENDBRANCH  10  11
ENDBRANCH   2  10
TORSDOF 3
ENDMDL
MODEL 6
REMARK VINA RESULT:      -2.2      6.144      7.873
REMARK  3 active torsions:
REMARK  status: ('A' for Active; 'I' for Inactive)
REMARK    1  A    between atoms: C_6  and  N_2 
REMARK    2  A    between atoms: C_7  and  C_6 
REMARK    3  A    between atoms: C_8  and  C_7 
ROOT
ATOM      1  N   UNL d   1      33.193  21.497 -21.013  0.00  0.00    -0.224 NA
ATOM      2  N   UNL d   1      32.956  22.477 -20.153  0.00  0.00    -0.287 N 
ATOM      3  C   UNL d   1      33.196  21.723 -20.250  0.00  0.00     0.183 A 
ATOM      4  C   UNL d   1      32.781  22.770 -20.921  0.00  0.00     0.083 A 
ATOM      5  C   UNL d   1      32.924  22.182 -21.437  0.00  0.00     0.099 A 
ATOM      6  C   UNL d   1      32.515  23.487 -21.210  0.00  0.00     0.019 A 
ATOM      7  C   UNL d   1      32.812  22.259 -22.289  0.00  0.00     0.021 A 
ATOM      8  C   UNL d   1      32.388  23.626 -22.004  0.00  0.00     0.002 A 
ATOM      9  C   UNL d   1      32.530  23.038 -22.521  0.00  0.00     0.002 A 
ENDROOT
BRANCH   2  10
ATOM     10  C   UNL d   1      32.880  22.923 -19.447  0.00  0.00     0.082 C 
BRANCH  10  11
ATOM     11  C   UNL d   1      33.224  22.655 -18.772  0.00  0.00     0.019 C 
BRANCH  11  12
ATOM     12  C   UNL d   1      32.917  22.903 -18.034  0.00  0.00     0.002 A 
ATOM     13  C   UNL d   1      33.240  22.574 -17.332  0.00  0.00     0.000 A 
ATOM     14  C   UNL d   1      32.933  22.821 -16.590  0.00  0.00     0.000 A 
ATOM     15  C   UNL d   1      32.329  23.375 -16.574  0.00  0.00     0.000 A 
ATOM     16  C   UNL d   1      32.008  23.702 -17.279  0.00  0.00     0.000 A 
ATOM     17  C   UNL d   1      32.309  23.458 -17.994  0.00  0.00     0.000 A 
ENDBRANCH  11  12
ENDBRANCH  10  11
ENDBRANCH   2  10
TORSDOF 3
ENDMDL
MODEL 7
REMARK VINA RESULT:      -1.9      2.405      3.663
REMARK  3 active torsions:
REMARK  status: ('A' for Active; 'I' for Inactive)
REMARK    1  A    between atoms: C_6  and  N_2 
REMARK    2  A    between atoms: C_7  and  C_6 
REMARK    3  A    between atoms: C_8  and  C_7 
ROOT
ATOM      1  N   UNL d   1      32.500  18.530 -24.854  0.00  0.00    -0.224 NA
ATOM      2  N   UNL d   1      32.789  18.794 -23.588  0.00  0.00    -0.287 N 
ATOM      3  C   UNL d   1      32.707  19.087 -24.325  0.00  0.00     0.183 A 
ATOM      4  C   UNL d   1      32.621  17.972 -23.642  0.00  0.00     0.083 A 
ATOM      5  C   UNL d   1      32.448  17.814 -24.401  0.00  0.00     0.099 A 
ATOM      6  C   UNL d   1      32.604  17.358 -23.101  0.00  0.00     0.019 A 
ATOM      7  C   UNL d   1      32.243  17.028 -24.689  0.00  0.00     0.021 A 
ATOM      8  C   UNL d   1      32.418  16.591 -23.308  0.00  0.00     0.002 A 
ATOM      9  C   UNL d   1      32.245  16.432 -24.067  0.00  0.00     0.002 A 
ENDROOT
BRANCH   2  10
ATOM     10  C   UNL d   1      32.998  19.190 -22.879  0.00  0.00     0.082 C 
BRANCH  10  11
ATOM     11  C   UNL d   1      33.083  19.989 -22.884  0.00  0.00     0.019 C 
BRANCH  11  12
ATOM     12  C   UNL d   1      33.136  20.395 -22.155  0.00  0.00     0.002 A 
ATOM     13  C   UNL d   1      33.183  19.948 -21.446  0.00  0.00     0.000 A 
ATOM     14  C   UNL d   1      33.236  20.354 -20.713  0.00  0.00     0.000 A 
ATOM     15  C   UNL d   1      33.240  21.174 -20.711  0.00  0.00     0.000 A 
ATOM     16  C   UNL d   1      33.193  21.619 -21.423  0.00  0.00     0.000 A 
ATOM     17  C   UNL d   1      33.141  21.220 -22.130  0.00  0.00     0.000 A 
ENDBRANCH  11  12
ENDBRANCH  10  11
ENDBRANCH   2  10
TORSDOF 3
ENDMDL
MODEL 8
REMARK VINA RESULT:      -1.5      2.551      4.357
REMARK  3 active torsions:
REMARK  status: ('A' for Active; 'I' for Inactive)
REMARK    1  A    between atoms: C_6  and  N_2 
REMARK    2  A    between atoms: C_7  and  C_6 
REMARK    3  A    between atoms: C_8  and  C_7 
ROOT
ATOM      1  N   UNL d   1      33.186  19.693 -21.746  0.00  0.00    -0.224 NA
ATOM      2  N   UNL d   1      33.127  19.057 -22.907  0.00  0.00    -0.287 N 
ATOM      3  C   UNL d   1      33.144  18.988 -22.113  0.00  0.00     0.183 A 
ATOM      4  C   UNL d   1      33.162  19.880 -23.073  0.00  0.00     0.083 A 
ATOM      5  C   UNL d   1      33.198  20.262 -22.377  0.00  0.00     0.099 A 
ATOM      6  C   UNL d   1      33.166  20.322 -23.762  0.00  0.00     0.019 A 
ATOM      7  C   UNL d   1      33.240  21.120 -22.306  0.00  0.00     0.021 A 
ATOM      8  C   UNL d   1      33.204  21.138 -23.765  0.00  0.00     0.002 A 
ATOM      9  C   UNL d   1      33.240  21.519 -23.069  0.00  0.00     0.002 A 
ENDROOT
BRANCH   2  10
ATOM     10  C   UNL d   1      33.084  18.456 -23.491  0.00  0.00     0.082 C 
BRANCH  10  11
ATOM     11  C   UNL d   1      32.821  17.726 -23.287  0.00  0.00     0.019 C 
BRANCH  11  12
ATOM     12  C   UNL d   1      32.689  17.159 -23.888  0.00  0.00     0.002 A 
ATOM     13  C   UNL d   1      33.201  16.494 -23.934  0.00  0.00     0.000 A 
ATOM     14  C   UNL d   1      33.070  15.924 -24.537  0.00  0.00     0.000 A 
ATOM     15  C   UNL d   1      32.449  16.033 -25.061  0.00  0.00     0.000 A 
ATOM     16  C   UNL d   1      31.939  16.700 -25.011  0.00  0.00     0.000 A 
ATOM     17  C   UNL d   1      32.070  17.249 -24.425  0.00  0.00     0.000 A 
ENDBRANCH  11  12
ENDBRANCH  10  11
ENDBRANCH   2  10
TORSDOF 3
ENDMDL
MODEL 9
REMARK VINA RESULT:      -1.2      2.854      4.235
REMARK  3 active torsions:
REMARK  status: ('A' for Active; 'I' for Inactive)
REMARK    1  A    between atoms: C_6  and  N_2 
REMARK    2  A    between atoms: C_7  and  C_6 
REMARK    3  A    between atoms: C_8  and  C_7 
ROOT
ATOM      1  N   UNL d   1      33.078  18.675 -22.405  0.00  0.00    -0.224 NA
ATOM      2  N   UNL d   1      33.095  19.671 -23.279  0.00  0.00    -0.287 N 
ATOM      3  C   UNL d   1      33.140  19.461 -22.511  0.00  0.00     0.183 A 
ATOM      4  C   UNL d   1      32.995  18.958 -23.712  0.00  0.00     0.083 A 
ATOM      5  C   UNL d   1      32.985  18.361 -23.188  0.00  0.00     0.099 A 
ATOM      6  C   UNL d   1      32.913  18.783 -24.508  0.00  0.00     0.019 A 
ATOM      7  C   UNL d   1      32.892  17.533 -23.412  0.00  0.00     0.021 A 
ATOM      8  C   UNL d   1      32.821  18.020 -24.786  0.00  0.00     0.002 A 
ATOM      9  C   UNL d   1      32.811  17.422 -24.261  0.00  0.00     0.002 A 
ENDROOT
BRANCH   2  10
ATOM     10  C   UNL d   1      33.135  20.435 -23.623  0.00  0.00     0.082 C 
BRANCH  10  11
ATOM     11  C   UNL d   1      33.240  21.076 -23.151  0.00  0.00     0.019 C 
BRANCH  11  12
ATOM     12  C   UNL d   1      33.240  21.838 -23.496  0.00  0.00     0.002 A 
ATOM     13  C   UNL d   1      33.241  21.902 -24.334  0.00  0.00     0.000 A 
ATOM     14  C   UNL d   1      33.241  22.666 -24.682  0.00  0.00     0.000 A 
ATOM     15  C   UNL d   1      33.240  23.326 -24.195  0.00  0.00     0.000 A 
ATOM     16  C   UNL d   1      33.240  23.258 -23.358  0.00  0.00     0.000 A 
ATOM     17  C   UNL d   1      33.240  22.515 -23.026  0.00  0.00     0.000 A 
ENDBRANCH  11  12
ENDBRANCH  10  11
ENDBRANCH   2  10
TORSDOF 3
ENDMDL
