MODEL 1
REMARK VINA RESULT:      -8.0      0.000      0.000
REMARK  5 active torsions:
REMARK  status: ('A' for Active; 'I' for Inactive)
REMARK    1  A    between atoms: N_2  and  S_1 
REMARK    2  A    between atoms: N_6  and  S_1 
REMARK    3  A    between atoms: C_3  and  N_4 
REMARK       I    between atoms: N_4  and  C_5 
REMARK    4  A    between atoms: C_5  and  C_14 
REMARK    5  A    between atoms: C_14  and  N_7 
ROOT
ATOM      1  N   UNL d   1      49.886  34.540  52.056  0.00  0.00    -0.213 N 
ATOM      2  N   UNL d   1      51.336  34.176  52.723  0.00  0.00    -0.296 N 
ATOM      3  C   UNL d   1      49.956  34.461  52.872  0.00  0.00     0.112 A 
ATOM      4  C   UNL d   1      50.552  34.436  51.564  0.00  0.00     0.112 A 
ATOM      5  C   UNL d   1      50.687  34.278  53.208  0.00  0.00     0.100 A 
ATOM      6  C   UNL d   1      51.282  34.252  51.901  0.00  0.00     0.100 A 
ENDROOT
BRANCH   2   7
ATOM      7  C   UNL d   1      52.078  33.989  53.065  0.00  0.00     0.144 C 
BRANCH   7   8
ATOM      8  C   UNL d   1      52.260  33.201  53.251  0.00  0.00     0.297 C 
ATOM      9  N   UNL d   1      52.998  32.890  53.059  0.00  0.00    -0.206 NA
ATOM     10  O   UNL d   1      51.698  32.729  53.629  0.00  0.00    -0.264 OA
BRANCH   9  11
ATOM     11  C   UNL d   1      53.177  32.104  53.244  0.00  0.00     0.096 A 
ATOM     12  C   UNL d   1      52.734  31.495  52.909  0.00  0.00     0.032 A 
ATOM     13  C   UNL d   1      52.912  30.709  53.094  0.00  0.00     0.059 A 
ATOM     14 CL   UNL d   1      52.469  30.099  52.759  0.00  0.00    -0.082 Cl
ATOM     15  C   UNL d   1      53.531  30.538  53.611  0.00  0.00     0.012 A 
ATOM     16  C   UNL d   1      53.972  31.151  53.944  0.00  0.00     0.014 A 
ATOM     17  C   UNL d   1      53.793  31.936  53.758  0.00  0.00     0.075 A 
ATOM     18 CL   UNL d   1      54.230  32.554  54.087  0.00  0.00    -0.081 Cl
ENDBRANCH   9  11
ENDBRANCH   7   8
ENDBRANCH   2   7
BRANCH   1  19
ATOM     19  S   UNL d   1      49.156  34.724  51.720  0.00  0.00     0.337 S 
ATOM     20  O   UNL d   1      48.644  35.251  52.107  0.00  0.00    -0.181 OA
ATOM     21  O   UNL d   1      48.935  34.386  51.002  0.00  0.00    -0.181 OA
BRANCH  19  22
ATOM     22  N   UNL d   1      48.425  34.908  51.384  0.00  0.00    -0.213 N 
ATOM     23  C   UNL d   1      47.918  35.444  51.764  0.00  0.00     0.113 C 
ATOM     24  C   UNL d   1      48.199  34.560  50.672  0.00  0.00     0.113 C 
ENDBRANCH  19  22
ENDBRANCH   1  19
TORSDOF 5
ENDMDL
MODEL 2
REMARK VINA RESULT:      -7.5      2.726      5.531
REMARK  5 active torsions:
REMARK  status: ('A' for Active; 'I' for Inactive)
REMARK    1  A    between atoms: N_2  and  S_1 
REMARK    2  A    between atoms: N_6  and  S_1 
REMARK    3  A    between atoms: C_3  and  N_4 
REMARK       I    between atoms: N_4  and  C_5 
REMARK    4  A    between atoms: C_5  and  C_14 
REMARK    5  A    between atoms: C_14  and  N_7 
ROOT
ATOM      1  N   UNL d   1      52.297  33.738  53.526  0.00  0.00    -0.213 N 
ATOM      2  N   UNL d   1      50.869  34.005  52.772  0.00  0.00    -0.296 N 
ATOM      3  C   UNL d   1      51.636  33.289  53.724  0.00  0.00     0.112 A 
ATOM      4  C   UNL d   1      52.244  34.330  52.941  0.00  0.00     0.112 A 
ATOM      5  C   UNL d   1      50.917  33.424  53.344  0.00  0.00     0.100 A 
ATOM      6  C   UNL d   1      51.524  34.465  52.562  0.00  0.00     0.100 A 
ENDROOT
BRANCH   2   7
ATOM      7  C   UNL d   1      50.137  34.142  52.387  0.00  0.00     0.144 C 
BRANCH   7   8
ATOM      8  C   UNL d   1      49.645  34.758  52.644  0.00  0.00     0.297 C 
ATOM      9  N   UNL d   1      48.877  34.824  52.353  0.00  0.00    -0.206 NA
ATOM     10  O   UNL d   1      49.927  35.306  53.193  0.00  0.00    -0.264 OA
BRANCH   9  11
ATOM     11  C   UNL d   1      48.387  35.438  52.611  0.00  0.00     0.096 A 
ATOM     12  C   UNL d   1      48.480  35.741  53.372  0.00  0.00     0.032 A 
ATOM     13  C   UNL d   1      47.991  36.356  53.631  0.00  0.00     0.059 A 
ATOM     14 CL   UNL d   1      48.083  36.659  54.393  0.00  0.00    -0.082 Cl
ATOM     15  C   UNL d   1      47.415  36.662  53.128  0.00  0.00     0.012 A 
ATOM     16  C   UNL d   1      47.325  36.356  52.367  0.00  0.00     0.014 A 
ATOM     17  C   UNL d   1      47.815  35.742  52.110  0.00  0.00     0.075 A 
ATOM     18 CL   UNL d   1      47.731  35.431  51.350  0.00  0.00    -0.081 Cl
ENDBRANCH   9  11
ENDBRANCH   7   8
ENDBRANCH   2   7
BRANCH   1  19
ATOM     19  S   UNL d   1      53.017  33.603  53.906  0.00  0.00     0.337 S 
ATOM     20  O   UNL d   1      53.162  33.943  54.649  0.00  0.00    -0.181 OA
ATOM     21  O   UNL d   1      53.591  33.132  53.548  0.00  0.00    -0.181 OA
BRANCH  19  22
ATOM     22  N   UNL d   1      53.737  33.468  54.285  0.00  0.00    -0.213 N 
ATOM     23  C   UNL d   1      53.933  33.903  54.964  0.00  0.00     0.113 C 
ATOM     24  C   UNL d   1      54.259  32.903  53.991  0.00  0.00     0.113 C 
ENDBRANCH  19  22
ENDBRANCH   1  19
TORSDOF 5
ENDMDL
MODEL 3
REMARK VINA RESULT:      -7.3      1.392      2.091
REMARK  5 active torsions:
REMARK  status: ('A' for Active; 'I' for Inactive)
REMARK    1  A    between atoms: N_2  and  S_1 
REMARK    2  A    between atoms: N_6  and  S_1 
REMARK    3  A    between atoms: C_3  and  N_4 
REMARK       I    between atoms: N_4  and  C_5 
REMARK    4  A    between atoms: C_5  and  C_14 
REMARK    5  A    between atoms: C_14  and  N_7 
ROOT
ATOM      1  N   UNL d   1      49.995  34.427  52.570  0.00  0.00    -0.213 N 
ATOM      2  N   UNL d   1      51.367  33.541  52.682  0.00  0.00    -0.296 N 
ATOM      3  C   UNL d   1      50.594  34.523  52.014  0.00  0.00     0.112 A 
ATOM      4  C   UNL d   1      50.083  33.880  53.193  0.00  0.00     0.112 A 
ATOM      5  C   UNL d   1      51.285  34.076  52.070  0.00  0.00     0.100 A 
ATOM      6  C   UNL d   1      50.774  33.433  53.250  0.00  0.00     0.100 A 
ENDROOT
BRANCH   2   7
ATOM      7  C   UNL d   1      52.069  33.087  52.739  0.00  0.00     0.144 C 
BRANCH   7   8
ATOM      8  C   UNL d   1      52.698  33.359  53.207  0.00  0.00     0.297 C 
ATOM      9  N   UNL d   1      53.176  32.823  53.610  0.00  0.00    -0.206 NA
ATOM     10  O   UNL d   1      52.844  34.168  53.268  0.00  0.00    -0.264 OA
BRANCH   9  11
ATOM     11  C   UNL d   1      53.803  33.095  54.076  0.00  0.00     0.096 A 
ATOM     12  C   UNL d   1      53.645  33.561  54.739  0.00  0.00     0.032 A 
ATOM     13  C   UNL d   1      54.271  33.833  55.205  0.00  0.00     0.059 A 
ATOM     14 CL   UNL d   1      54.114  34.299  55.868  0.00  0.00    -0.082 Cl
ATOM     15  C   UNL d   1      55.047  33.639  55.008  0.00  0.00     0.012 A 
ATOM     16  C   UNL d   1      55.200  33.172  54.345  0.00  0.00     0.014 A 
ATOM     17  C   UNL d   1      54.573  32.900  53.878  0.00  0.00     0.075 A 
ATOM     18 CL   UNL d   1      54.719  32.434  53.214  0.00  0.00    -0.081 Cl
ENDBRANCH   9  11
ENDBRANCH   7   8
ENDBRANCH   2   7
BRANCH   1  19
ATOM     19  S   UNL d   1      49.304  34.874  52.514  0.00  0.00     0.337 S 
ATOM     20  O   UNL d   1      48.828  34.814  51.837  0.00  0.00    -0.181 OA
ATOM     21  O   UNL d   1      49.086  35.377  53.129  0.00  0.00    -0.181 OA
BRANCH  19  22
ATOM     22  N   UNL d   1      48.612  35.320  52.458  0.00  0.00    -0.213 N 
ATOM     23  C   UNL d   1      48.380  35.803  53.092  0.00  0.00     0.113 C 
ATOM     24  C   UNL d   1      48.153  35.286  51.774  0.00  0.00     0.113 C 
ENDBRANCH  19  22
ENDBRANCH   1  19
TORSDOF 5
ENDMDL
MODEL 4
REMARK VINA RESULT:      -5.7      9.938     10.742
REMARK  5 active torsions:
REMARK  status: ('A' for Active; 'I' for Inactive)
REMARK    1  A    between atoms: N_2  and  S_1 
REMARK    2  A    between atoms: N_6  and  S_1 
REMARK    3  A    between atoms: C_3  and  N_4 
REMARK       I    between atoms: N_4  and  C_5 
REMARK    4  A    between atoms: C_5  and  C_14 
REMARK    5  A    between atoms: C_14  and  N_7 
ROOT
ATOM      1  N   UNL d   1      44.772  25.721  56.763  0.00  0.00    -0.213 N 
ATOM      2  N   UNL d   1      45.058  26.954  57.802  0.00  0.00    -0.296 N 
ATOM      3  C   UNL d   1      44.333  25.787  57.456  0.00  0.00     0.112 A 
ATOM      4  C   UNL d   1      45.365  26.280  56.586  0.00  0.00     0.112 A 
ATOM      5  C   UNL d   1      44.477  26.408  57.979  0.00  0.00     0.100 A 
ATOM      6  C   UNL d   1      45.509  26.901  57.109  0.00  0.00     0.100 A 
ENDROOT
BRANCH   2   7
ATOM      7  C   UNL d   1      45.205  27.584  58.334  0.00  0.00     0.144 C 
BRANCH   7   8
ATOM      8  C   UNL d   1      44.959  28.352  58.140  0.00  0.00     0.297 C 
ATOM      9  N   UNL d   1      45.316  29.004  58.495  0.00  0.00    -0.206 NA
ATOM     10  O   UNL d   1      44.354  28.462  57.590  0.00  0.00    -0.264 OA
BRANCH   9  11
ATOM     11  C   UNL d   1      45.069  29.769  58.301  0.00  0.00     0.096 A 
ATOM     12  C   UNL d   1      44.937  29.966  57.511  0.00  0.00     0.032 A 
ATOM     13  C   UNL d   1      44.691  30.731  57.315  0.00  0.00     0.059 A 
ATOM     14 CL   UNL d   1      44.559  30.928  56.525  0.00  0.00    -0.082 Cl
ATOM     15  C   UNL d   1      44.578  31.291  57.909  0.00  0.00     0.012 A 
ATOM     16  C   UNL d   1      44.711  31.090  58.698  0.00  0.00     0.014 A 
ATOM     17  C   UNL d   1      44.957  30.325  58.892  0.00  0.00     0.075 A 
ATOM     18 CL   UNL d   1      45.092  30.116  59.679  0.00  0.00    -0.081 Cl
ENDBRANCH   9  11
ENDBRANCH   7   8
ENDBRANCH   2   7
BRANCH   1  19
ATOM     19  S   UNL d   1      44.628  25.100  56.240  0.00  0.00     0.337 S 
ATOM     20  O   UNL d   1      44.314  25.258  55.488  0.00  0.00    -0.181 OA
ATOM     21  O   UNL d   1      44.795  24.325  56.463  0.00  0.00    -0.181 OA
BRANCH  19  22
ATOM     22  N   UNL d   1      44.483  24.479  55.716  0.00  0.00    -0.213 N 
ATOM     23  C   UNL d   1      44.438  23.701  56.001  0.00  0.00     0.113 C 
ATOM     24  C   UNL d   1      44.384  24.631  54.913  0.00  0.00     0.113 C 
ENDBRANCH  19  22
ENDBRANCH   1  19
TORSDOF 5
ENDMDL
MODEL 5
REMARK VINA RESULT:      -5.2     10.464     11.143
REMARK  5 active torsions:
REMARK  status: ('A' for Active; 'I' for Inactive)
REMARK    1  A    between atoms: N_2  and  S_1 
REMARK    2  A    between atoms: N_6  and  S_1 
REMARK    3  A    between atoms: C_3  and  N_4 
REMARK       I    between atoms: N_4  and  C_5 
REMARK    4  A    between atoms: C_5  and  C_14 
REMARK    5  A    between atoms: C_14  and  N_7 
ROOT
ATOM      1  N   UNL d   1      44.862  26.821  57.346  0.00  0.00    -0.213 N 
ATOM      2  N   UNL d   1      45.010  28.305  58.020  0.00  0.00    -0.296 N 
ATOM      3  C   UNL d   1      44.421  27.451  57.055  0.00  0.00     0.112 A 
ATOM      4  C   UNL d   1      45.387  26.933  57.984  0.00  0.00     0.112 A 
ATOM      5  C   UNL d   1      44.495  28.199  57.395  0.00  0.00     0.100 A 
ATOM      6  C   UNL d   1      45.461  27.681  58.324  0.00  0.00     0.100 A 
ENDROOT
BRANCH   2   7
ATOM      7  C   UNL d   1      45.085  29.065  58.365  0.00  0.00     0.144 C 
BRANCH   7   8
ATOM      8  C   UNL d   1      44.878  29.179  59.160  0.00  0.00     0.297 C 
ATOM      9  N   UNL d   1      45.019  29.903  59.526  0.00  0.00    -0.206 NA
ATOM     10  O   UNL d   1      44.528  28.563  59.585  0.00  0.00    -0.264 OA
BRANCH   9  11
ATOM     11  C   UNL d   1      44.812  30.015  60.318  0.00  0.00     0.096 A 
ATOM     12  C   UNL d   1      44.886  29.390  60.851  0.00  0.00     0.032 A 
ATOM     13  C   UNL d   1      44.679  29.500  61.644  0.00  0.00     0.059 A 
ATOM     14 CL   UNL d   1      44.752  28.875  62.177  0.00  0.00    -0.082 Cl
ATOM     15  C   UNL d   1      44.400  30.233  61.898  0.00  0.00     0.012 A 
ATOM     16  C   UNL d   1      44.328  30.856  61.362  0.00  0.00     0.014 A 
ATOM     17  C   UNL d   1      44.535  30.744  60.569  0.00  0.00     0.075 A 
ATOM     18 CL   UNL d   1      44.465  31.362  60.028  0.00  0.00    -0.081 Cl
ENDBRANCH   9  11
ENDBRANCH   7   8
ENDBRANCH   2   7
BRANCH   1  19
ATOM     19  S   UNL d   1      44.788  26.073  57.006  0.00  0.00     0.337 S 
ATOM     20  O   UNL d   1      44.527  25.434  57.467  0.00  0.00    -0.181 OA
ATOM     21  O   UNL d   1      44.973  25.960  56.211  0.00  0.00    -0.181 OA
BRANCH  19  22
ATOM     22  N   UNL d   1      44.714  25.324  56.666  0.00  0.00    -0.213 N 
ATOM     23  C   UNL d   1      44.965  25.199  55.885  0.00  0.00     0.113 C 
ATOM     24  C   UNL d   1      44.391  24.703  57.101  0.00  0.00     0.113 C 
ENDBRANCH  19  22
ENDBRANCH   1  19
TORSDOF 5
ENDMDL
