MODEL 1
REMARK VINA RESULT:      47.4      0.000      0.000
REMARK  3 active torsions:
REMARK  status: ('A' for Active; 'I' for Inactive)
REMARK    1  A    between atoms: N_3  and  C_1 
REMARK       I    between atoms: C_5  and  N_3 
REMARK    2  A    between atoms: C_14  and  C_4 
REMARK       I    between atoms: N_8  and  C_5 
REMARK    3  A    between atoms: C_11  and  N_8 
ROOT
ATOM      1  N   UNL d   1     -55.014-101.661 -39.926  0.00  0.00    -0.166 NA
ATOM      2  C   UNL d   1     -55.163-102.436 -39.973  0.00  0.00     0.370 C 
ATOM      3  N   UNL d   1     -55.258-102.875 -39.303  0.00  0.00    -0.191 NA
ATOM      4  O   UNL d   1     -55.224-102.812 -40.706  0.00  0.00    -0.242 OA
ENDROOT
BRANCH   1   5
ATOM      5  C   UNL d   1     -54.919-101.224 -40.599  0.00  0.00     0.199 A 
ATOM      6  N   UNL d   1     -54.941-101.515 -41.349  0.00  0.00    -0.221 NA
ATOM      7  C   UNL d   1     -54.820-100.887 -41.862  0.00  0.00     0.090 A 
ATOM      8  C   UNL d   1     -54.723-100.208 -41.403  0.00  0.00     0.058 A 
ATOM      9  S   UNL d   1     -54.788-100.438 -40.618  0.00  0.00    -0.046 SA
BRANCH   7  10
ATOM     10  C   UNL d   1     -54.798-100.926 -42.671  0.00  0.00     0.018 A 
ATOM     11  C   UNL d   1     -54.838-101.657 -43.064  0.00  0.00     0.002 A 
ATOM     12  C   UNL d   1     -54.816-101.695 -43.888  0.00  0.00     0.000 A 
ATOM     13  C   UNL d   1     -54.756-101.013 -44.326  0.00  0.00     0.000 A 
ATOM     14  C   UNL d   1     -54.715-100.275 -43.946  0.00  0.00     0.000 A 
ATOM     15  C   UNL d   1     -54.736-100.227 -43.113  0.00  0.00     0.002 A 
ENDBRANCH   7  10
ENDBRANCH   1   5
BRANCH   3  16
ATOM     16  C   UNL d   1     -55.200-102.512 -38.558  0.00  0.00     0.087 A 
ATOM     17  C   UNL d   1     -55.559-102.840 -37.931  0.00  0.00     0.032 A 
ATOM     18  C   UNL d   1     -55.512-102.502 -37.203  0.00  0.00     0.070 A 
ATOM     19 CL   UNL d   1     -55.895-102.855 -36.543  0.00  0.00    -0.081 Cl
ATOM     20  C   UNL d   1     -55.106-101.831 -37.089  0.00  0.00     0.068 A 
ATOM     21  C   UNL d   1     -54.719-101.467 -37.735  0.00  0.00     0.014 A 
ATOM     22 CL   UNL d   1     -55.058-101.489 -36.353  0.00  0.00    -0.082 Cl
ATOM     23  C   UNL d   1     -54.766-101.805 -38.463  0.00  0.00     0.020 A 
ENDBRANCH   3  16
TORSDOF 3
ENDMDL
