MODEL 1
REMARK VINA RESULT:      76.5      0.000      0.000
REMARK  6 active torsions:
REMARK  status: ('A' for Active; 'I' for Inactive)
REMARK    1  A    between atoms: C_6  and  N_1 
REMARK    2  A    between atoms: C_7  and  C_4 
REMARK    3  A    between atoms: C_8  and  C_6 
REMARK    4  A    between atoms: C_11  and  C_6 
REMARK    5  A    between atoms: C_13  and  C_7 
REMARK    6  A    between atoms: C_16  and  C_11 
ROOT
ATOM      1  N   UNL d   1      60.268  48.618  50.997  0.00  0.00    -0.254 N 
ATOM      2  C   UNL d   1      60.332  47.992  51.421  0.00  0.00     0.153 A 
ATOM      3  C   UNL d   1      60.681  48.508  50.301  0.00  0.00     0.272 A 
ATOM      4  C   UNL d   1      61.016  47.762  50.313  0.00  0.00     0.088 A 
ATOM      5  S   UNL d   1      60.793  47.442  51.019  0.00  0.00    -0.054 SA
ATOM      6  S   UNL d   1      59.952  47.953  52.182  0.00  0.00    -0.052 SA
ATOM      7  O   UNL d   1      60.763  49.057  49.664  0.00  0.00    -0.266 OA
ENDROOT
BRANCH   1   8
ATOM      8  C   UNL d   1      59.834  49.303  51.228  0.00  0.00     0.132 C 
BRANCH   8   9
ATOM      9  C   UNL d   1      59.842  49.568  51.991  0.00  0.00     0.228 C 
ATOM     10  O   UNL d   1      59.144  49.708  52.410  0.00  0.00    -0.643 OA
ATOM     11  O   UNL d   1      60.581  49.700  52.359  0.00  0.00    -0.643 OA
ENDBRANCH   8   9
BRANCH   8  12
ATOM     12  C   UNL d   1      59.386  49.705  50.619  0.00  0.00     0.024 C 
BRANCH  12  13
ATOM     13  C   UNL d   1      58.569  49.691  50.666  0.00  0.00     0.002 A 
ATOM     14  C   UNL d   1      58.185  49.673  51.362  0.00  0.00     0.000 A 
ATOM     15  C   UNL d   1      57.346  49.659  51.380  0.00  0.00     0.000 A 
ATOM     16  C   UNL d   1      56.954  49.664  50.692  0.00  0.00     0.000 A 
ATOM     17  C   UNL d   1      57.329  49.682  49.964  0.00  0.00     0.000 A 
ATOM     18  C   UNL d   1      58.163  49.696  49.941  0.00  0.00     0.000 A 
ENDBRANCH  12  13
ENDBRANCH   8  12
ENDBRANCH   1   8
BRANCH   4  19
ATOM     19  C   UNL d   1      61.474  47.469  49.693  0.00  0.00     0.011 C 
BRANCH  19  20
ATOM     20  C   UNL d   1      61.620  46.641  49.585  0.00  0.00     0.001 A 
ATOM     21  C   UNL d   1      60.997  46.124  49.626  0.00  0.00     0.001 A 
ATOM     22  C   UNL d   1      61.112  45.308  49.524  0.00  0.00     0.007 A 
ATOM     23  C   UNL d   1      61.921  45.028  49.372  0.00  0.00     0.035 A 
ATOM     24  C   UNL d   1      62.528  45.577  49.337  0.00  0.00     0.007 A 
ATOM     25 BR   UNL d   1      62.073  44.202  49.264  0.00  0.00    -0.049 Br
ATOM     26  C   UNL d   1      62.386  46.367  49.440  0.00  0.00     0.001 A 
ENDBRANCH  19  20
ENDBRANCH   4  19
TORSDOF 6
ENDMDL
MODEL 2
REMARK VINA RESULT:      76.6      2.026      4.519
REMARK  6 active torsions:
REMARK  status: ('A' for Active; 'I' for Inactive)
REMARK    1  A    between atoms: C_6  and  N_1 
REMARK    2  A    between atoms: C_7  and  C_4 
REMARK    3  A    between atoms: C_8  and  C_6 
REMARK    4  A    between atoms: C_11  and  C_6 
REMARK    5  A    between atoms: C_13  and  C_7 
REMARK    6  A    between atoms: C_16  and  C_11 
ROOT
ATOM      1  N   UNL d   1      60.839  48.270  50.694  0.00  0.00    -0.254 N 
ATOM      2  C   UNL d   1      60.840  48.723  51.303  0.00  0.00     0.153 A 
ATOM      3  C   UNL d   1      60.319  48.573  50.142  0.00  0.00     0.272 A 
ATOM      4  C   UNL d   1      59.987  49.256  50.444  0.00  0.00     0.088 A 
ATOM      5  S   UNL d   1      60.318  49.346  51.175  0.00  0.00    -0.054 SA
ATOM      6  S   UNL d   1      61.336  48.538  51.970  0.00  0.00    -0.052 SA
ATOM      7  O   UNL d   1      60.140  48.252  49.381  0.00  0.00    -0.266 OA
ENDROOT
BRANCH   1   8
ATOM      8  C   UNL d   1      61.306  47.572  50.623  0.00  0.00     0.132 C 
BRANCH   8   9
ATOM      9  C   UNL d   1      61.926  47.532  50.106  0.00  0.00     0.228 C 
ATOM     10  O   UNL d   1      61.814  47.588  49.289  0.00  0.00    -0.643 OA
ATOM     11  O   UNL d   1      62.696  47.432  50.414  0.00  0.00    -0.643 OA
ENDBRANCH   8   9
BRANCH   8  12
ATOM     12  C   UNL d   1      61.097  46.909  51.123  0.00  0.00     0.024 C 
BRANCH  12  13
ATOM     13  C   UNL d   1      61.087  46.162  50.791  0.00  0.00     0.002 A 
ATOM     14  C   UNL d   1      61.562  45.961  50.184  0.00  0.00     0.000 A 
ATOM     15  C   UNL d   1      61.530  45.186  49.863  0.00  0.00     0.000 A 
ATOM     16  C   UNL d   1      61.022  44.667  50.178  0.00  0.00     0.000 A 
ATOM     17  C   UNL d   1      60.524  44.852  50.802  0.00  0.00     0.000 A 
ATOM     18  C   UNL d   1      60.551  45.622  51.125  0.00  0.00     0.000 A 
ENDBRANCH  12  13
ENDBRANCH   8  12
ENDBRANCH   1   8
BRANCH   4  19
ATOM     19  C   UNL d   1      59.436  49.706  50.028  0.00  0.00     0.011 C 
BRANCH  19  20
ATOM     20  C   UNL d   1      58.606  49.684  50.201  0.00  0.00     0.001 A 
ATOM     21  C   UNL d   1      58.079  49.642  49.587  0.00  0.00     0.001 A 
ATOM     22  C   UNL d   1      57.260  49.620  49.727  0.00  0.00     0.007 A 
ATOM     23  C   UNL d   1      56.990  49.644  50.553  0.00  0.00     0.035 A 
ATOM     24  C   UNL d   1      57.549  49.687  51.150  0.00  0.00     0.007 A 
ATOM     25 BR   UNL d   1      56.162  49.623  50.731  0.00  0.00    -0.049 Br
ATOM     26  C   UNL d   1      58.340  49.707  50.983  0.00  0.00     0.001 A 
ENDBRANCH  19  20
ENDBRANCH   4  19
TORSDOF 6
ENDMDL
