MODEL 1
REMARK VINA RESULT:      -2.8      0.000      0.000
REMARK  4 active torsions:
REMARK  status: ('A' for Active; 'I' for Inactive)
REMARK    1  A    between atoms: C_2  and  N_1 
REMARK    2  A    between atoms: C_12  and  C_5 
REMARK    3  A    between atoms: O_20  and  C_12 
REMARK    4  A    between atoms: C_21  and  C_13 
ROOT
ATOM      1  N   UNL d   1      30.993  16.919 -23.892  0.00  0.00    -0.237 N 
ATOM      2  C   UNL d   1      30.480  17.107 -24.524  0.00  0.00     0.263 A 
ATOM      3  C   UNL d   1      30.620  16.345 -23.418  0.00  0.00     0.263 A 
ATOM      4  C   UNL d   1      29.882  16.179 -23.754  0.00  0.00     0.039 A 
ATOM      5  C   UNL d   1      29.797  16.652 -24.440  0.00  0.00     0.039 A 
ATOM      6  C   UNL d   1      29.270  15.654 -23.525  0.00  0.00     0.049 A 
ATOM      7  C   UNL d   1      29.098  16.604 -24.902  0.00  0.00     0.049 A 
ATOM      8  C   UNL d   1      28.567  15.611 -23.997  0.00  0.00    -0.026 A 
ATOM      9  C   UNL d   1      28.489  16.086 -24.679  0.00  0.00    -0.026 A 
ATOM     10  C   UNL d   1      29.526  16.196 -24.045  0.00  0.00     0.018 A 
ATOM     11  O   UNL d   1      30.928  16.025 -22.765  0.00  0.00    -0.267 OA
ATOM     12  O   UNL d   1      30.631  17.629 -25.097  0.00  0.00    -0.267 OA
ENDROOT
BRANCH   1  13
ATOM     13  C   UNL d   1      31.720  17.240 -23.768  0.00  0.00     0.105 A 
ATOM     14  C   UNL d   1      32.414  16.885 -23.919  0.00  0.00     0.086 A 
ATOM     15  C   UNL d   1      33.000  17.394 -23.718  0.00  0.00     0.014 A 
ATOM     16  C   UNL d   1      32.655  18.052 -23.448  0.00  0.00     0.031 A 
ATOM     17  S   UNL d   1      31.871  17.967 -23.475  0.00  0.00    -0.069 SA
BRANCH  14  18
ATOM     18  C   UNL d   1      32.510  16.151 -24.216  0.00  0.00     0.298 C 
ATOM     19  O   UNL d   1      32.398  15.510 -23.753  0.00  0.00    -0.259 OA
BRANCH  18  20
ATOM     20  O   UNL d   1      32.721  16.055 -24.989  0.00  0.00    -0.296 OA
ATOM     21  C   UNL d   1      33.222  15.453 -25.097  0.00  0.00     0.185 C 
ENDBRANCH  18  20
ENDBRANCH  14  18
BRANCH  16  22
ATOM     22  C   UNL d   1      33.113  18.664 -23.205  0.00  0.00     0.006 C 
ATOM     23  C   UNL d   1      32.890  19.116 -22.566  0.00  0.00     0.001 C 
ENDBRANCH  16  22
ENDBRANCH   1  13
TORSDOF 4
ENDMDL
MODEL 2
REMARK VINA RESULT:      -1.1      1.656      3.958
REMARK  4 active torsions:
REMARK  status: ('A' for Active; 'I' for Inactive)
REMARK    1  A    between atoms: C_2  and  N_1 
REMARK    2  A    between atoms: C_12  and  C_5 
REMARK    3  A    between atoms: O_20  and  C_12 
REMARK    4  A    between atoms: C_21  and  C_13 
ROOT
ATOM      1  N   UNL d   1      32.806  18.443 -23.531  0.00  0.00    -0.237 N 
ATOM      2  C   UNL d   1      33.009  19.129 -23.964  0.00  0.00     0.263 A 
ATOM      3  C   UNL d   1      32.726  18.657 -22.731  0.00  0.00     0.263 A 
ATOM      4  C   UNL d   1      32.879  19.468 -22.667  0.00  0.00     0.039 A 
ATOM      5  C   UNL d   1      33.054  19.759 -23.433  0.00  0.00     0.039 A 
ATOM      6  C   UNL d   1      32.882  19.987 -22.008  0.00  0.00     0.049 A 
ATOM      7  C   UNL d   1      33.233  20.571 -23.545  0.00  0.00     0.049 A 
ATOM      8  C   UNL d   1      33.064  20.805 -22.130  0.00  0.00    -0.026 A 
ATOM      9  C   UNL d   1      33.237  21.089 -22.896  0.00  0.00    -0.026 A 
ATOM     10  C   UNL d   1      32.984  19.899 -22.790  0.00  0.00     0.018 A 
ATOM     11  O   UNL d   1      32.538  18.162 -22.144  0.00  0.00    -0.267 OA
ATOM     12  O   UNL d   1      33.134  19.159 -24.742  0.00  0.00    -0.267 OA
ENDROOT
BRANCH   1  13
ATOM     13  C   UNL d   1      32.706  17.708 -23.840  0.00  0.00     0.105 A 
ATOM     14  C   UNL d   1      32.053  17.447 -24.210  0.00  0.00     0.086 A 
ATOM     15  C   UNL d   1      32.183  16.687 -24.432  0.00  0.00     0.014 A 
ATOM     16  C   UNL d   1      32.913  16.496 -24.194  0.00  0.00     0.031 A 
ATOM     17  S   UNL d   1      33.241  17.116 -23.831  0.00  0.00    -0.069 SA
BRANCH  14  18
ATOM     18  C   UNL d   1      31.388  17.867 -24.337  0.00  0.00     0.298 C 
ATOM     19  O   UNL d   1      31.395  18.494 -24.831  0.00  0.00    -0.259 OA
BRANCH  18  20
ATOM     20  O   UNL d   1      30.703  17.658 -23.966  0.00  0.00    -0.296 OA
ATOM     21  C   UNL d   1      30.063  17.766 -24.419  0.00  0.00     0.185 C 
ENDBRANCH  18  20
ENDBRANCH  14  18
BRANCH  16  22
ATOM     22  C   UNL d   1      33.194  15.760 -24.344  0.00  0.00     0.006 C 
ATOM     23  C   UNL d   1      33.160  15.453 -25.097  0.00  0.00     0.001 C 
ENDBRANCH  16  22
ENDBRANCH   1  13
TORSDOF 4
ENDMDL
MODEL 3
REMARK VINA RESULT:       0.1      1.519      2.250
REMARK  4 active torsions:
REMARK  status: ('A' for Active; 'I' for Inactive)
REMARK    1  A    between atoms: C_2  and  N_1 
REMARK    2  A    between atoms: C_12  and  C_5 
REMARK    3  A    between atoms: O_20  and  C_12 
REMARK    4  A    between atoms: C_21  and  C_13 
ROOT
ATOM      1  N   UNL d   1      30.204  16.107 -23.918  0.00  0.00    -0.237 N 
ATOM      2  C   UNL d   1      29.479  15.988 -24.318  0.00  0.00     0.263 A 
ATOM      3  C   UNL d   1      30.072  15.991 -23.105  0.00  0.00     0.263 A 
ATOM      4  C   UNL d   1      29.274  15.802 -23.000  0.00  0.00     0.039 A 
ATOM      5  C   UNL d   1      28.907  15.801 -23.753  0.00  0.00     0.039 A 
ATOM      6  C   UNL d   1      28.826  15.629 -22.313  0.00  0.00     0.049 A 
ATOM      7  C   UNL d   1      28.089  15.627 -23.824  0.00  0.00     0.049 A 
ATOM      8  C   UNL d   1      28.000  15.454 -22.393  0.00  0.00    -0.026 A 
ATOM      9  C   UNL d   1      27.641  15.455 -23.147  0.00  0.00    -0.026 A 
ATOM     10  C   UNL d   1      28.833  15.715 -23.101  0.00  0.00     0.018 A 
ATOM     11  O   UNL d   1      30.623  16.053 -22.542  0.00  0.00    -0.267 OA
ATOM     12  O   UNL d   1      29.370  16.047 -25.097  0.00  0.00    -0.267 OA
ENDROOT
BRANCH   1  13
ATOM     13  C   UNL d   1      30.903  16.299 -24.266  0.00  0.00     0.105 A 
ATOM     14  C   UNL d   1      31.120  17.029 -24.494  0.00  0.00     0.086 A 
ATOM     15  C   UNL d   1      31.854  16.979 -24.814  0.00  0.00     0.014 A 
ATOM     16  C   UNL d   1      32.072  16.219 -24.777  0.00  0.00     0.031 A 
ATOM     17  S   UNL d   1      31.496  15.796 -24.443  0.00  0.00    -0.069 SA
BRANCH  14  18
ATOM     18  C   UNL d   1      30.685  17.693 -24.417  0.00  0.00     0.298 C 
ATOM     19  O   UNL d   1      30.742  18.137 -23.756  0.00  0.00    -0.259 OA
BRANCH  18  20
ATOM     20  O   UNL d   1      30.185  17.917 -25.009  0.00  0.00    -0.296 OA
ATOM     21  C   UNL d   1      30.055  18.697 -25.020  0.00  0.00     0.185 C 
ENDBRANCH  18  20
ENDBRANCH  14  18
BRANCH  16  22
ATOM     22  C   UNL d   1      32.791  16.005 -25.061  0.00  0.00     0.006 C 
ATOM     23  C   UNL d   1      33.241  15.453 -24.667  0.00  0.00     0.001 C 
ENDBRANCH  16  22
ENDBRANCH   1  13
TORSDOF 4
ENDMDL
