MODEL 1
REMARK VINA RESULT:      -5.9      0.000      0.000
REMARK  1 active torsions:
REMARK  status: ('A' for Active; 'I' for Inactive)
REMARK    1  A    between atoms: N_4  and  C_1 
ROOT
ATOM      1  C   UNL d   1     -41.516-122.475 -52.915  0.00  0.00     0.735 A 
ATOM      2  N   UNL d   1     -41.123-122.842 -53.541  0.00  0.00    -0.059 NA
ATOM      3  N   UNL d   1     -42.076-121.954 -53.236  0.00  0.00    -0.059 NA
ATOM      4  C   UNL d   1     -41.436-122.551 -54.251  0.00  0.00     0.118 A 
ATOM      5  C   UNL d   1     -42.024-122.003 -54.062  0.00  0.00     0.118 A 
ATOM      6  C   UNL d   1     -41.261-122.714 -55.038  0.00  0.00     0.021 A 
ATOM      7  C   UNL d   1     -42.442-121.614 -54.660  0.00  0.00     0.021 A 
ATOM      8  C   UNL d   1     -42.268-121.776 -55.448  0.00  0.00     0.002 A 
ATOM      9  C   UNL d   1     -41.680-122.324 -55.636  0.00  0.00     0.002 A 
ENDROOT
BRANCH   1  10
ATOM     10  N   UNL d   1     -41.385-122.597 -52.110  0.00  0.00    -0.134 N 
ATOM     11  C   UNL d   1     -41.253-123.358 -51.816  0.00  0.00     0.119 A 
ATOM     12  C   UNL d   1     -41.123-123.471 -51.013  0.00  0.00     0.119 A 
ATOM     13  N   UNL d   1     -41.123-122.827 -50.497  0.00  0.00    -0.239 NA
ATOM     14  C   UNL d   1     -41.255-122.066 -50.790  0.00  0.00     0.119 A 
ATOM     15  C   UNL d   1     -41.387-121.944 -51.599  0.00  0.00     0.119 A 
ENDBRANCH   1  10
TORSDOF 1
ENDMDL
MODEL 2
REMARK VINA RESULT:      -5.7      0.833      3.460
REMARK  1 active torsions:
REMARK  status: ('A' for Active; 'I' for Inactive)
REMARK    1  A    between atoms: N_4  and  C_1 
ROOT
ATOM      1  C   UNL d   1     -41.607-122.513 -53.290  0.00  0.00     0.735 A 
ATOM      2  N   UNL d   1     -41.517-123.269 -52.969  0.00  0.00    -0.059 NA
ATOM      3  N   UNL d   1     -41.524-121.964 -52.674  0.00  0.00    -0.059 NA
ATOM      4  C   UNL d   1     -41.377-123.191 -52.157  0.00  0.00     0.118 A 
ATOM      5  C   UNL d   1     -41.382-122.386 -51.975  0.00  0.00     0.118 A 
ATOM      6  C   UNL d   1     -41.248-123.747 -51.564  0.00  0.00     0.021 A 
ATOM      7  C   UNL d   1     -41.257-122.130 -51.199  0.00  0.00     0.021 A 
ATOM      8  C   UNL d   1     -41.127-122.686 -50.605  0.00  0.00     0.002 A 
ATOM      9  C   UNL d   1     -41.122-123.491 -50.787  0.00  0.00     0.002 A 
ENDROOT
BRANCH   1  10
ATOM     10  N   UNL d   1     -41.755-122.326 -54.080  0.00  0.00    -0.134 N 
ATOM     11  C   UNL d   1     -41.203-122.511 -54.666  0.00  0.00     0.119 A 
ATOM     12  C   UNL d   1     -41.357-122.321 -55.450  0.00  0.00     0.119 A 
ATOM     13  N   UNL d   1     -42.062-121.946 -55.656  0.00  0.00    -0.239 NA
ATOM     14  C   UNL d   1     -42.616-121.761 -55.070  0.00  0.00     0.119 A 
ATOM     15  C   UNL d   1     -42.467-121.949 -54.276  0.00  0.00     0.119 A 
ENDBRANCH   1  10
TORSDOF 1
ENDMDL
MODEL 3
REMARK VINA RESULT:      -4.9      1.677      4.336
REMARK  1 active torsions:
REMARK  status: ('A' for Active; 'I' for Inactive)
REMARK    1  A    between atoms: N_4  and  C_1 
ROOT
ATOM      1  C   UNL d   1     -41.646-123.075 -50.761  0.00  0.00     0.735 A 
ATOM      2  N   UNL d   1     -41.123-123.283 -50.157  0.00  0.00    -0.059 NA
ATOM      3  N   UNL d   1     -42.389-122.939 -50.419  0.00  0.00    -0.059 NA
ATOM      4  C   UNL d   1     -41.538-123.276 -49.441  0.00  0.00     0.118 A 
ATOM      5  C   UNL d   1     -42.319-123.064 -49.602  0.00  0.00     0.118 A 
ATOM      6  C   UNL d   1     -41.305-123.435 -48.668  0.00  0.00     0.021 A 
ATOM      7  C   UNL d   1     -42.874-123.009 -48.992  0.00  0.00     0.021 A 
ATOM      8  C   UNL d   1     -42.642-123.168 -48.218  0.00  0.00     0.002 A 
ATOM      9  C   UNL d   1     -41.861-123.380 -48.057  0.00  0.00     0.002 A 
ENDROOT
BRANCH   1  10
ATOM     10  N   UNL d   1     -41.472-123.011 -51.565  0.00  0.00    -0.134 N 
ATOM     11  C   UNL d   1     -41.468-122.274 -51.938  0.00  0.00     0.119 A 
ATOM     12  C   UNL d   1     -41.294-122.219 -52.738  0.00  0.00     0.119 A 
ATOM     13  N   UNL d   1     -41.122-122.898 -53.174  0.00  0.00    -0.239 NA
ATOM     14  C   UNL d   1     -41.126-123.637 -52.802  0.00  0.00     0.119 A 
ATOM     15  C   UNL d   1     -41.301-123.700 -51.994  0.00  0.00     0.119 A 
ENDBRANCH   1  10
TORSDOF 1
ENDMDL
MODEL 4
REMARK VINA RESULT:      -4.8      1.098      1.740
REMARK  1 active torsions:
REMARK  status: ('A' for Active; 'I' for Inactive)
REMARK    1  A    between atoms: N_4  and  C_1 
ROOT
ATOM      1  C   UNL d   1     -41.618-123.002 -51.535  0.00  0.00     0.735 A 
ATOM      2  N   UNL d   1     -41.482-123.660 -52.015  0.00  0.00    -0.059 NA
ATOM      3  N   UNL d   1     -41.623-122.330 -52.020  0.00  0.00    -0.059 NA
ATOM      4  C   UNL d   1     -41.402-123.398 -52.797  0.00  0.00     0.118 A 
ATOM      5  C   UNL d   1     -41.489-122.578 -52.799  0.00  0.00     0.118 A 
ATOM      6  C   UNL d   1     -41.262-123.801 -53.501  0.00  0.00     0.021 A 
ATOM      7  C   UNL d   1     -41.437-122.152 -53.506  0.00  0.00     0.021 A 
ATOM      8  C   UNL d   1     -41.297-122.554 -54.211  0.00  0.00     0.002 A 
ATOM      9  C   UNL d   1     -41.210-123.375 -54.208  0.00  0.00     0.002 A 
ENDROOT
BRANCH   1  10
ATOM     10  N   UNL d   1     -41.731-123.002 -50.717  0.00  0.00    -0.134 N 
ATOM     11  C   UNL d   1     -42.430-122.709 -50.389  0.00  0.00     0.119 A 
ATOM     12  C   UNL d   1     -42.534-122.712 -49.575  0.00  0.00     0.119 A 
ATOM     13  N   UNL d   1     -41.943-123.008 -49.081  0.00  0.00    -0.239 NA
ATOM     14  C   UNL d   1     -41.243-123.302 -49.409  0.00  0.00     0.119 A 
ATOM     15  C   UNL d   1     -41.131-123.302 -50.230  0.00  0.00     0.119 A 
ENDBRANCH   1  10
TORSDOF 1
ENDMDL
MODEL 5
REMARK VINA RESULT:      -4.1      0.954      3.607
REMARK  1 active torsions:
REMARK  status: ('A' for Active; 'I' for Inactive)
REMARK    1  A    between atoms: N_4  and  C_1 
ROOT
ATOM      1  C   UNL d   1     -41.744-122.521 -53.288  0.00  0.00     0.735 A 
ATOM      2  N   UNL d   1     -41.937-122.004 -52.674  0.00  0.00    -0.059 NA
ATOM      3  N   UNL d   1     -41.406-123.200 -52.953  0.00  0.00    -0.059 NA
ATOM      4  C   UNL d   1     -41.721-122.359 -51.959  0.00  0.00     0.118 A 
ATOM      5  C   UNL d   1     -41.394-123.097 -52.130  0.00  0.00     0.118 A 
ATOM      6  C   UNL d   1     -41.781-122.106 -51.178  0.00  0.00     0.021 A 
ATOM      7  C   UNL d   1     -41.123-123.588 -51.523  0.00  0.00     0.021 A 
ATOM      8  C   UNL d   1     -41.183-123.336 -50.741  0.00  0.00     0.002 A 
ATOM      9  C   UNL d   1     -41.510-122.598 -50.570  0.00  0.00     0.002 A 
ENDROOT
BRANCH   1  10
ATOM     10  N   UNL d   1     -41.860-122.395 -54.095  0.00  0.00    -0.134 N 
ATOM     11  C   UNL d   1     -41.544-121.728 -54.468  0.00  0.00     0.119 A 
ATOM     12  C   UNL d   1     -41.665-121.611 -55.271  0.00  0.00     0.119 A 
ATOM     13  N   UNL d   1     -42.102-122.155 -55.710  0.00  0.00    -0.239 NA
ATOM     14  C   UNL d   1     -42.419-122.822 -55.339  0.00  0.00     0.119 A 
ATOM     15  C   UNL d   1     -42.301-122.948 -54.528  0.00  0.00     0.119 A 
ENDBRANCH   1  10
TORSDOF 1
ENDMDL
MODEL 6
REMARK VINA RESULT:      -4.0      2.400      3.636
REMARK  1 active torsions:
REMARK  status: ('A' for Active; 'I' for Inactive)
REMARK    1  A    between atoms: N_4  and  C_1 
ROOT
ATOM      1  C   UNL d   1     -41.713-123.269 -49.471  0.00  0.00     0.735 A 
ATOM      2  N   UNL d   1     -41.455-123.817 -50.033  0.00  0.00    -0.059 NA
ATOM      3  N   UNL d   1     -41.795-122.536 -49.850  0.00  0.00    -0.059 NA
ATOM      4  C   UNL d   1     -41.378-123.426 -50.759  0.00  0.00     0.118 A 
ATOM      5  C   UNL d   1     -41.587-122.636 -50.646  0.00  0.00     0.118 A 
ATOM      6  C   UNL d   1     -41.144-123.689 -51.503  0.00  0.00     0.021 A 
ATOM      7  C   UNL d   1     -41.565-122.102 -51.276  0.00  0.00     0.021 A 
ATOM      8  C   UNL d   1     -41.332-122.364 -52.021  0.00  0.00     0.002 A 
ATOM      9  C   UNL d   1     -41.122-123.154 -52.134  0.00  0.00     0.002 A 
ENDROOT
BRANCH   1  10
ATOM     10  N   UNL d   1     -41.864-123.414 -48.673  0.00  0.00    -0.134 N 
ATOM     11  C   UNL d   1     -41.259-123.352 -48.113  0.00  0.00     0.119 A 
ATOM     12  C   UNL d   1     -41.419-123.498 -47.321  0.00  0.00     0.119 A 
ATOM     13  N   UNL d   1     -42.180-123.706 -47.080  0.00  0.00    -0.239 NA
ATOM     14  C   UNL d   1     -42.785-123.767 -47.640  0.00  0.00     0.119 A 
ATOM     15  C   UNL d   1     -42.632-123.622 -48.442  0.00  0.00     0.119 A 
ENDBRANCH   1  10
TORSDOF 1
ENDMDL
MODEL 7
REMARK VINA RESULT:      -3.7      1.291      2.238
REMARK  1 active torsions:
REMARK  status: ('A' for Active; 'I' for Inactive)
REMARK    1  A    between atoms: N_4  and  C_1 
ROOT
ATOM      1  C   UNL d   1     -41.699-123.085 -51.078  0.00  0.00     0.735 A 
ATOM      2  N   UNL d   1     -41.848-122.389 -51.497  0.00  0.00    -0.059 NA
ATOM      3  N   UNL d   1     -41.511-123.677 -51.628  0.00  0.00    -0.059 NA
ATOM      4  C   UNL d   1     -41.753-122.547 -52.304  0.00  0.00     0.118 A 
ATOM      5  C   UNL d   1     -41.545-123.341 -52.385  0.00  0.00     0.118 A 
ATOM      6  C   UNL d   1     -41.829-122.070 -52.971  0.00  0.00     0.021 A 
ATOM      7  C   UNL d   1     -41.411-123.667 -53.133  0.00  0.00     0.021 A 
ATOM      8  C   UNL d   1     -41.487-123.191 -53.801  0.00  0.00     0.002 A 
ATOM      9  C   UNL d   1     -41.695-122.397 -53.720  0.00  0.00     0.002 A 
ENDROOT
BRANCH   1  10
ATOM     10  N   UNL d   1     -41.729-123.186 -50.260  0.00  0.00    -0.134 N 
ATOM     11  C   UNL d   1     -41.123-122.896 -49.778  0.00  0.00     0.119 A 
ATOM     12  C   UNL d   1     -41.161-123.000 -48.964  0.00  0.00     0.119 A 
ATOM     13  N   UNL d   1     -41.802-123.393 -48.625  0.00  0.00    -0.239 NA
ATOM     14  C   UNL d   1     -42.408-123.683 -49.106  0.00  0.00     0.119 A 
ATOM     15  C   UNL d   1     -42.377-123.582 -49.928  0.00  0.00     0.119 A 
ENDBRANCH   1  10
TORSDOF 1
ENDMDL
