MODEL 1
REMARK VINA RESULT:      47.6      0.000      0.000
REMARK  6 active torsions:
REMARK  status: ('A' for Active; 'I' for Inactive)
REMARK    1  A    between atoms: C_3  and  C_2 
REMARK    2  A    between atoms: O_5  and  C_3 
REMARK    3  A    between atoms: C_9  and  O_5 
REMARK    4  A    between atoms: C_6  and  C_9 
REMARK    5  A    between atoms: C_7  and  C_6 
REMARK    6  A    between atoms: O_19  and  C_16 
ROOT
ATOM      1  C   UNL d   1      59.436  49.679  51.191  0.00  0.00     0.318 C 
ATOM      2  O   UNL d   1      59.649  49.708  51.987  0.00  0.00    -0.257 OA
ENDROOT
BRANCH   1   3
ATOM      3  C   UNL d   1      58.641  49.686  50.971  0.00  0.00     0.145 A 
ATOM      4  N   UNL d   1      58.434  49.687  50.161  0.00  0.00    -0.240 NA
ATOM      5  C   UNL d   1      57.642  49.694  49.937  0.00  0.00     0.082 A 
ATOM      6  C   UNL d   1      57.041  49.699  50.521  0.00  0.00     0.018 A 
ATOM      7  C   UNL d   1      57.438  49.696  49.142  0.00  0.00     0.019 A 
ATOM      8  C   UNL d   1      57.245  49.698  51.329  0.00  0.00     0.003 A 
ATOM      9  C   UNL d   1      56.249  49.706  50.298  0.00  0.00     0.002 A 
ATOM     10  C   UNL d   1      58.044  49.691  51.552  0.00  0.00     0.025 A 
ATOM     11  C   UNL d   1      56.054  49.708  49.493  0.00  0.00     0.000 A 
ATOM     12  C   UNL d   1      56.644  49.702  48.919  0.00  0.00     0.002 A 
ENDBRANCH   1   3
BRANCH   1  13
ATOM     13  O   UNL d   1      60.026  49.643  50.607  0.00  0.00    -0.266 OA
BRANCH  13  14
ATOM     14  C   UNL d   1      60.292  48.914  50.331  0.00  0.00     0.168 C 
BRANCH  14  15
ATOM     15  C   UNL d   1      60.974  48.574  50.640  0.00  0.00     0.220 C 
ATOM     16  O   UNL d   1      61.420  48.991  51.195  0.00  0.00    -0.284 OA
BRANCH  15  17
ATOM     17  C   UNL d   1      61.210  47.821  50.397  0.00  0.00     0.041 A 
ATOM     18  C   UNL d   1      61.683  47.741  49.726  0.00  0.00     0.005 A 
ATOM     19  C   UNL d   1      61.916  46.988  49.487  0.00  0.00     0.024 A 
ATOM     20  C   UNL d   1      61.676  46.321  49.918  0.00  0.00     0.094 A 
ATOM     21  C   UNL d   1      61.203  46.413  50.587  0.00  0.00     0.024 A 
ATOM     22  C   UNL d   1      60.970  47.165  50.827  0.00  0.00     0.005 A 
BRANCH  20  23
ATOM     23  O   UNL d   1      61.909  45.576  49.678  0.00  0.00    -0.328 OA
ATOM     24  C   UNL d   1      61.598  45.249  48.981  0.00  0.00     0.181 C 
ENDBRANCH  20  23
ENDBRANCH  15  17
ENDBRANCH  14  15
ENDBRANCH  13  14
ENDBRANCH   1  13
TORSDOF 6
ENDMDL
