MODEL 1
REMARK VINA RESULT:      26.4      0.000      0.000
REMARK  3 active torsions:
REMARK  status: ('A' for Active; 'I' for Inactive)
REMARK    1  A    between atoms: C_9  and  N_1 
REMARK    2  A    between atoms: C_2  and  C_9 
REMARK    3  A    between atoms: S_13  and  C_5 
ROOT
ATOM      1  N   UNL d   1      14.895  12.781  -0.889  0.00  0.00    -0.265 N 
ATOM      2  C   UNL d   1      15.678  12.523  -0.804  0.00  0.00     0.296 A 
ATOM      3  S   UNL d   1      16.109  13.144  -0.479  0.00  0.00    -0.025 SA
ATOM      4  C   UNL d   1      14.838  13.551  -0.621  0.00  0.00     0.074 A 
ATOM      5  C   UNL d   1      15.585  13.784  -0.365  0.00  0.00     0.050 A 
ATOM      6  O   UNL d   1      15.968  11.781  -1.008  0.00  0.00    -0.259 OA
ATOM      7  C   UNL d   1      14.203  14.084  -0.572  0.00  0.00     0.018 A 
ATOM      8  C   UNL d   1      15.704  14.544  -0.061  0.00  0.00     0.008 A 
ATOM      9  C   UNL d   1      14.317  14.845  -0.269  0.00  0.00     0.002 A 
ATOM     10  C   UNL d   1      15.076  15.067  -0.014  0.00  0.00     0.001 A 
ENDROOT
BRANCH   1  11
ATOM     11  C   UNL d   1      14.270  12.336  -1.194  0.00  0.00     0.123 C 
BRANCH  11  12
ATOM     12  C   UNL d   1      14.171  12.262  -2.002  0.00  0.00     0.189 A 
ATOM     13  N   UNL d   1      13.450  12.018  -2.305  0.00  0.00    -0.265 N 
ATOM     14  C   UNL d   1      13.515  11.995  -3.125  0.00  0.00     0.197 A 
ATOM     15  C   UNL d   1      12.771  11.826  -1.878  0.00  0.00     0.103 C 
ATOM     16  N   UNL d   1      14.278  12.225  -3.328  0.00  0.00    -0.122 NA
ATOM     17  N   UNL d   1      14.682  12.390  -2.630  0.00  0.00    -0.126 NA
BRANCH  14  18
ATOM     18  S   UNL d   1      12.921  11.779  -3.655  0.00  0.00    -0.074 SA
ATOM     19  C   UNL d   1      12.909  12.086  -4.421  0.00  0.00     0.077 C 
ENDBRANCH  14  18
ENDBRANCH  11  12
ENDBRANCH   1  11
TORSDOF 3
ENDMDL
MODEL 2
REMARK VINA RESULT:      26.7      1.297      1.681
REMARK  3 active torsions:
REMARK  status: ('A' for Active; 'I' for Inactive)
REMARK    1  A    between atoms: C_9  and  N_1 
REMARK    2  A    between atoms: C_2  and  C_9 
REMARK    3  A    between atoms: S_13  and  C_5 
ROOT
ATOM      1  N   UNL d   1      13.914  13.020  -1.698  0.00  0.00    -0.265 N 
ATOM      2  C   UNL d   1      13.696  12.321  -1.311  0.00  0.00     0.296 A 
ATOM      3  S   UNL d   1      14.146  12.269  -0.623  0.00  0.00    -0.025 SA
ATOM      4  C   UNL d   1      14.490  13.399  -1.258  0.00  0.00     0.074 A 
ATOM      5  C   UNL d   1      14.640  12.941  -0.591  0.00  0.00     0.050 A 
ATOM      6  O   UNL d   1      13.134  11.779  -1.569  0.00  0.00    -0.259 OA
ATOM      7  C   UNL d   1      14.908  14.108  -1.371  0.00  0.00     0.018 A 
ATOM      8  C   UNL d   1      15.203  13.183  -0.035  0.00  0.00     0.008 A 
ATOM      9  C   UNL d   1      15.471  14.354  -0.818  0.00  0.00     0.002 A 
ATOM     10  C   UNL d   1      15.613  13.882  -0.149  0.00  0.00     0.001 A 
ENDROOT
BRANCH   1  11
ATOM     11  C   UNL d   1      13.602  13.295  -2.411  0.00  0.00     0.123 C 
BRANCH  11  12
ATOM     12  C   UNL d   1      13.552  12.799  -3.059  0.00  0.00     0.189 A 
ATOM     13  N   UNL d   1      13.380  13.108  -3.798  0.00  0.00    -0.265 N 
ATOM     14  C   UNL d   1      13.366  12.485  -4.335  0.00  0.00     0.197 A 
ATOM     15  C   UNL d   1      13.241  13.899  -3.986  0.00  0.00     0.103 C 
ATOM     16  N   UNL d   1      13.531  11.791  -3.927  0.00  0.00    -0.122 NA
ATOM     17  N   UNL d   1      13.646  11.989  -3.136  0.00  0.00    -0.126 NA
BRANCH  14  18
ATOM     18  S   UNL d   1      13.214  12.543  -5.144  0.00  0.00    -0.074 SA
ATOM     19  C   UNL d   1      13.170  11.864  -5.613  0.00  0.00     0.077 C 
ENDBRANCH  14  18
ENDBRANCH  11  12
ENDBRANCH   1  11
TORSDOF 3
ENDMDL
