MODEL 1
REMARK VINA RESULT:      -3.4      0.000      0.000
REMARK  4 active torsions:
REMARK  status: ('A' for Active; 'I' for Inactive)
REMARK    1  A    between atoms: C_7  and  C_1 
REMARK    2  A    between atoms: N_6  and  C_3 
REMARK       I    between atoms: C_8  and  N_6 
REMARK    3  A    between atoms: C_12  and  C_8 
REMARK    4  A    between atoms: C_15  and  C_12 
ROOT
ATOM      1  C   UNL d   1      33.108  20.044 -22.376  0.00  0.00     0.206 A 
ATOM      2  O   UNL d   1      33.122  19.896 -23.186  0.00  0.00    -0.253 OA
ATOM      3  C   UNL d   1      33.204  19.064 -23.301  0.00  0.00     0.297 A 
ATOM      4  N   UNL d   1      33.181  19.308 -21.981  0.00  0.00    -0.119 NA
ATOM      5  N   UNL d   1      33.239  18.717 -22.555  0.00  0.00    -0.101 NA
ENDROOT
BRANCH   3   6
ATOM      6  N   UNL d   1      33.240  18.691 -24.012  0.00  0.00    -0.165 NA
ATOM      7  C   UNL d   1      32.631  18.191 -24.233  0.00  0.00     0.282 C 
ATOM      8  O   UNL d   1      32.664  17.802 -24.970  0.00  0.00    -0.265 OA
BRANCH   7   9
ATOM      9  C   UNL d   1      31.985  18.063 -23.743  0.00  0.00     0.063 C 
BRANCH   9  10
ATOM     10  C   UNL d   1      31.372  17.564 -23.974  0.00  0.00     0.005 A 
ATOM     11  C   UNL d   1      31.361  16.770 -23.720  0.00  0.00     0.003 A 
ATOM     12  C   UNL d   1      30.742  16.279 -23.958  0.00  0.00     0.030 A 
ATOM     13  C   UNL d   1      30.139  16.557 -24.439  0.00  0.00     0.140 A 
ATOM     14  C   UNL d   1      30.150  17.343 -24.691  0.00  0.00     0.030 A 
ATOM     15  F   UNL d   1      29.527  16.067 -24.673  0.00  0.00    -0.204 F 
ATOM     16  C   UNL d   1      30.764  17.850 -24.461  0.00  0.00     0.003 A 
ENDBRANCH   9  10
ENDBRANCH   7   9
ENDBRANCH   3   6
BRANCH   1  17
ATOM     17  C   UNL d   1      33.037  20.773 -22.024  0.00  0.00     0.043 A 
ATOM     18  C   UNL d   1      33.013  20.828 -21.185  0.00  0.00     0.004 A 
ATOM     19  C   UNL d   1      32.941  21.562 -20.822  0.00  0.00     0.000 A 
ATOM     20  C   UNL d   1      33.062  20.151 -20.728  0.00  0.00     0.000 C 
ATOM     21  C   UNL d   1      32.891  22.252 -21.281  0.00  0.00     0.000 A 
ATOM     22  C   UNL d   1      32.916  22.186 -22.115  0.00  0.00     0.000 A 
ATOM     23  C   UNL d   1      32.989  21.440 -22.471  0.00  0.00     0.004 A 
ATOM     24  C   UNL d   1      32.868  22.857 -22.591  0.00  0.00     0.000 C 
ENDBRANCH   1  17
TORSDOF 4
ENDMDL
MODEL 2
REMARK VINA RESULT:      -2.9      1.915      5.009
REMARK  4 active torsions:
REMARK  status: ('A' for Active; 'I' for Inactive)
REMARK    1  A    between atoms: C_7  and  C_1 
REMARK    2  A    between atoms: N_6  and  C_3 
REMARK       I    between atoms: C_8  and  N_6 
REMARK    3  A    between atoms: C_12  and  C_8 
REMARK    4  A    between atoms: C_15  and  C_12 
ROOT
ATOM      1  C   UNL d   1      32.316  17.609 -23.485  0.00  0.00     0.206 A 
ATOM      2  O   UNL d   1      32.307  18.358 -23.828  0.00  0.00    -0.253 OA
ATOM      3  C   UNL d   1      32.886  18.833 -23.441  0.00  0.00     0.297 A 
ATOM      4  N   UNL d   1      32.899  17.612 -22.883  0.00  0.00    -0.119 NA
ATOM      5  N   UNL d   1      33.241  18.365 -22.865  0.00  0.00    -0.101 NA
ENDROOT
BRANCH   3   6
ATOM      6  N   UNL d   1      33.052  19.601 -23.612  0.00  0.00    -0.165 NA
ATOM      7  C   UNL d   1      33.069  20.151 -23.006  0.00  0.00     0.282 C 
ATOM      8  O   UNL d   1      33.241  20.949 -23.179  0.00  0.00    -0.265 OA
BRANCH   7   9
ATOM      9  C   UNL d   1      32.920  19.934 -22.228  0.00  0.00     0.063 C 
BRANCH   9  10
ATOM     10  C   UNL d   1      32.878  20.502 -21.633  0.00  0.00     0.005 A 
ATOM     11  C   UNL d   1      32.475  21.219 -21.767  0.00  0.00     0.003 A 
ATOM     12  C   UNL d   1      32.439  21.781 -21.163  0.00  0.00     0.030 A 
ATOM     13  C   UNL d   1      32.792  21.646 -20.436  0.00  0.00     0.140 A 
ATOM     14  C   UNL d   1      33.191  20.936 -20.303  0.00  0.00     0.030 A 
ATOM     15  F   UNL d   1      32.754  22.205 -19.840  0.00  0.00    -0.204 F 
ATOM     16  C   UNL d   1      33.237  20.361 -20.898  0.00  0.00     0.003 A 
ENDBRANCH   9  10
ENDBRANCH   7   9
ENDBRANCH   3   6
BRANCH   1  17
ATOM     17  C   UNL d   1      31.844  16.982 -23.693  0.00  0.00     0.043 A 
ATOM     18  C   UNL d   1      32.151  16.200 -23.651  0.00  0.00     0.004 A 
ATOM     19  C   UNL d   1      31.679  15.559 -23.860  0.00  0.00     0.000 A 
ATOM     20  C   UNL d   1      32.920  16.074 -23.401  0.00  0.00     0.000 C 
ATOM     21  C   UNL d   1      30.899  15.681 -24.114  0.00  0.00     0.000 A 
ATOM     22  C   UNL d   1      30.603  16.463 -24.153  0.00  0.00     0.000 A 
ATOM     23  C   UNL d   1      31.087  17.102 -23.939  0.00  0.00     0.004 A 
ATOM     24  C   UNL d   1      29.831  16.609 -24.402  0.00  0.00     0.000 C 
ENDBRANCH   1  17
TORSDOF 4
ENDMDL
MODEL 3
REMARK VINA RESULT:      -2.8      1.943      4.870
REMARK  4 active torsions:
REMARK  status: ('A' for Active; 'I' for Inactive)
REMARK    1  A    between atoms: C_7  and  C_1 
REMARK    2  A    between atoms: N_6  and  C_3 
REMARK       I    between atoms: C_8  and  N_6 
REMARK    3  A    between atoms: C_12  and  C_8 
REMARK    4  A    between atoms: C_15  and  C_12 
ROOT
ATOM      1  C   UNL d   1      31.326  16.997 -24.365  0.00  0.00     0.206 A 
ATOM      2  O   UNL d   1      31.414  17.800 -24.521  0.00  0.00    -0.253 OA
ATOM      3  C   UNL d   1      32.221  17.944 -24.722  0.00  0.00     0.297 A 
ATOM      4  N   UNL d   1      32.075  16.634 -24.465  0.00  0.00    -0.119 NA
ATOM      5  N   UNL d   1      32.614  17.221 -24.683  0.00  0.00    -0.101 NA
ENDROOT
BRANCH   3   6
ATOM      6  N   UNL d   1      32.537  18.658 -24.913  0.00  0.00    -0.165 NA
ATOM      7  C   UNL d   1      32.895  19.107 -24.329  0.00  0.00     0.282 C 
ATOM      8  O   UNL d   1      33.223  19.848 -24.523  0.00  0.00    -0.265 OA
BRANCH   7   9
ATOM      9  C   UNL d   1      32.937  18.841 -23.553  0.00  0.00     0.063 C 
BRANCH   9  10
ATOM     10  C   UNL d   1      33.012  19.374 -22.929  0.00  0.00     0.005 A 
ATOM     11  C   UNL d   1      33.083  19.094 -22.148  0.00  0.00     0.003 A 
ATOM     12  C   UNL d   1      33.158  19.636 -21.530  0.00  0.00     0.030 A 
ATOM     13  C   UNL d   1      33.163  20.443 -21.672  0.00  0.00     0.140 A 
ATOM     14  C   UNL d   1      33.092  20.721 -22.446  0.00  0.00     0.030 A 
ATOM     15  F   UNL d   1      33.236  20.978 -21.056  0.00  0.00    -0.204 F 
ATOM     16  C   UNL d   1      33.016  20.191 -23.077  0.00  0.00     0.003 A 
ENDBRANCH   9  10
ENDBRANCH   7   9
ENDBRANCH   3   6
BRANCH   1  17
ATOM     17  C   UNL d   1      30.637  16.625 -24.151  0.00  0.00     0.043 A 
ATOM     18  C   UNL d   1      30.671  15.918 -23.696  0.00  0.00     0.004 A 
ATOM     19  C   UNL d   1      29.977  15.535 -23.475  0.00  0.00     0.000 A 
ATOM     20  C   UNL d   1      31.395  15.609 -23.471  0.00  0.00     0.000 C 
ATOM     21  C   UNL d   1      29.241  15.843 -23.700  0.00  0.00     0.000 A 
ATOM     22  C   UNL d   1      29.218  16.547 -24.153  0.00  0.00     0.000 A 
ATOM     23  C   UNL d   1      29.923  16.925 -24.370  0.00  0.00     0.004 A 
ATOM     24  C   UNL d   1      28.497  16.872 -24.388  0.00  0.00     0.000 C 
ENDBRANCH   1  17
TORSDOF 4
ENDMDL
MODEL 4
REMARK VINA RESULT:      -2.6      1.938      2.767
REMARK  4 active torsions:
REMARK  status: ('A' for Active; 'I' for Inactive)
REMARK    1  A    between atoms: C_7  and  C_1 
REMARK    2  A    between atoms: N_6  and  C_3 
REMARK       I    between atoms: C_8  and  N_6 
REMARK    3  A    between atoms: C_12  and  C_8 
REMARK    4  A    between atoms: C_15  and  C_12 
ROOT
ATOM      1  C   UNL d   1      32.736  17.598 -23.908  0.00  0.00     0.206 A 
ATOM      2  O   UNL d   1      32.141  17.335 -24.413  0.00  0.00    -0.253 OA
ATOM      3  C   UNL d   1      32.170  16.492 -24.438  0.00  0.00     0.297 A 
ATOM      4  N   UNL d   1      33.139  16.924 -23.616  0.00  0.00    -0.119 NA
ATOM      5  N   UNL d   1      32.785  16.254 -23.946  0.00  0.00    -0.101 NA
ENDROOT
BRANCH   3   6
ATOM      6  N   UNL d   1      31.681  16.019 -24.867  0.00  0.00    -0.165 NA
ATOM      7  C   UNL d   1      30.893  15.960 -24.654  0.00  0.00     0.282 C 
ATOM      8  O   UNL d   1      30.382  15.470 -25.097  0.00  0.00    -0.265 OA
BRANCH   7   9
ATOM      9  C   UNL d   1      30.592  16.373 -24.011  0.00  0.00     0.063 C 
BRANCH   9  10
ATOM     10  C   UNL d   1      29.794  16.323 -23.813  0.00  0.00     0.005 A 
ATOM     11  C   UNL d   1      29.423  15.579 -23.763  0.00  0.00     0.003 A 
ATOM     12  C   UNL d   1      28.622  15.540 -23.564  0.00  0.00     0.030 A 
ATOM     13  C   UNL d   1      28.188  16.219 -23.415  0.00  0.00     0.140 A 
ATOM     14  C   UNL d   1      28.556  16.956 -23.465  0.00  0.00     0.030 A 
ATOM     15  F   UNL d   1      27.395  16.176 -23.218  0.00  0.00    -0.204 F 
ATOM     16  C   UNL d   1      29.358  17.013 -23.664  0.00  0.00     0.003 A 
ENDBRANCH   9  10
ENDBRANCH   7   9
ENDBRANCH   3   6
BRANCH   1  17
ATOM     17  C   UNL d   1      32.901  18.372 -23.727  0.00  0.00     0.043 A 
ATOM     18  C   UNL d   1      32.998  18.599 -22.923  0.00  0.00     0.004 A 
ATOM     19  C   UNL d   1      33.166  19.381 -22.732  0.00  0.00     0.000 A 
ATOM     20  C   UNL d   1      32.926  18.041 -22.328  0.00  0.00     0.000 C 
ATOM     21  C   UNL d   1      33.240  19.950 -23.331  0.00  0.00     0.000 A 
ATOM     22  C   UNL d   1      33.142  19.715 -24.128  0.00  0.00     0.000 A 
ATOM     23  C   UNL d   1      32.973  18.923 -24.309  0.00  0.00     0.004 A 
ATOM     24  C   UNL d   1      33.212  20.263 -24.740  0.00  0.00     0.000 C 
ENDBRANCH   1  17
TORSDOF 4
ENDMDL
MODEL 5
REMARK VINA RESULT:      -2.1      2.226      5.217
REMARK  4 active torsions:
REMARK  status: ('A' for Active; 'I' for Inactive)
REMARK    1  A    between atoms: C_7  and  C_1 
REMARK    2  A    between atoms: N_6  and  C_3 
REMARK       I    between atoms: C_8  and  N_6 
REMARK    3  A    between atoms: C_12  and  C_8 
REMARK    4  A    between atoms: C_15  and  C_12 
ROOT
ATOM      1  C   UNL d   1      30.298  16.371 -24.237  0.00  0.00     0.206 A 
ATOM      2  O   UNL d   1      30.470  17.154 -24.424  0.00  0.00    -0.253 OA
ATOM      3  C   UNL d   1      31.214  17.174 -24.821  0.00  0.00     0.297 A 
ATOM      4  N   UNL d   1      30.930  15.897 -24.516  0.00  0.00    -0.119 NA
ATOM      5  N   UNL d   1      31.485  16.398 -24.871  0.00  0.00    -0.101 NA
ENDROOT
BRANCH   3   6
ATOM      6  N   UNL d   1      31.581  17.834 -25.097  0.00  0.00    -0.165 NA
ATOM      7  C   UNL d   1      32.121  18.221 -24.618  0.00  0.00     0.282 C 
ATOM      8  O   UNL d   1      32.504  18.906 -24.900  0.00  0.00    -0.265 OA
BRANCH   7   9
ATOM      9  C   UNL d   1      32.294  17.948 -23.863  0.00  0.00     0.063 C 
BRANCH   9  10
ATOM     10  C   UNL d   1      32.530  18.469 -23.270  0.00  0.00     0.005 A 
ATOM     11  C   UNL d   1      32.515  19.291 -23.406  0.00  0.00     0.003 A 
ATOM     12  C   UNL d   1      32.753  19.804 -22.806  0.00  0.00     0.030 A 
ATOM     13  C   UNL d   1      33.004  19.519 -22.079  0.00  0.00     0.140 A 
ATOM     14  C   UNL d   1      33.019  18.706 -21.944  0.00  0.00     0.030 A 
ATOM     15  F   UNL d   1      33.240  20.032 -21.486  0.00  0.00    -0.204 F 
ATOM     16  C   UNL d   1      32.783  18.177 -22.536  0.00  0.00     0.003 A 
ENDBRANCH   9  10
ENDBRANCH   7   9
ENDBRANCH   3   6
BRANCH   1  17
ATOM     17  C   UNL d   1      29.633  16.107 -23.852  0.00  0.00     0.043 A 
ATOM     18  C   UNL d   1      28.910  16.031 -24.276  0.00  0.00     0.004 A 
ATOM     19  C   UNL d   1      28.233  15.764 -23.893  0.00  0.00     0.000 A 
ATOM     20  C   UNL d   1      28.879  16.224 -25.071  0.00  0.00     0.000 C 
ATOM     21  C   UNL d   1      28.260  15.567 -23.088  0.00  0.00     0.000 A 
ATOM     22  C   UNL d   1      28.983  15.646 -22.675  0.00  0.00     0.000 A 
ATOM     23  C   UNL d   1      29.660  15.916 -23.071  0.00  0.00     0.004 A 
ATOM     24  C   UNL d   1      29.034  15.457 -21.874  0.00  0.00     0.000 C 
ENDBRANCH   1  17
TORSDOF 4
ENDMDL
MODEL 6
REMARK VINA RESULT:      -1.9      2.567      5.256
REMARK  4 active torsions:
REMARK  status: ('A' for Active; 'I' for Inactive)
REMARK    1  A    between atoms: C_7  and  C_1 
REMARK    2  A    between atoms: N_6  and  C_3 
REMARK       I    between atoms: C_8  and  N_6 
REMARK    3  A    between atoms: C_12  and  C_8 
REMARK    4  A    between atoms: C_15  and  C_12 
ROOT
ATOM      1  C   UNL d   1      29.949  15.947 -24.026  0.00  0.00     0.206 A 
ATOM      2  O   UNL d   1      30.616  16.089 -23.566  0.00  0.00    -0.253 OA
ATOM      3  C   UNL d   1      31.292  15.812 -23.988  0.00  0.00     0.297 A 
ATOM      4  N   UNL d   1      30.202  15.583 -24.737  0.00  0.00    -0.119 NA
ATOM      5  N   UNL d   1      31.024  15.505 -24.703  0.00  0.00    -0.101 NA
ENDROOT
BRANCH   3   6
ATOM      6  N   UNL d   1      32.053  15.848 -23.730  0.00  0.00    -0.165 NA
ATOM      7  C   UNL d   1      32.452  16.562 -23.757  0.00  0.00     0.282 C 
ATOM      8  O   UNL d   1      33.241  16.603 -23.490  0.00  0.00    -0.265 OA
BRANCH   7   9
ATOM      9  C   UNL d   1      32.090  17.242 -24.042  0.00  0.00     0.063 C 
BRANCH   9  10
ATOM     10  C   UNL d   1      32.378  17.988 -23.842  0.00  0.00     0.005 A 
ATOM     11  C   UNL d   1      32.672  18.494 -24.434  0.00  0.00     0.003 A 
ATOM     12  C   UNL d   1      32.957  19.240 -24.223  0.00  0.00     0.030 A 
ATOM     13  C   UNL d   1      32.957  19.488 -23.442  0.00  0.00     0.140 A 
ATOM     14  C   UNL d   1      32.665  18.986 -22.855  0.00  0.00     0.030 A 
ATOM     15  F   UNL d   1      33.241  20.228 -23.236  0.00  0.00    -0.204 F 
ATOM     16  C   UNL d   1      32.375  18.236 -23.050  0.00  0.00     0.003 A 
ENDBRANCH   9  10
ENDBRANCH   7   9
ENDBRANCH   3   6
BRANCH   1  17
ATOM     17  C   UNL d   1      29.183  16.129 -23.826  0.00  0.00     0.043 A 
ATOM     18  C   UNL d   1      28.764  16.709 -24.270  0.00  0.00     0.004 A 
ATOM     19  C   UNL d   1      27.988  16.898 -24.073  0.00  0.00     0.000 A 
ATOM     20  C   UNL d   1      29.128  17.086 -24.898  0.00  0.00     0.000 C 
ATOM     21  C   UNL d   1      27.614  16.519 -23.437  0.00  0.00     0.000 A 
ATOM     22  C   UNL d   1      28.039  15.944 -23.002  0.00  0.00     0.000 A 
ATOM     23  C   UNL d   1      28.821  15.761 -23.209  0.00  0.00     0.004 A 
ATOM     24  C   UNL d   1      27.688  15.554 -22.366  0.00  0.00     0.000 C 
ENDBRANCH   1  17
TORSDOF 4
ENDMDL
MODEL 7
REMARK VINA RESULT:      -1.2      2.396      5.261
REMARK  4 active torsions:
REMARK  status: ('A' for Active; 'I' for Inactive)
REMARK    1  A    between atoms: C_7  and  C_1 
REMARK    2  A    between atoms: N_6  and  C_3 
REMARK       I    between atoms: C_8  and  N_6 
REMARK    3  A    between atoms: C_12  and  C_8 
REMARK    4  A    between atoms: C_15  and  C_12 
ROOT
ATOM      1  C   UNL d   1      32.724  19.175 -22.779  0.00  0.00     0.206 A 
ATOM      2  O   UNL d   1      32.774  19.911 -23.145  0.00  0.00    -0.253 OA
ATOM      3  C   UNL d   1      32.976  20.484 -22.559  0.00  0.00     0.297 A 
ATOM      4  N   UNL d   1      32.893  19.283 -21.965  0.00  0.00    -0.119 NA
ATOM      5  N   UNL d   1      33.046  20.086 -21.842  0.00  0.00    -0.101 NA
ENDROOT
BRANCH   3   6
ATOM      6  N   UNL d   1      33.078  21.271 -22.689  0.00  0.00    -0.165 NA
ATOM      7  C   UNL d   1      32.998  21.794 -22.064  0.00  0.00     0.282 C 
ATOM      8  O   UNL d   1      33.103  22.610 -22.195  0.00  0.00    -0.265 OA
BRANCH   7   9
ATOM      9  C   UNL d   1      32.815  21.530 -21.309  0.00  0.00     0.063 C 
BRANCH   9  10
ATOM     10  C   UNL d   1      32.747  22.061 -20.682  0.00  0.00     0.005 A 
ATOM     11  C   UNL d   1      32.181  22.672 -20.712  0.00  0.00     0.003 A 
ATOM     12  C   UNL d   1      32.121  23.198 -20.079  0.00  0.00     0.030 A 
ATOM     13  C   UNL d   1      32.607  23.130 -19.423  0.00  0.00     0.140 A 
ATOM     14  C   UNL d   1      33.167  22.524 -19.393  0.00  0.00     0.030 A 
ATOM     15  F   UNL d   1      32.545  23.653 -18.797  0.00  0.00    -0.204 F 
ATOM     16  C   UNL d   1      33.241  21.988 -20.019  0.00  0.00     0.003 A 
ENDBRANCH   9  10
ENDBRANCH   7   9
ENDBRANCH   3   6
BRANCH   1  17
ATOM     17  C   UNL d   1      32.543  18.472 -23.143  0.00  0.00     0.043 A 
ATOM     18  C   UNL d   1      32.806  17.749 -22.802  0.00  0.00     0.004 A 
ATOM     19  C   UNL d   1      32.626  17.032 -23.165  0.00  0.00     0.000 A 
ATOM     20  C   UNL d   1      33.240  17.756 -22.109  0.00  0.00     0.000 C 
ATOM     21  C   UNL d   1      32.185  17.019 -23.867  0.00  0.00     0.000 A 
ATOM     22  C   UNL d   1      31.929  17.744 -24.198  0.00  0.00     0.000 A 
ATOM     23  C   UNL d   1      32.116  18.461 -23.824  0.00  0.00     0.004 A 
ATOM     24  C   UNL d   1      31.490  17.756 -24.896  0.00  0.00     0.000 C 
ENDBRANCH   1  17
TORSDOF 4
ENDMDL
MODEL 8
REMARK VINA RESULT:      -1.0      1.458      2.333
REMARK  4 active torsions:
REMARK  status: ('A' for Active; 'I' for Inactive)
REMARK    1  A    between atoms: C_7  and  C_1 
REMARK    2  A    between atoms: N_6  and  C_3 
REMARK       I    between atoms: C_8  and  N_6 
REMARK    3  A    between atoms: C_12  and  C_8 
REMARK    4  A    between atoms: C_15  and  C_12 
ROOT
ATOM      1  C   UNL d   1      32.854  21.459 -21.410  0.00  0.00     0.206 A 
ATOM      2  O   UNL d   1      33.081  21.477 -22.201  0.00  0.00    -0.253 OA
ATOM      3  C   UNL d   1      32.983  20.702 -22.521  0.00  0.00     0.297 A 
ATOM      4  N   UNL d   1      32.613  20.677 -21.231  0.00  0.00    -0.119 NA
ATOM      5  N   UNL d   1      32.695  20.223 -21.917  0.00  0.00    -0.101 NA
ENDROOT
BRANCH   3   6
ATOM      6  N   UNL d   1      33.144  20.485 -23.279  0.00  0.00    -0.165 NA
ATOM      7  C   UNL d   1      33.075  19.698 -23.492  0.00  0.00     0.282 C 
ATOM      8  O   UNL d   1      33.241  19.468 -24.276  0.00  0.00    -0.265 OA
BRANCH   7   9
ATOM      9  C   UNL d   1      32.845  19.127 -22.948  0.00  0.00     0.063 C 
BRANCH   9  10
ATOM     10  C   UNL d   1      32.826  18.330 -23.156  0.00  0.00     0.005 A 
ATOM     11  C   UNL d   1      32.393  18.083 -23.824  0.00  0.00     0.003 A 
ATOM     12  C   UNL d   1      32.380  17.282 -24.023  0.00  0.00     0.030 A 
ATOM     13  C   UNL d   1      32.786  16.727 -23.577  0.00  0.00     0.140 A 
ATOM     14  C   UNL d   1      33.215  16.972 -22.916  0.00  0.00     0.030 A 
ATOM     15  F   UNL d   1      32.771  15.934 -23.778  0.00  0.00    -0.204 F 
ATOM     16  C   UNL d   1      33.238  17.771 -22.702  0.00  0.00     0.003 A 
ENDBRANCH   9  10
ENDBRANCH   7   9
ENDBRANCH   3   6
BRANCH   1  17
ATOM     17  C   UNL d   1      32.862  22.088 -20.896  0.00  0.00     0.043 A 
ATOM     18  C   UNL d   1      32.679  22.859 -21.181  0.00  0.00     0.004 A 
ATOM     19  C   UNL d   1      32.686  23.501 -20.666  0.00  0.00     0.000 A 
ATOM     20  C   UNL d   1      32.495  22.972 -21.970  0.00  0.00     0.000 C 
ATOM     21  C   UNL d   1      32.872  23.392 -19.865  0.00  0.00     0.000 A 
ATOM     22  C   UNL d   1      33.052  22.621 -19.592  0.00  0.00     0.000 A 
ATOM     23  C   UNL d   1      33.043  21.981 -20.120  0.00  0.00     0.004 A 
ATOM     24  C   UNL d   1      33.241  22.489 -18.801  0.00  0.00     0.000 C 
ENDBRANCH   1  17
TORSDOF 4
ENDMDL
