MODEL 1
REMARK VINA RESULT:      -1.6      0.000      0.000
REMARK  5 active torsions:
REMARK  status: ('A' for Active; 'I' for Inactive)
REMARK    1  A    between atoms: N_2  and  C_1 
REMARK       I    between atoms: C_7  and  N_2 
REMARK    2  A    between atoms: C_21  and  N_3 
REMARK    3  A    between atoms: C_8  and  C_7 
REMARK       I    between atoms: C_12  and  N_13 
REMARK    4  A    between atoms: N_13  and  C_14 
REMARK    5  A    between atoms: C_20  and  C_21 
ROOT
ATOM      1  C   UNL d   1      58.741  -1.421  29.659  0.00  0.00     0.182 A 
ATOM      2  N   UNL d   1      58.720  -0.614  29.519  0.00  0.00    -0.285 N 
ATOM      3  S   UNL d   1      58.218  -1.586  30.273  0.00  0.00    -0.048 SA
ATOM      4  C   UNL d   1      57.872  -0.874  30.514  0.00  0.00     0.050 A 
ATOM      5  C   UNL d   1      58.184  -0.271  30.046  0.00  0.00     0.072 A 
ATOM      6  C   UNL d   1      57.317  -0.699  31.096  0.00  0.00     0.027 A 
ATOM      7  C   UNL d   1      57.940   0.508  30.160  0.00  0.00     0.020 A 
ATOM      8  C   UNL d   1      57.073   0.078  31.210  0.00  0.00     0.085 A 
ATOM      9  C   UNL d   1      57.385   0.682  30.742  0.00  0.00     0.021 A 
ENDROOT
BRANCH   1  10
ATOM     10  N   UNL d   1      59.207  -1.966  29.251  0.00  0.00    -0.183 NA
ATOM     11  C   UNL d   1      59.230  -2.749  29.504  0.00  0.00     0.287 C 
ATOM     12  O   UNL d   1      58.789  -2.981  30.161  0.00  0.00    -0.265 OA
BRANCH  11  13
ATOM     13  C   UNL d   1      59.694  -3.301  29.102  0.00  0.00     0.087 A 
ATOM     14  S   UNL d   1      59.449  -4.042  28.827  0.00  0.00    -0.082 SA
ATOM     15  C   UNL d   1      60.087  -4.413  28.456  0.00  0.00     0.036 A 
ATOM     16  C   UNL d   1      60.730  -3.899  28.501  0.00  0.00     0.008 A 
ATOM     17  C   UNL d   1      60.495  -3.213  28.897  0.00  0.00     0.012 A 
ENDBRANCH  11  13
ENDBRANCH   1  10
BRANCH   2  18
ATOM     18  C   UNL d   1      59.158  -0.204  28.950  0.00  0.00     0.082 C 
BRANCH  18  19
ATOM     19  C   UNL d   1      59.895   0.110  29.138  0.00  0.00     0.019 C 
ATOM     20  C   UNL d   1      60.244   0.669  28.648  0.00  0.00     0.002 C 
ENDBRANCH  18  19
ENDBRANCH   2  18
BRANCH   8  21
ATOM     21  N   UNL d   1      56.509   0.258  31.800  0.00  0.00    -0.208 NA
ATOM     22  C   UNL d   1      56.747   0.343  32.575  0.00  0.00     0.279 C 
ATOM     23  O   UNL d   1      56.189   0.520  33.155  0.00  0.00    -0.265 OA
ATOM     24  C   UNL d   1      57.538   0.253  32.789  0.00  0.00     0.068 C 
ENDBRANCH   8  21
TORSDOF 5
ENDMDL
MODEL 2
REMARK VINA RESULT:      -1.5      0.912      1.029
REMARK  5 active torsions:
REMARK  status: ('A' for Active; 'I' for Inactive)
REMARK    1  A    between atoms: N_2  and  C_1 
REMARK       I    between atoms: C_7  and  N_2 
REMARK    2  A    between atoms: C_21  and  N_3 
REMARK    3  A    between atoms: C_8  and  C_7 
REMARK       I    between atoms: C_12  and  N_13 
REMARK    4  A    between atoms: N_13  and  C_14 
REMARK    5  A    between atoms: C_20  and  C_21 
ROOT
ATOM      1  C   UNL d   1      58.447  -1.054  30.328  0.00  0.00     0.182 A 
ATOM      2  N   UNL d   1      58.423  -0.243  30.439  0.00  0.00    -0.285 N 
ATOM      3  S   UNL d   1      57.826  -1.388  30.754  0.00  0.00    -0.048 SA
ATOM      4  C   UNL d   1      57.416  -0.776  31.130  0.00  0.00     0.050 A 
ATOM      5  C   UNL d   1      57.787  -0.065  30.935  0.00  0.00     0.072 A 
ATOM      6  C   UNL d   1      56.756  -0.774  31.622  0.00  0.00     0.027 A 
ATOM      7  C   UNL d   1      57.498   0.647  31.232  0.00  0.00     0.020 A 
ATOM      8  C   UNL d   1      56.467  -0.064  31.920  0.00  0.00     0.085 A 
ATOM      9  C   UNL d   1      56.839   0.647  31.725  0.00  0.00     0.021 A 
ENDROOT
BRANCH   1  10
ATOM     10  N   UNL d   1      59.000  -1.460  29.869  0.00  0.00    -0.183 NA
ATOM     11  C   UNL d   1      58.842  -2.231  29.630  0.00  0.00     0.287 C 
ATOM     12  O   UNL d   1      58.134  -2.591  29.851  0.00  0.00    -0.265 OA
BRANCH  11  13
ATOM     13  C   UNL d   1      59.390  -2.643  29.171  0.00  0.00     0.087 A 
ATOM     14  S   UNL d   1      59.320  -3.424  28.904  0.00  0.00    -0.082 SA
ATOM     15  C   UNL d   1      59.992  -3.615  28.463  0.00  0.00     0.036 A 
ATOM     16  C   UNL d   1      60.480  -2.950  28.457  0.00  0.00     0.008 A 
ATOM     17  C   UNL d   1      60.116  -2.349  28.890  0.00  0.00     0.012 A 
ENDBRANCH  11  13
ENDBRANCH   1  10
BRANCH   2  18
ATOM     18  C   UNL d   1      58.944   0.311  30.115  0.00  0.00     0.082 C 
BRANCH  18  19
ATOM     19  C   UNL d   1      59.508   0.680  30.587  0.00  0.00     0.019 C 
ATOM     20  C   UNL d   1      60.306   0.619  30.403  0.00  0.00     0.002 C 
ENDBRANCH  18  19
ENDBRANCH   2  18
BRANCH   8  21
ATOM     21  N   UNL d   1      55.798  -0.060  32.420  0.00  0.00    -0.208 NA
ATOM     22  C   UNL d   1      55.885   0.110  33.213  0.00  0.00     0.279 C 
ATOM     23  O   UNL d   1      55.224   0.114  33.704  0.00  0.00    -0.265 OA
ATOM     24  C   UNL d   1      56.627   0.280  33.532  0.00  0.00     0.068 C 
ENDBRANCH   8  21
TORSDOF 5
ENDMDL
MODEL 3
REMARK VINA RESULT:      -0.7      1.383      4.525
REMARK  5 active torsions:
REMARK  status: ('A' for Active; 'I' for Inactive)
REMARK    1  A    between atoms: N_2  and  C_1 
REMARK       I    between atoms: C_7  and  N_2 
REMARK    2  A    between atoms: C_21  and  N_3 
REMARK    3  A    between atoms: C_8  and  C_7 
REMARK       I    between atoms: C_12  and  N_13 
REMARK    4  A    between atoms: N_13  and  C_14 
REMARK    5  A    between atoms: C_20  and  C_21 
ROOT
ATOM      1  C   UNL d   1      57.845  -0.714  30.722  0.00  0.00     0.182 A 
ATOM      2  N   UNL d   1      58.478  -0.396  30.309  0.00  0.00    -0.285 N 
ATOM      3  S   UNL d   1      57.762  -1.501  30.494  0.00  0.00    -0.048 SA
ATOM      4  C   UNL d   1      58.349  -1.669  29.936  0.00  0.00     0.050 A 
ATOM      5  C   UNL d   1      58.793  -0.983  29.821  0.00  0.00     0.072 A 
ATOM      6  C   UNL d   1      58.534  -2.354  29.519  0.00  0.00     0.027 A 
ATOM      7  C   UNL d   1      59.423  -0.983  29.290  0.00  0.00     0.020 A 
ATOM      8  C   UNL d   1      59.163  -2.355  28.989  0.00  0.00     0.085 A 
ATOM      9  C   UNL d   1      59.608  -1.669  28.875  0.00  0.00     0.021 A 
ENDROOT
BRANCH   1  10
ATOM     10  N   UNL d   1      57.378  -0.310  31.269  0.00  0.00    -0.183 NA
ATOM     11  C   UNL d   1      56.873  -0.733  31.763  0.00  0.00     0.287 C 
ATOM     12  O   UNL d   1      56.839  -1.554  31.707  0.00  0.00    -0.265 OA
BRANCH  11  13
ATOM     13  C   UNL d   1      56.403  -0.336  32.312  0.00  0.00     0.087 A 
ATOM     14  S   UNL d   1      56.023  -0.671  32.967  0.00  0.00    -0.082 SA
ATOM     15  C   UNL d   1      55.612  -0.078  33.368  0.00  0.00     0.036 A 
ATOM     16  C   UNL d   1      55.737   0.628  32.960  0.00  0.00     0.008 A 
ATOM     17  C   UNL d   1      56.222   0.476  32.310  0.00  0.00     0.012 A 
ENDBRANCH  11  13
ENDBRANCH   1  10
BRANCH   2  18
ATOM     18  C   UNL d   1      58.760   0.379  30.366  0.00  0.00     0.082 C 
BRANCH  18  19
ATOM     19  C   UNL d   1      59.567   0.532  30.335  0.00  0.00     0.019 C 
ATOM     20  C   UNL d   1      59.987   0.682  31.024  0.00  0.00     0.002 C 
ENDBRANCH  18  19
ENDBRANCH   2  18
BRANCH   8  21
ATOM     21  N   UNL d   1      59.354  -3.050  28.565  0.00  0.00    -0.208 NA
ATOM     22  C   UNL d   1      59.891  -3.579  28.874  0.00  0.00     0.279 C 
ATOM     23  O   UNL d   1      60.077  -4.263  28.455  0.00  0.00    -0.265 OA
ATOM     24  C   UNL d   1      60.253  -3.440  29.603  0.00  0.00     0.068 C 
ENDBRANCH   8  21
TORSDOF 5
ENDMDL
MODEL 4
REMARK VINA RESULT:       0.5      2.251      3.754
REMARK  5 active torsions:
REMARK  status: ('A' for Active; 'I' for Inactive)
REMARK    1  A    between atoms: N_2  and  C_1 
REMARK       I    between atoms: C_7  and  N_2 
REMARK    2  A    between atoms: C_21  and  N_3 
REMARK    3  A    between atoms: C_8  and  C_7 
REMARK       I    between atoms: C_12  and  N_13 
REMARK    4  A    between atoms: N_13  and  C_14 
REMARK    5  A    between atoms: C_20  and  C_21 
ROOT
ATOM      1  C   UNL d   1      57.324   0.659  31.822  0.00  0.00     0.182 A 
ATOM      2  N   UNL d   1      57.489   0.667  32.624  0.00  0.00    -0.285 N 
ATOM      3  S   UNL d   1      56.506   0.654  31.731  0.00  0.00    -0.048 SA
ATOM      4  C   UNL d   1      56.164   0.659  32.484  0.00  0.00     0.050 A 
ATOM      5  C   UNL d   1      56.775   0.667  33.039  0.00  0.00     0.072 A 
ATOM      6  C   UNL d   1      55.380   0.658  32.734  0.00  0.00     0.027 A 
ATOM      7  C   UNL d   1      56.601   0.673  33.844  0.00  0.00     0.020 A 
ATOM      8  C   UNL d   1      55.206   0.664  33.538  0.00  0.00     0.085 A 
ATOM      9  C   UNL d   1      55.816   0.672  34.093  0.00  0.00     0.021 A 
ENDROOT
BRANCH   1  10
ATOM     10  N   UNL d   1      57.885   0.656  31.217  0.00  0.00    -0.183 NA
ATOM     11  C   UNL d   1      57.813   0.116  30.599  0.00  0.00     0.287 C 
ATOM     12  O   UNL d   1      57.184  -0.415  30.590  0.00  0.00    -0.265 OA
BRANCH  11  13
ATOM     13  C   UNL d   1      58.370   0.108  29.990  0.00  0.00     0.087 A 
ATOM     14  S   UNL d   1      58.946  -0.473  29.859  0.00  0.00    -0.082 SA
ATOM     15  C   UNL d   1      59.386  -0.265  29.191  0.00  0.00     0.036 A 
ATOM     16  C   UNL d   1      59.081   0.447  28.908  0.00  0.00     0.008 A 
ATOM     17  C   UNL d   1      58.457   0.682  29.394  0.00  0.00     0.012 A 
ENDBRANCH  11  13
ENDBRANCH   1  10
BRANCH   2  18
ATOM     18  C   UNL d   1      58.241   0.673  32.969  0.00  0.00     0.082 C 
BRANCH  18  19
ATOM     19  C   UNL d   1      58.324   0.634  33.787  0.00  0.00     0.019 C 
ATOM     20  C   UNL d   1      59.069   0.680  34.129  0.00  0.00     0.002 C 
ENDBRANCH  18  19
ENDBRANCH   2  18
BRANCH   8  21
ATOM     21  N   UNL d   1      54.411   0.663  33.795  0.00  0.00    -0.208 NA
ATOM     22  C   UNL d   1      54.241   0.586  34.589  0.00  0.00     0.279 C 
ATOM     23  O   UNL d   1      53.456   0.585  34.840  0.00  0.00    -0.265 OA
ATOM     24  C   UNL d   1      54.844   0.509  35.147  0.00  0.00     0.068 C 
ENDBRANCH   8  21
TORSDOF 5
ENDMDL
MODEL 5
REMARK VINA RESULT:       0.5      1.563      4.740
REMARK  5 active torsions:
REMARK  status: ('A' for Active; 'I' for Inactive)
REMARK    1  A    between atoms: N_2  and  C_1 
REMARK       I    between atoms: C_7  and  N_2 
REMARK    2  A    between atoms: C_21  and  N_3 
REMARK    3  A    between atoms: C_8  and  C_7 
REMARK       I    between atoms: C_12  and  N_13 
REMARK    4  A    between atoms: N_13  and  C_14 
REMARK    5  A    between atoms: C_20  and  C_21 
ROOT
ATOM      1  C   UNL d   1      57.433  -0.379  31.535  0.00  0.00     0.182 A 
ATOM      2  N   UNL d   1      58.104  -0.025  31.225  0.00  0.00    -0.285 N 
ATOM      3  S   UNL d   1      57.290  -1.069  31.108  0.00  0.00    -0.048 SA
ATOM      4  C   UNL d   1      57.878  -1.139  30.531  0.00  0.00     0.050 A 
ATOM      5  C   UNL d   1      58.383  -0.491  30.604  0.00  0.00     0.072 A 
ATOM      6  C   UNL d   1      58.018  -1.707  29.952  0.00  0.00     0.027 A 
ATOM      7  C   UNL d   1      59.028  -0.411  30.097  0.00  0.00     0.020 A 
ATOM      8  C   UNL d   1      58.662  -1.628  29.446  0.00  0.00     0.085 A 
ATOM      9  C   UNL d   1      59.167  -0.979  29.519  0.00  0.00     0.021 A 
ENDROOT
BRANCH   1  10
ATOM     10  N   UNL d   1      56.984  -0.090  32.164  0.00  0.00    -0.183 NA
ATOM     11  C   UNL d   1      56.345  -0.528  32.442  0.00  0.00     0.287 C 
ATOM     12  O   UNL d   1      56.158  -1.249  32.090  0.00  0.00    -0.265 OA
BRANCH  11  13
ATOM     13  C   UNL d   1      55.891  -0.245  33.070  0.00  0.00     0.087 A 
ATOM     14  S   UNL d   1      55.828  -0.584  33.823  0.00  0.00    -0.082 SA
ATOM     15  C   UNL d   1      55.318  -0.124  34.281  0.00  0.00     0.036 A 
ATOM     16  C   UNL d   1      55.064   0.504  33.810  0.00  0.00     0.008 A 
ATOM     17  C   UNL d   1      55.412   0.435  33.065  0.00  0.00     0.012 A 
ENDBRANCH  11  13
ENDBRANCH   1  10
BRANCH   2  18
ATOM     18  C   UNL d   1      58.448   0.680  31.485  0.00  0.00     0.082 C 
BRANCH  18  19
ATOM     19  C   UNL d   1      59.206   0.681  31.806  0.00  0.00     0.019 C 
ATOM     20  C   UNL d   1      59.311   0.682  32.620  0.00  0.00     0.002 C 
ENDBRANCH  18  19
ENDBRANCH   2  18
BRANCH   8  21
ATOM     21  N   UNL d   1      58.806  -2.203  28.857  0.00  0.00    -0.208 NA
ATOM     22  C   UNL d   1      59.245  -2.867  29.037  0.00  0.00     0.279 C 
ATOM     23  O   UNL d   1      59.385  -3.432  28.455  0.00  0.00    -0.265 OA
ATOM     24  C   UNL d   1      59.551  -2.980  29.795  0.00  0.00     0.068 C 
ENDBRANCH   8  21
TORSDOF 5
ENDMDL
