MODEL 1
REMARK VINA RESULT:      -5.7      0.000      0.000
REMARK  6 active torsions:
REMARK  status: ('A' for Active; 'I' for Inactive)
REMARK    1  A    between atoms: N_10  and  C_2 
REMARK    2  A    between atoms: C_13  and  C_3 
REMARK    3  A    between atoms: C_6  and  S_15 
REMARK       I    between atoms: C_12  and  N_10 
REMARK    4  A    between atoms: C_14  and  C_12 
REMARK    5  A    between atoms: C_17  and  C_14 
REMARK    6  A    between atoms: S_15  and  C_17 
ROOT
ATOM      1  N   UNL d   1     -47.359  13.012  22.512  0.00  0.00    -0.181 NA
ATOM      2  C   UNL d   1     -46.638  13.404  22.597  0.00  0.00     0.282 C 
ATOM      3  O   UNL d   1     -46.606  14.232  22.576  0.00  0.00    -0.265 OA
ENDROOT
BRANCH   1   4
ATOM      4  C   UNL d   1     -48.067  13.441  22.403  0.00  0.00     0.216 A 
ATOM      5  N   UNL d   1     -48.481  13.845  22.991  0.00  0.00    -0.200 NA
ATOM      6  C   UNL d   1     -49.142  14.186  22.638  0.00  0.00     0.172 A 
ATOM      7  N   UNL d   1     -49.126  13.990  21.844  0.00  0.00    -0.187 NA
ATOM      8  S   UNL d   1     -48.466  13.532  21.701  0.00  0.00     0.054 SA
BRANCH   6   9
ATOM      9  C   UNL d   1     -49.733  14.648  22.989  0.00  0.00     0.036 A 
ATOM     10  C   UNL d   1     -49.596  15.444  23.145  0.00  0.00     0.003 A 
ATOM     11  C   UNL d   1     -50.184  15.904  23.495  0.00  0.00     0.000 A 
ATOM     12  C   UNL d   1     -50.910  15.568  23.689  0.00  0.00     0.000 A 
ATOM     13  C   UNL d   1     -51.049  14.768  23.533  0.00  0.00     0.000 A 
ATOM     14  C   UNL d   1     -50.461  14.308  23.183  0.00  0.00     0.003 A 
ENDBRANCH   6   9
ENDBRANCH   1   4
BRANCH   2  15
ATOM     15  C   UNL d   1     -45.937  12.970  22.705  0.00  0.00     0.070 C 
BRANCH  15  16
ATOM     16  C   UNL d   1     -45.288  13.105  22.215  0.00  0.00     0.042 C 
BRANCH  16  17
ATOM     17  S   UNL d   1     -44.849  12.464  21.938  0.00  0.00    -0.059 SA
BRANCH  17  18
ATOM     18  C   UNL d   1     -44.046  12.558  21.773  0.00  0.00     0.164 A 
ATOM     19  S   UNL d   1     -43.626  13.114  21.327  0.00  0.00    -0.039 SA
ATOM     20  C   UNL d   1     -42.830  12.919  21.368  0.00  0.00     0.134 A 
ATOM     21  C   UNL d   1     -42.205  13.332  20.998  0.00  0.00     0.030 C 
ATOM     22  N   UNL d   1     -42.752  12.247  21.836  0.00  0.00    -0.140 NA
ATOM     23  N   UNL d   1     -43.499  12.026  22.085  0.00  0.00    -0.134 NA
ENDBRANCH  17  18
ENDBRANCH  16  17
ENDBRANCH  15  16
ENDBRANCH   2  15
TORSDOF 6
ENDMDL
MODEL 2
REMARK VINA RESULT:      -5.5      1.538      1.763
REMARK  6 active torsions:
REMARK  status: ('A' for Active; 'I' for Inactive)
REMARK    1  A    between atoms: N_10  and  C_2 
REMARK    2  A    between atoms: C_13  and  C_3 
REMARK    3  A    between atoms: C_6  and  S_15 
REMARK       I    between atoms: C_12  and  N_10 
REMARK    4  A    between atoms: C_14  and  C_12 
REMARK    5  A    between atoms: C_17  and  C_14 
REMARK    6  A    between atoms: S_15  and  C_17 
ROOT
ATOM      1  N   UNL d   1     -47.755  11.482  23.237  0.00  0.00    -0.181 NA
ATOM      2  C   UNL d   1     -47.100  11.930  23.463  0.00  0.00     0.282 C 
ATOM      3  O   UNL d   1     -47.185  12.732  23.652  0.00  0.00    -0.265 OA
ENDROOT
BRANCH   1   4
ATOM      4  C   UNL d   1     -48.514  11.829  23.195  0.00  0.00     0.216 A 
ATOM      5  N   UNL d   1     -48.754  12.401  22.652  0.00  0.00    -0.200 NA
ATOM      6  C   UNL d   1     -49.541  12.582  22.813  0.00  0.00     0.172 A 
ATOM      7  N   UNL d   1     -49.773  12.122  23.449  0.00  0.00    -0.187 NA
ATOM      8  S   UNL d   1     -49.142  11.660  23.682  0.00  0.00     0.054 SA
BRANCH   6   9
ATOM      9  C   UNL d   1     -50.035  13.122  22.426  0.00  0.00     0.036 A 
ATOM     10  C   UNL d   1     -50.019  13.917  22.634  0.00  0.00     0.003 A 
ATOM     11  C   UNL d   1     -50.511  14.455  22.248  0.00  0.00     0.000 A 
ATOM     12  C   UNL d   1     -51.020  14.197  21.656  0.00  0.00     0.000 A 
ATOM     13  C   UNL d   1     -51.038  13.398  21.446  0.00  0.00     0.000 A 
ATOM     14  C   UNL d   1     -50.545  12.860  21.831  0.00  0.00     0.003 A 
ENDBRANCH   6   9
ENDBRANCH   1   4
BRANCH   2  15
ATOM     15  C   UNL d   1     -46.348  11.578  23.502  0.00  0.00     0.070 C 
BRANCH  15  16
ATOM     16  C   UNL d   1     -45.710  11.921  23.108  0.00  0.00     0.042 C 
BRANCH  16  17
ATOM     17  S   UNL d   1     -45.004  11.501  23.038  0.00  0.00    -0.059 SA
BRANCH  17  18
ATOM     18  C   UNL d   1     -44.380  11.818  22.601  0.00  0.00     0.164 A 
ATOM     19  S   UNL d   1     -44.334  12.440  22.057  0.00  0.00    -0.039 SA
ATOM     20  C   UNL d   1     -43.557  12.495  21.803  0.00  0.00     0.134 A 
ATOM     21  C   UNL d   1     -43.261  13.048  21.251  0.00  0.00     0.030 C 
ATOM     22  N   UNL d   1     -43.118  11.912  22.183  0.00  0.00    -0.140 NA
ATOM     23  N   UNL d   1     -43.624  11.497  22.673  0.00  0.00    -0.134 NA
ENDBRANCH  17  18
ENDBRANCH  16  17
ENDBRANCH  15  16
ENDBRANCH   2  15
TORSDOF 6
ENDMDL
MODEL 3
REMARK VINA RESULT:      -5.3      1.271      1.690
REMARK  6 active torsions:
REMARK  status: ('A' for Active; 'I' for Inactive)
REMARK    1  A    between atoms: N_10  and  C_2 
REMARK    2  A    between atoms: C_13  and  C_3 
REMARK    3  A    between atoms: C_6  and  S_15 
REMARK       I    between atoms: C_12  and  N_10 
REMARK    4  A    between atoms: C_14  and  C_12 
REMARK    5  A    between atoms: C_17  and  C_14 
REMARK    6  A    between atoms: S_15  and  C_17 
ROOT
ATOM      1  N   UNL d   1     -47.072  13.843  22.218  0.00  0.00    -0.181 NA
ATOM      2  C   UNL d   1     -46.377  13.616  22.600  0.00  0.00     0.282 C 
ATOM      3  O   UNL d   1     -46.400  13.322  23.374  0.00  0.00    -0.265 OA
ENDROOT
BRANCH   1   4
ATOM      4  C   UNL d   1     -47.810  13.781  22.604  0.00  0.00     0.216 A 
ATOM      5  N   UNL d   1     -48.271  13.100  22.657  0.00  0.00    -0.200 NA
ATOM      6  C   UNL d   1     -48.948  13.291  23.085  0.00  0.00     0.172 A 
ATOM      7  N   UNL d   1     -48.895  14.082  23.288  0.00  0.00    -0.187 NA
ATOM      8  S   UNL d   1     -48.196  14.382  22.992  0.00  0.00     0.054 SA
BRANCH   6   9
ATOM      9  C   UNL d   1     -49.584  12.802  23.290  0.00  0.00     0.036 A 
ATOM     10  C   UNL d   1     -49.449  12.016  23.493  0.00  0.00     0.003 A 
ATOM     11  C   UNL d   1     -50.083  11.528  23.697  0.00  0.00     0.000 A 
ATOM     12  C   UNL d   1     -50.849  11.827  23.697  0.00  0.00     0.000 A 
ATOM     13  C   UNL d   1     -50.986  12.615  23.493  0.00  0.00     0.000 A 
ATOM     14  C   UNL d   1     -50.353  13.103  23.289  0.00  0.00     0.003 A 
ENDBRANCH   6   9
ENDBRANCH   1   4
BRANCH   2  15
ATOM     15  C   UNL d   1     -45.646  13.681  22.209  0.00  0.00     0.070 C 
BRANCH  15  16
ATOM     16  C   UNL d   1     -45.114  13.051  22.219  0.00  0.00     0.042 C 
BRANCH  16  17
ATOM     17  S   UNL d   1     -44.700  12.859  21.533  0.00  0.00    -0.059 SA
BRANCH  17  18
ATOM     18  C   UNL d   1     -43.878  12.786  21.557  0.00  0.00     0.164 A 
ATOM     19  S   UNL d   1     -43.263  13.268  21.285  0.00  0.00    -0.039 SA
ATOM     20  C   UNL d   1     -42.554  12.899  21.471  0.00  0.00     0.134 A 
ATOM     21  C   UNL d   1     -41.791  13.192  21.299  0.00  0.00     0.030 C 
ATOM     22  N   UNL d   1     -42.723  12.193  21.857  0.00  0.00    -0.140 NA
ATOM     23  N   UNL d   1     -43.537  12.124  21.910  0.00  0.00    -0.134 NA
ENDBRANCH  17  18
ENDBRANCH  16  17
ENDBRANCH  15  16
ENDBRANCH   2  15
TORSDOF 6
ENDMDL
MODEL 4
REMARK VINA RESULT:      -5.2      2.199      6.180
REMARK  6 active torsions:
REMARK  status: ('A' for Active; 'I' for Inactive)
REMARK    1  A    between atoms: N_10  and  C_2 
REMARK    2  A    between atoms: C_13  and  C_3 
REMARK    3  A    between atoms: C_6  and  S_15 
REMARK       I    between atoms: C_12  and  N_10 
REMARK    4  A    between atoms: C_14  and  C_12 
REMARK    5  A    between atoms: C_17  and  C_14 
REMARK    6  A    between atoms: S_15  and  C_17 
ROOT
ATOM      1  N   UNL d   1     -47.649  12.287  23.616  0.00  0.00    -0.181 NA
ATOM      2  C   UNL d   1     -48.209  11.704  23.448  0.00  0.00     0.282 C 
ATOM      3  O   UNL d   1     -47.976  10.983  23.112  0.00  0.00    -0.265 OA
ENDROOT
BRANCH   1   4
ATOM      4  C   UNL d   1     -46.840  12.160  23.451  0.00  0.00     0.216 A 
ATOM      5  N   UNL d   1     -46.417  11.470  23.610  0.00  0.00    -0.200 NA
ATOM      6  C   UNL d   1     -45.642  11.590  23.358  0.00  0.00     0.172 A 
ATOM      7  N   UNL d   1     -45.599  12.347  23.048  0.00  0.00    -0.187 NA
ATOM      8  S   UNL d   1     -46.335  12.696  23.106  0.00  0.00     0.054 SA
BRANCH   6   9
ATOM      9  C   UNL d   1     -45.002  11.067  23.394  0.00  0.00     0.036 A 
ATOM     10  C   UNL d   1     -45.114  10.297  23.662  0.00  0.00     0.003 A 
ATOM     11  C   UNL d   1     -44.475   9.776  23.698  0.00  0.00     0.000 A 
ATOM     12  C   UNL d   1     -43.726  10.025  23.466  0.00  0.00     0.000 A 
ATOM     13  C   UNL d   1     -43.612  10.797  23.197  0.00  0.00     0.000 A 
ATOM     14  C   UNL d   1     -44.251  11.319  23.160  0.00  0.00     0.003 A 
ENDBRANCH   6   9
ENDBRANCH   1   4
BRANCH   2  15
ATOM     15  C   UNL d   1     -49.012  11.837  23.614  0.00  0.00     0.070 C 
BRANCH  15  16
ATOM     16  C   UNL d   1     -49.470  12.295  23.104  0.00  0.00     0.042 C 
BRANCH  16  17
ATOM     17  S   UNL d   1     -50.233  12.512  23.330  0.00  0.00    -0.059 SA
BRANCH  17  18
ATOM     18  C   UNL d   1     -50.510  13.271  23.159  0.00  0.00     0.164 A 
ATOM     19  S   UNL d   1     -50.570  13.962  23.610  0.00  0.00    -0.039 SA
ATOM     20  C   UNL d   1     -50.893  14.546  23.133  0.00  0.00     0.134 A 
ATOM     21  C   UNL d   1     -51.051  15.333  23.363  0.00  0.00     0.030 C 
ATOM     22  N   UNL d   1     -51.034  14.224  22.389  0.00  0.00    -0.140 NA
ATOM     23  N   UNL d   1     -50.799  13.441  22.406  0.00  0.00    -0.134 NA
ENDBRANCH  17  18
ENDBRANCH  16  17
ENDBRANCH  15  16
ENDBRANCH   2  15
TORSDOF 6
ENDMDL
MODEL 5
REMARK VINA RESULT:      -5.2      2.184      3.086
REMARK  6 active torsions:
REMARK  status: ('A' for Active; 'I' for Inactive)
REMARK    1  A    between atoms: N_10  and  C_2 
REMARK    2  A    between atoms: C_13  and  C_3 
REMARK    3  A    between atoms: C_6  and  S_15 
REMARK       I    between atoms: C_12  and  N_10 
REMARK    4  A    between atoms: C_14  and  C_12 
REMARK    5  A    between atoms: C_17  and  C_14 
REMARK    6  A    between atoms: S_15  and  C_17 
ROOT
ATOM      1  N   UNL d   1     -44.976  13.299  21.698  0.00  0.00    -0.181 NA
ATOM      2  C   UNL d   1     -44.301  12.834  21.793  0.00  0.00     0.282 C 
ATOM      3  O   UNL d   1     -44.230  12.327  22.445  0.00  0.00    -0.265 OA
ENDROOT
BRANCH   1   4
ATOM      4  C   UNL d   1     -45.598  13.267  22.255  0.00  0.00     0.216 A 
ATOM      5  N   UNL d   1     -46.234  12.743  22.239  0.00  0.00    -0.200 NA
ATOM      6  C   UNL d   1     -46.708  12.909  22.891  0.00  0.00     0.172 A 
ATOM      7  N   UNL d   1     -46.361  13.529  23.297  0.00  0.00    -0.187 NA
ATOM      8  S   UNL d   1     -45.679  13.748  22.906  0.00  0.00     0.054 SA
BRANCH   6   9
ATOM      9  C   UNL d   1     -47.412  12.539  23.124  0.00  0.00     0.036 A 
ATOM     10  C   UNL d   1     -47.390  11.792  23.466  0.00  0.00     0.003 A 
ATOM     11  C   UNL d   1     -48.091  11.423  23.698  0.00  0.00     0.000 A 
ATOM     12  C   UNL d   1     -48.812  11.803  23.587  0.00  0.00     0.000 A 
ATOM     13  C   UNL d   1     -48.836  12.554  23.243  0.00  0.00     0.000 A 
ATOM     14  C   UNL d   1     -48.135  12.922  23.012  0.00  0.00     0.003 A 
ENDBRANCH   6   9
ENDBRANCH   1   4
BRANCH   2  15
ATOM     15  C   UNL d   1     -43.687  12.870  21.236  0.00  0.00     0.070 C 
BRANCH  15  16
ATOM     16  C   UNL d   1     -43.000  13.295  21.403  0.00  0.00     0.042 C 
BRANCH  16  17
ATOM     17  S   UNL d   1     -42.361  13.253  20.884  0.00  0.00    -0.059 SA
BRANCH  17  18
ATOM     18  C   UNL d   1     -41.745  13.800  20.948  0.00  0.00     0.164 A 
ATOM     19  S   UNL d   1     -41.668  14.589  20.714  0.00  0.00    -0.039 SA
ATOM     20  C   UNL d   1     -40.919  14.843  20.929  0.00  0.00     0.134 A 
ATOM     21  C   UNL d   1     -40.605  15.607  20.799  0.00  0.00     0.030 C 
ATOM     22  N   UNL d   1     -40.529  14.219  21.295  0.00  0.00    -0.140 NA
ATOM     23  N   UNL d   1     -41.037  13.578  21.307  0.00  0.00    -0.134 NA
ENDBRANCH  17  18
ENDBRANCH  16  17
ENDBRANCH  15  16
ENDBRANCH   2  15
TORSDOF 6
ENDMDL
MODEL 6
REMARK VINA RESULT:      -5.2      8.068      9.759
REMARK  6 active torsions:
REMARK  status: ('A' for Active; 'I' for Inactive)
REMARK    1  A    between atoms: N_10  and  C_2 
REMARK    2  A    between atoms: C_13  and  C_3 
REMARK    3  A    between atoms: C_6  and  S_15 
REMARK       I    between atoms: C_12  and  N_10 
REMARK    4  A    between atoms: C_14  and  C_12 
REMARK    5  A    between atoms: C_17  and  C_14 
REMARK    6  A    between atoms: S_15  and  C_17 
ROOT
ATOM      1  N   UNL d   1     -40.306  14.863  18.942  0.00  0.00    -0.181 NA
ATOM      2  C   UNL d   1     -39.956  15.352  19.507  0.00  0.00     0.282 C 
ATOM      3  O   UNL d   1     -39.390  15.915  19.283  0.00  0.00    -0.265 OA
ENDROOT
BRANCH   1   4
ATOM      4  C   UNL d   1     -40.097  14.927  18.136  0.00  0.00     0.216 A 
ATOM      5  N   UNL d   1     -39.476  14.531  17.765  0.00  0.00    -0.200 NA
ATOM      6  C   UNL d   1     -39.474  14.758  16.974  0.00  0.00     0.172 A 
ATOM      7  N   UNL d   1     -40.089  15.287  16.868  0.00  0.00    -0.187 NA
ATOM      8  S   UNL d   1     -40.471  15.390  17.582  0.00  0.00     0.054 SA
BRANCH   6   9
ATOM      9  C   UNL d   1     -38.961  14.517  16.370  0.00  0.00     0.036 A 
ATOM     10  C   UNL d   1     -38.653  15.071  15.845  0.00  0.00     0.003 A 
ATOM     11  C   UNL d   1     -38.142  14.831  15.244  0.00  0.00     0.000 A 
ATOM     12  C   UNL d   1     -37.940  14.037  15.168  0.00  0.00     0.000 A 
ATOM     13  C   UNL d   1     -38.248  13.479  15.694  0.00  0.00     0.000 A 
ATOM     14  C   UNL d   1     -38.759  13.720  16.295  0.00  0.00     0.003 A 
ENDBRANCH   6   9
ENDBRANCH   1   4
BRANCH   2  15
ATOM     15  C   UNL d   1     -40.168  15.283  20.307  0.00  0.00     0.070 C 
BRANCH  15  16
ATOM     16  C   UNL d   1     -39.586  15.273  20.891  0.00  0.00     0.042 C 
BRANCH  16  17
ATOM     17  S   UNL d   1     -39.795  15.421  21.675  0.00  0.00    -0.059 SA
BRANCH  17  18
ATOM     18  C   UNL d   1     -39.282  15.203  22.284  0.00  0.00     0.164 A 
ATOM     19  S   UNL d   1     -38.990  14.473  22.538  0.00  0.00    -0.039 SA
ATOM     20  C   UNL d   1     -38.495  14.609  23.178  0.00  0.00     0.134 A 
ATOM     21  C   UNL d   1     -38.080  14.025  23.608  0.00  0.00     0.030 C 
ATOM     22  N   UNL d   1     -38.476  15.418  23.323  0.00  0.00    -0.140 NA
ATOM     23  N   UNL d   1     -38.960  15.783  22.774  0.00  0.00    -0.134 NA
ENDBRANCH  17  18
ENDBRANCH  16  17
ENDBRANCH  15  16
ENDBRANCH   2  15
TORSDOF 6
ENDMDL
MODEL 7
REMARK VINA RESULT:      -5.1      7.668      9.171
REMARK  6 active torsions:
REMARK  status: ('A' for Active; 'I' for Inactive)
REMARK    1  A    between atoms: N_10  and  C_2 
REMARK    2  A    between atoms: C_13  and  C_3 
REMARK    3  A    between atoms: C_6  and  S_15 
REMARK       I    between atoms: C_12  and  N_10 
REMARK    4  A    between atoms: C_14  and  C_12 
REMARK    5  A    between atoms: C_17  and  C_14 
REMARK    6  A    between atoms: S_15  and  C_17 
ROOT
ATOM      1  N   UNL d   1     -40.344  14.606  19.388  0.00  0.00    -0.181 NA
ATOM      2  C   UNL d   1     -40.088  15.279  18.986  0.00  0.00     0.282 C 
ATOM      3  O   UNL d   1     -39.737  15.907  19.398  0.00  0.00    -0.265 OA
ENDROOT
BRANCH   1   4
ATOM      4  C   UNL d   1     -40.254  14.545  20.217  0.00  0.00     0.216 A 
ATOM      5  N   UNL d   1     -39.556  14.354  20.613  0.00  0.00    -0.200 NA
ATOM      6  C   UNL d   1     -39.722  14.357  21.420  0.00  0.00     0.172 A 
ATOM      7  N   UNL d   1     -40.512  14.549  21.508  0.00  0.00    -0.187 NA
ATOM      8  S   UNL d   1     -40.838  14.664  20.769  0.00  0.00     0.054 SA
BRANCH   6   9
ATOM      9  C   UNL d   1     -39.209  14.201  22.051  0.00  0.00     0.036 A 
ATOM     10  C   UNL d   1     -39.005  13.425  22.233  0.00  0.00     0.003 A 
ATOM     11  C   UNL d   1     -38.494  13.269  22.862  0.00  0.00     0.000 A 
ATOM     12  C   UNL d   1     -38.189  13.889  23.308  0.00  0.00     0.000 A 
ATOM     13  C   UNL d   1     -38.393  14.669  23.127  0.00  0.00     0.000 A 
ATOM     14  C   UNL d   1     -38.904  14.825  22.498  0.00  0.00     0.003 A 
ENDBRANCH   6   9
ENDBRANCH   1   4
BRANCH   2  15
ATOM     15  C   UNL d   1     -40.181  15.333  18.162  0.00  0.00     0.070 C 
BRANCH  15  16
ATOM     16  C   UNL d   1     -39.532  15.225  17.664  0.00  0.00     0.042 C 
BRANCH  16  17
ATOM     17  S   UNL d   1     -39.633  15.284  16.848  0.00  0.00    -0.059 SA
BRANCH  17  18
ATOM     18  C   UNL d   1     -39.057  14.978  16.341  0.00  0.00     0.164 A 
ATOM     19  S   UNL d   1     -38.938  14.228  16.014  0.00  0.00    -0.039 SA
ATOM     20  C   UNL d   1     -38.264  14.262  15.547  0.00  0.00     0.134 A 
ATOM     21  C   UNL d   1     -37.940  13.628  15.111  0.00  0.00     0.030 C 
ATOM     22  N   UNL d   1     -37.964  15.027  15.582  0.00  0.00    -0.140 NA
ATOM     23  N   UNL d   1     -38.451  15.466  16.070  0.00  0.00    -0.134 NA
ENDBRANCH  17  18
ENDBRANCH  16  17
ENDBRANCH  15  16
ENDBRANCH   2  15
TORSDOF 6
ENDMDL
MODEL 8
REMARK VINA RESULT:      -4.7      2.377      7.240
REMARK  6 active torsions:
REMARK  status: ('A' for Active; 'I' for Inactive)
REMARK    1  A    between atoms: N_10  and  C_2 
REMARK    2  A    between atoms: C_13  and  C_3 
REMARK    3  A    between atoms: C_6  and  S_15 
REMARK       I    between atoms: C_12  and  N_10 
REMARK    4  A    between atoms: C_14  and  C_12 
REMARK    5  A    between atoms: C_17  and  C_14 
REMARK    6  A    between atoms: S_15  and  C_17 
ROOT
ATOM      1  N   UNL d   1     -42.404  12.992  20.904  0.00  0.00    -0.181 NA
ATOM      2  C   UNL d   1     -43.057  13.305  21.299  0.00  0.00     0.282 C 
ATOM      3  O   UNL d   1     -43.080  14.108  21.500  0.00  0.00    -0.265 OA
ENDROOT
BRANCH   1   4
ATOM      4  C   UNL d   1     -41.756  13.478  20.701  0.00  0.00     0.216 A 
ATOM      5  N   UNL d   1     -41.599  13.786  19.952  0.00  0.00    -0.200 NA
ATOM      6  C   UNL d   1     -40.908  14.230  20.006  0.00  0.00     0.172 A 
ATOM      7  N   UNL d   1     -40.651  14.191  20.782  0.00  0.00    -0.187 NA
ATOM      8  S   UNL d   1     -41.171  13.729  21.207  0.00  0.00     0.054 SA
BRANCH   6   9
ATOM      9  C   UNL d   1     -40.519  14.652  19.409  0.00  0.00     0.036 A 
ATOM     10  C   UNL d   1     -40.221  14.256  18.753  0.00  0.00     0.003 A 
ATOM     11  C   UNL d   1     -39.832  14.675  18.158  0.00  0.00     0.000 A 
ATOM     12  C   UNL d   1     -39.743  15.491  18.220  0.00  0.00     0.000 A 
ATOM     13  C   UNL d   1     -40.042  15.890  18.879  0.00  0.00     0.000 A 
ATOM     14  C   UNL d   1     -40.430  15.470  19.473  0.00  0.00     0.003 A 
ENDBRANCH   6   9
ENDBRANCH   1   4
BRANCH   2  15
ATOM     15  C   UNL d   1     -43.698  12.815  21.498  0.00  0.00     0.070 C 
BRANCH  15  16
ATOM     16  C   UNL d   1     -44.369  13.136  21.854  0.00  0.00     0.042 C 
BRANCH  16  17
ATOM     17  S   UNL d   1     -45.000  12.642  22.049  0.00  0.00    -0.059 SA
BRANCH  17  18
ATOM     18  C   UNL d   1     -45.621  12.934  22.508  0.00  0.00     0.164 A 
ATOM     19  S   UNL d   1     -46.258  13.434  22.338  0.00  0.00    -0.039 SA
ATOM     20  C   UNL d   1     -46.696  13.524  23.026  0.00  0.00     0.134 A 
ATOM     21  C   UNL d   1     -47.388  13.985  23.107  0.00  0.00     0.030 C 
ATOM     22  N   UNL d   1     -46.338  13.084  23.621  0.00  0.00    -0.140 NA
ATOM     23  N   UNL d   1     -45.678  12.721  23.302  0.00  0.00    -0.134 NA
ENDBRANCH  17  18
ENDBRANCH  16  17
ENDBRANCH  15  16
ENDBRANCH   2  15
TORSDOF 6
ENDMDL
MODEL 9
REMARK VINA RESULT:      -4.3      1.579      6.520
REMARK  6 active torsions:
REMARK  status: ('A' for Active; 'I' for Inactive)
REMARK    1  A    between atoms: N_10  and  C_2 
REMARK    2  A    between atoms: C_13  and  C_3 
REMARK    3  A    between atoms: C_6  and  S_15 
REMARK       I    between atoms: C_12  and  N_10 
REMARK    4  A    between atoms: C_14  and  C_12 
REMARK    5  A    between atoms: C_17  and  C_14 
REMARK    6  A    between atoms: S_15  and  C_17 
ROOT
ATOM      1  N   UNL d   1     -43.937  12.632  21.946  0.00  0.00    -0.181 NA
ATOM      2  C   UNL d   1     -44.595  13.114  22.070  0.00  0.00     0.282 C 
ATOM      3  O   UNL d   1     -44.620  13.880  21.754  0.00  0.00    -0.265 OA
ENDROOT
BRANCH   1   4
ATOM      4  C   UNL d   1     -43.286  12.907  21.500  0.00  0.00     0.216 A 
ATOM      5  N   UNL d   1     -42.686  13.401  21.777  0.00  0.00    -0.200 NA
ATOM      6  C   UNL d   1     -42.163  13.528  21.153  0.00  0.00     0.172 A 
ATOM      7  N   UNL d   1     -42.446  13.115  20.506  0.00  0.00    -0.187 NA
ATOM      8  S   UNL d   1     -43.135  12.734  20.721  0.00  0.00     0.054 SA
BRANCH   6   9
ATOM      9  C   UNL d   1     -41.471  13.983  21.146  0.00  0.00     0.036 A 
ATOM     10  C   UNL d   1     -41.488  14.754  20.860  0.00  0.00     0.003 A 
ATOM     11  C   UNL d   1     -40.799  15.208  20.853  0.00  0.00     0.000 A 
ATOM     12  C   UNL d   1     -40.094  14.889  21.132  0.00  0.00     0.000 A 
ATOM     13  C   UNL d   1     -40.075  14.115  21.420  0.00  0.00     0.000 A 
ATOM     14  C   UNL d   1     -40.764  13.662  21.427  0.00  0.00     0.003 A 
ENDBRANCH   6   9
ENDBRANCH   1   4
BRANCH   2  15
ATOM     15  C   UNL d   1     -45.239  12.834  22.514  0.00  0.00     0.070 C 
BRANCH  15  16
ATOM     16  C   UNL d   1     -45.978  13.194  22.445  0.00  0.00     0.042 C 
BRANCH  16  17
ATOM     17  S   UNL d   1     -46.603  12.929  22.912  0.00  0.00    -0.059 SA
BRANCH  17  18
ATOM     18  C   UNL d   1     -47.369  13.201  22.764  0.00  0.00     0.164 A 
ATOM     19  S   UNL d   1     -47.989  12.907  22.303  0.00  0.00    -0.039 SA
ATOM     20  C   UNL d   1     -48.622  13.425  22.374  0.00  0.00     0.134 A 
ATOM     21  C   UNL d   1     -49.365  13.343  22.001  0.00  0.00     0.030 C 
ATOM     22  N   UNL d   1     -48.399  14.037  22.876  0.00  0.00    -0.140 NA
ATOM     23  N   UNL d   1     -47.629  13.900  23.115  0.00  0.00    -0.134 NA
ENDBRANCH  17  18
ENDBRANCH  16  17
ENDBRANCH  15  16
ENDBRANCH   2  15
TORSDOF 6
ENDMDL
