MODEL 1
REMARK VINA RESULT:      95.6      0.000      0.000
REMARK  5 active torsions:
REMARK  status: ('A' for Active; 'I' for Inactive)
REMARK    1  A    between atoms: C_10  and  N_2 
REMARK    2  A    between atoms: C_11  and  N_4 
REMARK    3  A    between atoms: C_12  and  C_11 
REMARK       I    between atoms: N_16  and  C_12 
REMARK       I    between atoms: C_15  and  N_17 
REMARK    4  A    between atoms: C_22  and  N_16 
REMARK    5  A    between atoms: N_17  and  C_23 
ROOT
ATOM      1  C   UNL d   1     -54.830-101.966 -42.180  0.00  0.00     0.172 A 
ATOM      2  N   UNL d   1     -54.800-101.285 -40.914  0.00  0.00    -0.226 N 
ATOM      3  C   UNL d   1     -54.769-100.550 -41.330  0.00  0.00     0.342 A 
ATOM      4  N   UNL d   1     -54.769-100.541 -42.147  0.00  0.00    -0.252 N 
ATOM      5  C   UNL d   1     -54.799-101.241 -42.572  0.00  0.00     0.098 A 
ATOM      6  C   UNL d   1     -54.831-101.984 -41.348  0.00  0.00     0.292 A 
ATOM      7  O   UNL d   1     -54.857-102.570 -42.733  0.00  0.00    -0.301 OA
ATOM      8  C   UNL d   1     -54.807-101.423 -43.371  0.00  0.00     0.041 A 
ATOM      9  C   UNL d   1     -54.843-102.235 -43.454  0.00  0.00     0.102 A 
ATOM     10  O   UNL d   1     -54.737 -99.826 -40.904  0.00  0.00    -0.245 OA
ATOM     11  O   UNL d   1     -54.863-102.718 -40.949  0.00  0.00    -0.264 OA
ATOM     12  C   UNL d   1     -54.786-100.933 -44.044  0.00  0.00     0.004 A 
ATOM     13  C   UNL d   1     -54.858-102.575 -44.211  0.00  0.00     0.025 A 
ATOM     14  C   UNL d   1     -54.801-101.273 -44.801  0.00  0.00     0.000 A 
ATOM     15  C   UNL d   1     -54.837-102.087 -44.867  0.00  0.00     0.002 A 
ENDROOT
BRANCH   4  16
ATOM     16  C   UNL d   1     -54.737 -99.807 -42.562  0.00  0.00     0.147 C 
BRANCH  16  17
ATOM     17  C   UNL d   1     -55.430 -99.531 -42.966  0.00  0.00     0.297 C 
ATOM     18  N   UNL d   1     -55.735 -99.963 -43.581  0.00  0.00    -0.207 NA
ATOM     19  O   UNL d   1     -55.781 -98.825 -42.724  0.00  0.00    -0.264 OA
BRANCH  18  20
ATOM     20  C   UNL d   1     -56.398 -99.697 -43.967  0.00  0.00     0.085 A 
ATOM     21  C   UNL d   1     -56.408 -99.616 -44.788  0.00  0.00     0.021 A 
ATOM     22  C   UNL d   1     -57.078 -99.348 -45.174  0.00  0.00     0.021 A 
ATOM     23  C   UNL d   1     -57.756 -99.155 -44.738  0.00  0.00     0.085 A 
ATOM     24  C   UNL d   1     -57.756 -99.233 -43.909  0.00  0.00     0.021 A 
ATOM     25  C   UNL d   1     -57.076 -99.505 -43.523  0.00  0.00     0.021 A 
BRANCH  23  26
ATOM     26  N   UNL d   1     -58.436 -98.883 -45.124  0.00  0.00    -0.208 NA
ATOM     27  C   UNL d   1     -59.186 -99.137 -44.866  0.00  0.00     0.279 C 
ATOM     28  O   UNL d   1     -59.841 -98.872 -45.242  0.00  0.00    -0.265 OA
ATOM     29  C   UNL d   1     -59.234 -99.668 -44.214  0.00  0.00     0.068 C 
ENDBRANCH  23  26
ENDBRANCH  18  20
ENDBRANCH  16  17
ENDBRANCH   4  16
BRANCH   2  30
ATOM     30  C   UNL d   1     -54.801-101.311 -40.082  0.00  0.00     0.071 A 
ATOM     31  C   UNL d   1     -54.726-102.024 -39.690  0.00  0.00     0.020 A 
ATOM     32  C   UNL d   1     -54.726-102.058 -38.875  0.00  0.00     0.031 A 
ATOM     33  C   UNL d   1     -54.803-101.361 -38.442  0.00  0.00     0.140 A 
ATOM     34  C   UNL d   1     -54.878-100.648 -38.817  0.00  0.00     0.031 A 
ATOM     35  F   UNL d   1     -54.803-101.395 -37.610  0.00  0.00    -0.204 F 
ATOM     36  C   UNL d   1     -54.878-100.614 -39.650  0.00  0.00     0.020 A 
ENDBRANCH   2  30
TORSDOF 5
ENDMDL
