MODEL 1
REMARK VINA RESULT:      42.1      0.000      0.000
REMARK  6 active torsions:
REMARK  status: ('A' for Active; 'I' for Inactive)
REMARK       I    between atoms: C_2  and  N_1 
REMARK    1  A    between atoms: C_3  and  C_2 
REMARK    2  A    between atoms: C_12  and  C_4 
REMARK       I    between atoms: C_5  and  N_8 
REMARK    3  A    between atoms: C_6  and  C_5 
REMARK       I    between atoms: N_9  and  C_6 
REMARK    4  A    between atoms: N_8  and  C_12 
REMARK    5  A    between atoms: C_19  and  N_9 
REMARK    6  A    between atoms: C_21  and  C_19 
ROOT
ATOM      1  C   UNL d   1      44.424 -17.431  39.774  0.00  0.00     0.337 C 
ATOM      2  N   UNL d   1      44.298 -16.999  39.089  0.00  0.00    -0.199 NA
ATOM      3  O   UNL d   1      43.840 -17.460  40.354  0.00  0.00    -0.260 OA
ENDROOT
BRANCH   2   4
ATOM      4  C   UNL d   1      44.882 -16.970  38.510  0.00  0.00     0.146 C 
BRANCH   4   5
ATOM      5  C   UNL d   1      44.701 -16.659  37.760  0.00  0.00     0.190 A 
ATOM      6  N   UNL d   1      45.087 -16.021  37.411  0.00  0.00    -0.250 N 
ATOM      7  C   UNL d   1      45.710 -15.538  37.668  0.00  0.00     0.272 C 
ATOM      8  C   UNL d   1      44.731 -15.902  36.673  0.00  0.00     0.112 A 
ATOM      9  O   UNL d   1      46.054 -15.671  38.407  0.00  0.00    -0.266 OA
ATOM     10  C   UNL d   1      44.138 -16.461  36.577  0.00  0.00     0.144 A 
ATOM     11  O   UNL d   1      44.126 -16.930  37.261  0.00  0.00    -0.285 OA
BRANCH   7  12
ATOM     12  C   UNL d   1      45.987 -14.929  37.191  0.00  0.00     0.086 A 
ATOM     13  S   UNL d   1      46.646 -14.883  36.688  0.00  0.00    -0.082 SA
ATOM     14  C   UNL d   1      46.647 -14.120  36.345  0.00  0.00     0.036 A 
ATOM     15  C   UNL d   1      45.993 -13.713  36.641  0.00  0.00     0.008 A 
ATOM     16  C   UNL d   1      45.585 -14.204  37.160  0.00  0.00     0.012 A 
ENDBRANCH   7  12
ENDBRANCH   4   5
ENDBRANCH   2   4
BRANCH   1  17
ATOM     17  C   UNL d   1      45.133 -17.840  39.889  0.00  0.00     0.337 C 
ATOM     18  N   UNL d   1      45.375 -18.036  40.639  0.00  0.00    -0.202 NA
ATOM     19  O   UNL d   1      45.593 -18.046  39.239  0.00  0.00    -0.260 OA
BRANCH  18  20
ATOM     20  C   UNL d   1      46.085 -18.445  40.755  0.00  0.00     0.102 C 
BRANCH  20  21
ATOM     21  C   UNL d   1      46.225 -18.848  41.454  0.00  0.00     0.019 A 
ATOM     22  C   UNL d   1      46.433 -19.638  41.452  0.00  0.00     0.002 A 
ATOM     23  C   UNL d   1      46.574 -20.049  42.140  0.00  0.00     0.011 A 
ATOM     24  C   UNL d   1      46.504 -19.651  42.871  0.00  0.00     0.058 A 
ATOM     25  C   UNL d   1      46.296 -18.856  42.889  0.00  0.00     0.011 A 
ATOM     26 CL   UNL d   1      46.647 -20.063  43.580  0.00  0.00    -0.082 Cl
ATOM     27  C   UNL d   1      46.155 -18.450  42.184  0.00  0.00     0.002 A 
ENDBRANCH  20  21
ENDBRANCH  18  20
ENDBRANCH   1  17
TORSDOF 6
ENDMDL
