MODEL 1
REMARK VINA RESULT:      67.5      0.000      0.000
REMARK  8 active torsions:
REMARK  status: ('A' for Active; 'I' for Inactive)
REMARK    1  A    between atoms: N_4  and  S_1 
REMARK    2  A    between atoms: C_10  and  S_1 
REMARK    3  A    between atoms: C_7  and  N_2 
REMARK    4  A    between atoms: N_3  and  C_6 
REMARK    5  A    between atoms: C_5  and  N_4 
REMARK    6  A    between atoms: C_6  and  C_5 
REMARK    7  A    between atoms: C_11  and  C_6 
REMARK    8  A    between atoms: O_19  and  C_17 
ROOT
ATOM      1  C   UNL d   1      45.202 -16.330  37.685  0.00  0.00     0.086 C 
ENDROOT
BRANCH   1   2
ATOM      2  N   UNL d   1      45.361 -16.723  38.396  0.00  0.00    -0.300 N 
ATOM      3  C   UNL d   1      46.139 -16.777  38.674  0.00  0.00     0.100 A 
ATOM      4  C   UNL d   1      46.298 -17.167  39.380  0.00  0.00     0.100 A 
ATOM      5  N   UNL d   1      45.684 -17.504  39.812  0.00  0.00    -0.300 N 
ATOM      6  C   UNL d   1      44.912 -17.452  39.539  0.00  0.00     0.100 A 
ATOM      7  C   UNL d   1      44.747 -17.060  38.828  0.00  0.00     0.100 A 
BRANCH   5   8
ATOM      8  C   UNL d   1      45.844 -17.894  40.518  0.00  0.00     0.086 A 
ATOM      9  C   UNL d   1      46.285 -18.587  40.513  0.00  0.00     0.110 A 
ATOM     10  C   UNL d   1      46.446 -18.979  41.220  0.00  0.00     0.026 A 
ATOM     11  C   UNL d   1      46.161 -18.672  41.939  0.00  0.00     0.002 A 
ATOM     12  C   UNL d   1      45.719 -17.976  41.942  0.00  0.00     0.002 A 
ATOM     13  C   UNL d   1      45.560 -17.586  41.237  0.00  0.00     0.019 A 
BRANCH   9  14
ATOM     14  O   UNL d   1      46.566 -18.891  39.802  0.00  0.00    -0.327 OA
ATOM     15  C   UNL d   1      46.646 -19.703  39.704  0.00  0.00     0.181 C 
ENDBRANCH   9  14
ENDBRANCH   5   8
ENDBRANCH   1   2
BRANCH   1  16
ATOM     16  C   UNL d   1      44.556 -16.562  37.215  0.00  0.00     0.130 C 
BRANCH  16  17
ATOM     17  N   UNL d   1      43.858 -16.121  37.231  0.00  0.00    -0.155 NA
BRANCH  17  18
ATOM     18  S   UNL d   1      43.208 -16.366  36.780  0.00  0.00     0.285 S 
ATOM     19  O   UNL d   1      42.559 -16.608  36.331  0.00  0.00    -0.198 OA
ATOM     20  O   UNL d   1      43.630 -17.043  36.555  0.00  0.00    -0.198 OA
BRANCH  18  21
ATOM     21  C   UNL d   1      42.790 -15.684  37.009  0.00  0.00     0.105 A 
ATOM     22  C   UNL d   1      42.253 -15.341  36.488  0.00  0.00     0.013 A 
ATOM     23  C   UNL d   1      41.838 -14.669  36.709  0.00  0.00     0.001 A 
ATOM     24  C   UNL d   1      41.957 -14.326  37.468  0.00  0.00     0.000 A 
ATOM     25  C   UNL d   1      42.501 -14.678  37.989  0.00  0.00     0.001 A 
ATOM     26  C   UNL d   1      42.914 -15.356  37.754  0.00  0.00     0.013 A 
ENDBRANCH  18  21
ENDBRANCH  17  18
ENDBRANCH  16  17
ENDBRANCH   1  16
BRANCH   1  27
ATOM     27  C   UNL d   1      45.682 -15.708  37.440  0.00  0.00     0.037 A 
ATOM     28  C   UNL d   1      45.994 -15.185  37.992  0.00  0.00     0.100 A 
ATOM     29  N   UNL d   1      46.478 -14.557  37.745  0.00  0.00    -0.242 NA
ATOM     30  C   UNL d   1      46.647 -14.458  36.947  0.00  0.00     0.099 A 
ATOM     31  C   UNL d   1      46.336 -14.980  36.395  0.00  0.00     0.021 A 
ATOM     32  C   UNL d   1      45.852 -15.608  36.642  0.00  0.00     0.005 A 
ENDBRANCH   1  27
TORSDOF 8
ENDMDL
