MODEL 1
REMARK VINA RESULT:      -3.1      0.000      0.000
REMARK  5 active torsions:
REMARK  status: ('A' for Active; 'I' for Inactive)
REMARK    1  A    between atoms: C_7  and  C_1 
REMARK    2  A    between atoms: C_12  and  N_2 
REMARK    3  A    between atoms: C_8  and  C_7 
REMARK    4  A    between atoms: O_25  and  C_20 
REMARK    5  A    between atoms: C_26  and  O_25 
ROOT
ATOM      1  N   UNL d   1      33.090  19.605 -22.916  0.00  0.00    -0.242 N 
ATOM      2  C   UNL d   1      33.125  18.872 -22.516  0.00  0.00     0.267 A 
ATOM      3  C   UNL d   1      33.019  19.447 -23.725  0.00  0.00     0.267 A 
ATOM      4  C   UNL d   1      33.010  18.630 -23.825  0.00  0.00     0.062 A 
ATOM      5  C   UNL d   1      33.075  18.272 -23.081  0.00  0.00     0.066 A 
ATOM      6  O   UNL d   1      33.197  18.774 -21.699  0.00  0.00    -0.267 OA
ATOM      7  O   UNL d   1      32.966  20.012 -24.323  0.00  0.00    -0.267 OA
ENDROOT
BRANCH   4   8
ATOM      8  C   UNL d   1      32.947  18.237 -24.537  0.00  0.00     0.018 C 
BRANCH   8   9
ATOM      9  C   UNL d   1      32.374  17.639 -24.550  0.00  0.00     0.045 A 
ATOM     10  N   UNL d   1      32.465  16.855 -24.322  0.00  0.00    -0.308 N 
ATOM     11  C   UNL d   1      31.748  16.467 -24.431  0.00  0.00     0.060 A 
ATOM     12  C   UNL d   1      33.156  16.523 -24.035  0.00  0.00     0.099 C 
ATOM     13  C   UNL d   1      31.518  15.692 -24.298  0.00  0.00     0.017 A 
ATOM     14  C   UNL d   1      31.207  17.014 -24.729  0.00  0.00    -0.002 A 
ATOM     15  C   UNL d   1      30.749  15.454 -24.461  0.00  0.00     0.002 A 
ATOM     16  C   UNL d   1      30.207  16.010 -24.762  0.00  0.00    -0.000 A 
ATOM     17  C   UNL d   1      30.436  16.786 -24.895  0.00  0.00    -0.003 A 
ATOM     18  C   UNL d   1      31.594  17.739 -24.803  0.00  0.00     0.054 A 
ATOM     19  C   UNL d   1      30.792  17.701 -25.027  0.00  0.00     0.010 C 
ATOM     20  C   UNL d   1      31.210  18.421 -25.090  0.00  0.00     0.010 C 
ENDBRANCH   8   9
ENDBRANCH   4   8
BRANCH   1  21
ATOM     21  C   UNL d   1      33.121  20.344 -22.565  0.00  0.00     0.070 A 
ATOM     22  C   UNL d   1      33.210  21.021 -23.025  0.00  0.00     0.020 A 
ATOM     23  C   UNL d   1      33.241  21.770 -22.666  0.00  0.00     0.026 A 
ATOM     24  C   UNL d   1      33.182  21.839 -21.846  0.00  0.00     0.100 A 
ATOM     25  C   UNL d   1      33.092  21.158 -21.380  0.00  0.00     0.026 A 
ATOM     26  C   UNL d   1      33.061  20.413 -21.736  0.00  0.00     0.020 A 
BRANCH  24  27
ATOM     27  O   UNL d   1      33.213  22.579 -21.485  0.00  0.00    -0.305 OA
BRANCH  27  28
ATOM     28  C   UNL d   1      32.567  22.865 -21.067  0.00  0.00     0.123 C 
ATOM     29  C   UNL d   1      32.558  23.641 -20.793  0.00  0.00     0.029 C 
ENDBRANCH  27  28
ENDBRANCH  24  27
ENDBRANCH   1  21
TORSDOF 5
ENDMDL
MODEL 2
REMARK VINA RESULT:      -0.7      1.211      5.424
REMARK  5 active torsions:
REMARK  status: ('A' for Active; 'I' for Inactive)
REMARK    1  A    between atoms: C_7  and  C_1 
REMARK    2  A    between atoms: C_12  and  N_2 
REMARK    3  A    between atoms: C_8  and  C_7 
REMARK    4  A    between atoms: O_25  and  C_20 
REMARK    5  A    between atoms: C_26  and  O_25 
ROOT
ATOM      1  N   UNL d   1      32.450  18.876 -23.480  0.00  0.00    -0.242 N 
ATOM      2  C   UNL d   1      32.756  19.484 -23.964  0.00  0.00     0.267 A 
ATOM      3  C   UNL d   1      32.599  19.082 -22.693  0.00  0.00     0.267 A 
ATOM      4  C   UNL d   1      32.991  19.806 -22.689  0.00  0.00     0.062 A 
ATOM      5  C   UNL d   1      33.090  20.057 -23.473  0.00  0.00     0.066 A 
ATOM      6  O   UNL d   1      32.727  19.501 -24.790  0.00  0.00    -0.267 OA
ATOM      7  O   UNL d   1      32.390  18.638 -22.031  0.00  0.00    -0.267 OA
ENDROOT
BRANCH   4   8
ATOM      8  C   UNL d   1      33.241  20.210 -22.027  0.00  0.00     0.018 C 
BRANCH   8   9
ATOM      9  C   UNL d   1      32.916  20.967 -21.943  0.00  0.00     0.045 A 
ATOM     10  N   UNL d   1      32.913  21.574 -22.498  0.00  0.00    -0.308 N 
ATOM     11  C   UNL d   1      32.529  22.224 -22.173  0.00  0.00     0.060 A 
ATOM     12  C   UNL d   1      33.241  21.530 -23.247  0.00  0.00     0.099 C 
ATOM     13  C   UNL d   1      32.366  22.970 -22.469  0.00  0.00     0.017 A 
ATOM     14  C   UNL d   1      32.290  22.020 -21.410  0.00  0.00    -0.002 A 
ATOM     15  C   UNL d   1      31.964  23.519 -22.009  0.00  0.00     0.002 A 
ATOM     16  C   UNL d   1      31.725  23.309 -21.240  0.00  0.00    -0.000 A 
ATOM     17  C   UNL d   1      31.888  22.562 -20.942  0.00  0.00    -0.003 A 
ATOM     18  C   UNL d   1      32.530  21.243 -21.268  0.00  0.00     0.054 A 
ATOM     19  C   UNL d   1      32.123  21.643 -20.658  0.00  0.00     0.010 C 
ATOM     20  C   UNL d   1      32.378  20.856 -20.545  0.00  0.00     0.010 C 
ENDBRANCH   8   9
ENDBRANCH   4   8
BRANCH   1  21
ATOM     21  C   UNL d   1      32.072  18.199 -23.743  0.00  0.00     0.070 A 
ATOM     22  C   UNL d   1      31.295  18.234 -24.013  0.00  0.00     0.020 A 
ATOM     23  C   UNL d   1      30.912  17.545 -24.280  0.00  0.00     0.026 A 
ATOM     24  C   UNL d   1      31.311  16.823 -24.274  0.00  0.00     0.100 A 
ATOM     25  C   UNL d   1      32.094  16.785 -24.002  0.00  0.00     0.026 A 
ATOM     26  C   UNL d   1      32.474  17.468 -23.738  0.00  0.00     0.020 A 
BRANCH  24  27
ATOM     27  O   UNL d   1      30.937  16.137 -24.537  0.00  0.00    -0.305 OA
BRANCH  27  28
ATOM     28  C   UNL d   1      30.132  16.028 -24.415  0.00  0.00     0.123 C 
ATOM     29  C   UNL d   1      29.668  15.669 -24.993  0.00  0.00     0.029 C 
ENDBRANCH  27  28
ENDBRANCH  24  27
ENDBRANCH   1  21
TORSDOF 5
ENDMDL
