MODEL 1
REMARK VINA RESULT:      -7.0      0.000      0.000
REMARK  3 active torsions:
REMARK  status: ('A' for Active; 'I' for Inactive)
REMARK    1  A    between atoms: C_8  and  C_1 
REMARK    2  A    between atoms: N_5  and  C_2 
REMARK       I    between atoms: C_7  and  N_5 
REMARK    3  A    between atoms: C_9  and  C_7 
ROOT
ATOM      1  C   UNL d   1     -41.672-122.145 -53.362  0.00  0.00     0.229 A 
ATOM      2  C   UNL d   1     -41.579-122.411 -52.059  0.00  0.00     0.297 A 
ATOM      3  O   UNL d   1     -41.922-122.659 -52.764  0.00  0.00    -0.252 OA
ATOM      4  N   UNL d   1     -41.180-121.589 -53.021  0.00  0.00    -0.117 NA
ATOM      5  N   UNL d   1     -41.123-121.753 -52.216  0.00  0.00    -0.101 NA
ENDROOT
BRANCH   2   6
ATOM      6  N   UNL d   1     -41.686-122.771 -51.326  0.00  0.00    -0.165 NA
ATOM      7  C   UNL d   1     -42.032-122.362 -50.713  0.00  0.00     0.282 C 
ATOM      8  O   UNL d   1     -42.284-121.579 -50.814  0.00  0.00    -0.265 OA
BRANCH   7   9
ATOM      9  C   UNL d   1     -42.138-122.723 -49.980  0.00  0.00     0.058 A 
ATOM     10  C   UNL d   1     -41.483-123.014 -49.574  0.00  0.00     0.005 A 
ATOM     11  C   UNL d   1     -41.580-123.379 -48.837  0.00  0.00     0.000 A 
ATOM     12  C   UNL d   1     -42.337-123.449 -48.511  0.00  0.00     0.000 A 
ATOM     13  C   UNL d   1     -42.990-123.155 -48.924  0.00  0.00     0.000 A 
ATOM     14  C   UNL d   1     -42.452-123.809 -47.780  0.00  0.00     0.000 C 
ATOM     15  C   UNL d   1     -42.893-122.792 -49.659  0.00  0.00     0.005 A 
ENDBRANCH   7   9
ENDBRANCH   2   6
BRANCH   1  16
ATOM     16  C   UNL d   1     -41.886-122.194 -54.160  0.00  0.00     0.143 A 
ATOM     17  O   UNL d   1     -42.496-121.784 -54.523  0.00  0.00    -0.301 OA
ATOM     18  C   UNL d   1     -42.511-122.000 -55.316  0.00  0.00     0.123 A 
ATOM     19  C   UNL d   1     -41.905-122.548 -55.446  0.00  0.00     0.029 A 
ATOM     20  C   UNL d   1     -41.518-122.669 -54.732  0.00  0.00     0.030 A 
ENDBRANCH   1  16
TORSDOF 3
ENDMDL
MODEL 2
REMARK VINA RESULT:      -6.3      1.072      4.878
REMARK  3 active torsions:
REMARK  status: ('A' for Active; 'I' for Inactive)
REMARK    1  A    between atoms: C_8  and  C_1 
REMARK    2  A    between atoms: N_5  and  C_2 
REMARK       I    between atoms: C_7  and  N_5 
REMARK    3  A    between atoms: C_9  and  C_7 
ROOT
ATOM      1  C   UNL d   1     -41.833-123.356 -50.382  0.00  0.00     0.229 A 
ATOM      2  C   UNL d   1     -41.727-123.357 -51.711  0.00  0.00     0.297 A 
ATOM      3  O   UNL d   1     -42.171-123.070 -51.080  0.00  0.00    -0.252 OA
ATOM      4  N   UNL d   1     -41.188-123.814 -50.588  0.00  0.00    -0.117 NA
ATOM      5  N   UNL d   1     -41.123-123.814 -51.409  0.00  0.00    -0.101 NA
ENDROOT
BRANCH   2   6
ATOM      6  N   UNL d   1     -41.877-123.203 -52.506  0.00  0.00    -0.165 NA
ATOM      7  C   UNL d   1     -41.579-122.531 -52.858  0.00  0.00     0.282 C 
ATOM      8  O   UNL d   1     -41.123-121.992 -52.425  0.00  0.00    -0.265 OA
BRANCH   7   9
ATOM      9  C   UNL d   1     -41.729-122.378 -53.653  0.00  0.00     0.058 A 
ATOM     10  C   UNL d   1     -42.256-121.779 -53.857  0.00  0.00     0.005 A 
ATOM     11  C   UNL d   1     -42.413-121.618 -54.655  0.00  0.00     0.000 A 
ATOM     12  C   UNL d   1     -42.037-122.062 -55.244  0.00  0.00     0.000 A 
ATOM     13  C   UNL d   1     -41.509-122.661 -55.032  0.00  0.00     0.000 A 
ATOM     14  C   UNL d   1     -42.181-121.916 -56.041  0.00  0.00     0.000 C 
ATOM     15  C   UNL d   1     -41.354-122.820 -54.236  0.00  0.00     0.005 A 
ENDBRANCH   7   9
ENDBRANCH   2   6
BRANCH   1  16
ATOM     16  C   UNL d   1     -42.106-123.201 -49.616  0.00  0.00     0.143 A 
ATOM     17  O   UNL d   1     -42.724-122.702 -49.414  0.00  0.00    -0.301 OA
ATOM     18  C   UNL d   1     -42.804-122.714 -48.596  0.00  0.00     0.123 A 
ATOM     19  C   UNL d   1     -42.230-123.225 -48.288  0.00  0.00     0.029 A 
ATOM     20  C   UNL d   1     -41.798-123.526 -48.917  0.00  0.00     0.030 A 
ENDBRANCH   1  16
TORSDOF 3
ENDMDL
MODEL 3
REMARK VINA RESULT:      -4.4      1.116      1.318
REMARK  3 active torsions:
REMARK  status: ('A' for Active; 'I' for Inactive)
REMARK    1  A    between atoms: C_8  and  C_1 
REMARK    2  A    between atoms: N_5  and  C_2 
REMARK       I    between atoms: C_7  and  N_5 
REMARK    3  A    between atoms: C_9  and  C_7 
ROOT
ATOM      1  C   UNL d   1     -41.873-122.639 -52.465  0.00  0.00     0.229 A 
ATOM      2  C   UNL d   1     -41.781-122.395 -51.157  0.00  0.00     0.297 A 
ATOM      3  O   UNL d   1     -41.656-122.966 -51.737  0.00  0.00    -0.252 OA
ATOM      4  N   UNL d   1     -42.128-121.874 -52.327  0.00  0.00    -0.117 NA
ATOM      5  N   UNL d   1     -42.072-121.724 -51.520  0.00  0.00    -0.101 NA
ENDROOT
BRANCH   2   6
ATOM      6  N   UNL d   1     -41.636-122.494 -50.352  0.00  0.00    -0.165 NA
ATOM      7  C   UNL d   1     -42.132-122.955 -49.899  0.00  0.00     0.282 C 
ATOM      8  O   UNL d   1     -42.788-123.330 -50.236  0.00  0.00    -0.265 OA
BRANCH   7   9
ATOM      9  C   UNL d   1     -41.985-123.054 -49.094  0.00  0.00     0.058 A 
ATOM     10  C   UNL d   1     -41.300-123.442 -48.853  0.00  0.00     0.005 A 
ATOM     11  C   UNL d   1     -41.144-123.547 -48.045  0.00  0.00     0.000 A 
ATOM     12  C   UNL d   1     -41.680-123.258 -47.485  0.00  0.00     0.000 A 
ATOM     13  C   UNL d   1     -42.366-122.869 -47.734  0.00  0.00     0.000 A 
ATOM     14  C   UNL d   1     -41.542-123.352 -46.679  0.00  0.00     0.000 C 
ATOM     15  C   UNL d   1     -42.520-122.766 -48.539  0.00  0.00     0.005 A 
ENDBRANCH   7   9
ENDBRANCH   2   6
BRANCH   1  16
ATOM     16  C   UNL d   1     -41.834-123.024 -53.196  0.00  0.00     0.143 A 
ATOM     17  O   UNL d   1     -42.404-123.522 -53.512  0.00  0.00    -0.301 OA
ATOM     18  C   UNL d   1     -42.138-123.780 -54.245  0.00  0.00     0.123 A 
ATOM     19  C   UNL d   1     -41.397-123.440 -54.385  0.00  0.00     0.029 A 
ATOM     20  C   UNL d   1     -41.208-122.973 -53.738  0.00  0.00     0.030 A 
ENDBRANCH   1  16
TORSDOF 3
ENDMDL
