MODEL 1
REMARK VINA RESULT:      33.2      0.000      0.000
REMARK  3 active torsions:
REMARK  status: ('A' for Active; 'I' for Inactive)
REMARK    1  A    between atoms: N_2  and  S_1 
REMARK    2  A    between atoms: C_3  and  S_1 
REMARK    3  A    between atoms: C_5  and  N_4 
ROOT
ATOM      1  N   UNL d   1     -54.982-101.891 -38.262  0.00  0.00    -0.226 N 
ATOM      2  N   UNL d   1     -54.880-101.995 -39.896  0.00  0.00    -0.286 N 
ATOM      3  C   UNL d   1     -54.883-102.622 -38.622  0.00  0.00     0.111 A 
ATOM      4  C   UNL d   1     -55.029-101.211 -38.719  0.00  0.00     0.111 A 
ATOM      5  C   UNL d   1     -54.978-101.263 -39.536  0.00  0.00     0.101 A 
ATOM      6  C   UNL d   1     -54.833-102.674 -39.439  0.00  0.00     0.101 A 
ENDROOT
BRANCH   1   7
ATOM      7  S   UNL d   1     -55.034-101.833 -37.429  0.00  0.00     0.277 S 
ATOM      8  O   UNL d   1     -55.328-102.611 -37.391  0.00  0.00    -0.199 OA
ATOM      9  O   UNL d   1     -54.738-101.050 -37.466  0.00  0.00    -0.199 OA
BRANCH   7  10
ATOM     10  C   UNL d   1     -55.086-101.774 -36.596  0.00  0.00     0.133 A 
ATOM     11  S   UNL d   1     -54.719-101.200 -36.125  0.00  0.00    -0.074 SA
ATOM     12  C   UNL d   1     -54.924-101.356 -35.328  0.00  0.00     0.036 A 
ATOM     13  C   UNL d   1     -55.417-102.028 -35.319  0.00  0.00     0.008 A 
ATOM     14  C   UNL d   1     -55.520-102.289 -36.098  0.00  0.00     0.020 A 
ENDBRANCH   7  10
ENDBRANCH   1   7
BRANCH   2  15
ATOM     15  C   UNL d   1     -54.828-102.057 -40.713  0.00  0.00     0.148 A 
ATOM     16  N   UNL d   1     -54.772-101.374 -41.163  0.00  0.00    -0.227 NA
ATOM     17  C   UNL d   1     -54.720-101.427 -41.979  0.00  0.00     0.101 A 
ATOM     18  C   UNL d   1     -54.724-102.165 -42.347  0.00  0.00     0.021 A 
ATOM     19  C   UNL d   1     -54.780-102.849 -41.888  0.00  0.00     0.005 A 
ATOM     20  C   UNL d   1     -54.833-102.796 -41.072  0.00  0.00     0.037 A 
ENDBRANCH   2  15
TORSDOF 3
ENDMDL
