MODEL 1
REMARK VINA RESULT:      19.5      0.000      0.000
REMARK  3 active torsions:
REMARK  status: ('A' for Active; 'I' for Inactive)
REMARK       I    between atoms: N_5  and  C_1 
REMARK       I    between atoms: N_6  and  C_1 
REMARK    1  A    between atoms: C_2  and  N_7 
REMARK    2  A    between atoms: C_9  and  N_5 
REMARK    3  A    between atoms: N_7  and  N_6 
ROOT
ATOM      1  C   UNL d   1      13.553  11.911  -0.925  0.00  0.00     0.070 A 
ATOM      2  C   UNL d   1      13.195  11.803  -1.662  0.00  0.00     0.032 A 
ATOM      3  C   UNL d   1      13.611  11.899  -2.348  0.00  0.00     0.087 A 
ATOM      4  C   UNL d   1      14.353  12.122  -0.916  0.00  0.00     0.068 A 
ATOM      5  C   UNL d   1      14.777  12.220  -1.616  0.00  0.00     0.014 A 
ATOM      6 CL   UNL d   1      13.140  11.815  -0.212  0.00  0.00    -0.081 Cl
ATOM      7  C   UNL d   1      14.406  12.109  -2.332  0.00  0.00     0.020 A 
ATOM      8 CL   UNL d   1      14.742  12.238  -0.158  0.00  0.00    -0.082 Cl
ENDROOT
BRANCH   3   9
ATOM      9  N   UNL d   1      13.211  11.780  -3.103  0.00  0.00    -0.190 NA
ATOM     10  C   UNL d   1      13.269  12.377  -3.700  0.00  0.00     0.387 C 
ATOM     11  N   UNL d   1      13.698  13.054  -3.554  0.00  0.00    -0.086 NA
ATOM     12  O   UNL d   1      12.884  12.262  -4.425  0.00  0.00    -0.241 OA
BRANCH  11  13
ATOM     13  N   UNL d   1      14.073  13.160  -2.839  0.00  0.00    -0.111 NA
BRANCH  13  14
ATOM     14  C   UNL d   1      14.366  13.905  -2.612  0.00  0.00     0.260 C 
ATOM     15  S   UNL d   1      13.999  14.592  -2.877  0.00  0.00    -0.034 SA
ATOM     16  N   UNL d   1      15.029  13.942  -2.116  0.00  0.00    -0.113 N 
ENDBRANCH  13  14
ENDBRANCH  11  13
ENDBRANCH   3   9
TORSDOF 3
ENDMDL
MODEL 2
REMARK VINA RESULT:      20.6      2.477      3.168
REMARK  3 active torsions:
REMARK  status: ('A' for Active; 'I' for Inactive)
REMARK       I    between atoms: N_5  and  C_1 
REMARK       I    between atoms: N_6  and  C_1 
REMARK    1  A    between atoms: C_2  and  N_7 
REMARK    2  A    between atoms: C_9  and  N_5 
REMARK    3  A    between atoms: N_7  and  N_6 
ROOT
ATOM      1  C   UNL d   1      13.717  13.236  -2.852  0.00  0.00     0.070 A 
ATOM      2  C   UNL d   1      14.039  13.858  -2.412  0.00  0.00     0.032 A 
ATOM      3  C   UNL d   1      14.464  13.719  -1.739  0.00  0.00     0.087 A 
ATOM      4  C   UNL d   1      13.847  12.467  -2.577  0.00  0.00     0.068 A 
ATOM      5  C   UNL d   1      14.281  12.325  -1.890  0.00  0.00     0.014 A 
ATOM      6 CL   UNL d   1      13.279  13.361  -3.544  0.00  0.00    -0.081 Cl
ATOM      7  C   UNL d   1      14.589  12.952  -1.470  0.00  0.00     0.020 A 
ATOM      8 CL   UNL d   1      13.521  11.807  -3.021  0.00  0.00    -0.082 Cl
ENDROOT
BRANCH   3   9
ATOM      9  N   UNL d   1      14.787  14.388  -1.300  0.00  0.00    -0.190 NA
ATOM     10  C   UNL d   1      14.948  14.301  -0.474  0.00  0.00     0.387 C 
ATOM     11  N   UNL d   1      14.797  13.591  -0.106  0.00  0.00    -0.086 NA
ATOM     12  O   UNL d   1      15.259  14.944  -0.053  0.00  0.00    -0.241 OA
BRANCH  11  13
ATOM     13  N   UNL d   1      14.492  12.964  -0.526  0.00  0.00    -0.111 NA
BRANCH  13  14
ATOM     14  C   UNL d   1      14.440  12.203  -0.191  0.00  0.00     0.260 C 
ATOM     15  S   UNL d   1      15.124  11.779  -0.019  0.00  0.00    -0.034 SA
ATOM     16  N   UNL d   1      13.691  11.883  -0.034  0.00  0.00    -0.113 N 
ENDBRANCH  13  14
ENDBRANCH  11  13
ENDBRANCH   3   9
TORSDOF 3
ENDMDL
