MODEL 1
REMARK VINA RESULT:      -7.3      0.000      0.000
REMARK  5 active torsions:
REMARK  status: ('A' for Active; 'I' for Inactive)
REMARK    1  A    between atoms: S_2  and  C_1 
REMARK    2  A    between atoms: C_8  and  S_2 
REMARK    3  A    between atoms: C_18  and  N_6 
REMARK    4  A    between atoms: O_22  and  C_16 
REMARK    5  A    between atoms: C_23  and  O_22 
ROOT
ATOM      1  C   UNL d   1     -47.659  13.415  22.923  0.00  0.00     0.144 A 
ATOM      2  C   UNL d   1     -46.967  13.660  22.554  0.00  0.00     0.209 A 
ATOM      3  C   UNL d   1     -46.294  13.197  22.557  0.00  0.00     0.058 A 
ATOM      4  C   UNL d   1     -47.674  12.672  23.310  0.00  0.00     0.095 A 
ATOM      5  N   UNL d   1     -46.997  12.196  23.317  0.00  0.00    -0.303 N 
ATOM      6  C   UNL d   1     -46.309  12.453  22.944  0.00  0.00     0.067 A 
ATOM      7  C   UNL d   1     -45.636  11.978  22.952  0.00  0.00     0.020 A 
ATOM      8  C   UNL d   1     -45.606  13.442  22.189  0.00  0.00     0.029 A 
ATOM      9  O   UNL d   1     -46.953  14.392  22.173  0.00  0.00    -0.286 OA
ATOM     10  C   UNL d   1     -44.925  12.978  22.190  0.00  0.00     0.100 A 
ATOM     11  C   UNL d   1     -44.940  12.235  22.577  0.00  0.00     0.026 A 
ENDROOT
BRANCH   1  12
ATOM     12  S   UNL d   1     -48.340  13.880  22.923  0.00  0.00     0.214 S 
ATOM     13  O   UNL d   1     -48.567  13.574  22.192  0.00  0.00    -0.217 OA
ATOM     14  O   UNL d   1     -48.115  14.192  23.663  0.00  0.00    -0.217 OA
BRANCH  12  15
ATOM     15  C   UNL d   1     -49.020  14.350  22.933  0.00  0.00     0.088 A 
ATOM     16  C   UNL d   1     -49.708  14.101  22.550  0.00  0.00     0.011 A 
ATOM     17  C   UNL d   1     -50.385  14.569  22.559  0.00  0.00     0.001 A 
ATOM     18  C   UNL d   1     -50.383  15.295  22.955  0.00  0.00     0.000 A 
ATOM     19  C   UNL d   1     -49.697  15.547  23.340  0.00  0.00     0.001 A 
ATOM     20  C   UNL d   1     -51.064  15.769  22.967  0.00  0.00     0.000 C 
ATOM     21  C   UNL d   1     -49.019  15.080  23.330  0.00  0.00     0.011 A 
ENDBRANCH  12  15
ENDBRANCH   1  12
BRANCH   5  22
ATOM     22  C   UNL d   1     -47.003  11.463  23.696  0.00  0.00     0.080 C 
ATOM     23  C   UNL d   1     -47.694  11.014  23.698  0.00  0.00     0.021 C 
ENDBRANCH   5  22
BRANCH  10  24
ATOM     24  O   UNL d   1     -44.237  13.223  21.822  0.00  0.00    -0.305 OA
BRANCH  24  25
ATOM     25  C   UNL d   1     -43.605  12.713  21.708  0.00  0.00     0.123 C 
ATOM     26  C   UNL d   1     -42.958  12.937  21.251  0.00  0.00     0.029 C 
ENDBRANCH  24  25
ENDBRANCH  10  24
TORSDOF 5
ENDMDL
MODEL 2
REMARK VINA RESULT:      -4.7      1.297      2.075
REMARK  5 active torsions:
REMARK  status: ('A' for Active; 'I' for Inactive)
REMARK    1  A    between atoms: S_2  and  C_1 
REMARK    2  A    between atoms: C_8  and  S_2 
REMARK    3  A    between atoms: C_18  and  N_6 
REMARK    4  A    between atoms: O_22  and  C_16 
REMARK    5  A    between atoms: C_23  and  O_22 
ROOT
ATOM      1  C   UNL d   1     -47.239  13.318  22.757  0.00  0.00     0.144 A 
ATOM      2  C   UNL d   1     -47.093  12.549  23.007  0.00  0.00     0.209 A 
ATOM      3  C   UNL d   1     -46.334  12.246  23.036  0.00  0.00     0.058 A 
ATOM      4  C   UNL d   1     -46.594  13.801  22.527  0.00  0.00     0.095 A 
ATOM      5  N   UNL d   1     -45.823  13.502  22.553  0.00  0.00    -0.303 N 
ATOM      6  C   UNL d   1     -45.690  12.730  22.806  0.00  0.00     0.067 A 
ATOM      7  C   UNL d   1     -44.921  12.434  22.831  0.00  0.00     0.020 A 
ATOM      8  C   UNL d   1     -46.191  11.480  23.285  0.00  0.00     0.029 A 
ATOM      9  O   UNL d   1     -47.727  12.073  23.234  0.00  0.00    -0.286 OA
ATOM     10  C   UNL d   1     -45.427  11.171  23.316  0.00  0.00     0.100 A 
ATOM     11  C   UNL d   1     -44.783  11.655  23.086  0.00  0.00     0.026 A 
ENDROOT
BRANCH   1  12
ATOM     12  S   UNL d   1     -48.002  13.627  22.727  0.00  0.00     0.214 S 
ATOM     13  O   UNL d   1     -48.147  13.241  22.013  0.00  0.00    -0.217 OA
ATOM     14  O   UNL d   1     -47.861  14.021  23.449  0.00  0.00    -0.217 OA
BRANCH  12  15
ATOM     15  C   UNL d   1     -48.766  13.944  22.707  0.00  0.00     0.088 A 
ATOM     16  C   UNL d   1     -49.214  13.912  22.013  0.00  0.00     0.011 A 
ATOM     17  C   UNL d   1     -49.975  14.227  21.992  0.00  0.00     0.001 A 
ATOM     18  C   UNL d   1     -50.298  14.578  22.667  0.00  0.00     0.000 A 
ATOM     19  C   UNL d   1     -49.853  14.611  23.362  0.00  0.00     0.001 A 
ATOM     20  C   UNL d   1     -51.064  14.896  22.649  0.00  0.00     0.000 C 
ATOM     21  C   UNL d   1     -49.092  14.297  23.384  0.00  0.00     0.011 A 
ENDBRANCH  12  15
ENDBRANCH   1  12
BRANCH   5  22
ATOM     22  C   UNL d   1     -45.183  13.972  22.328  0.00  0.00     0.080 C 
ATOM     23  C   UNL d   1     -45.301  14.774  22.179  0.00  0.00     0.021 C 
ENDBRANCH   5  22
BRANCH  10  24
ATOM     24  O   UNL d   1     -45.284  10.406  23.565  0.00  0.00    -0.305 OA
BRANCH  24  25
ATOM     25  C   UNL d   1     -44.520  10.131  23.692  0.00  0.00     0.123 C 
ATOM     26  C   UNL d   1     -44.357   9.324  23.698  0.00  0.00     0.029 C 
ENDBRANCH  24  25
ENDBRANCH  10  24
TORSDOF 5
ENDMDL
MODEL 3
REMARK VINA RESULT:      -4.3      1.525      4.866
REMARK  5 active torsions:
REMARK  status: ('A' for Active; 'I' for Inactive)
REMARK    1  A    between atoms: S_2  and  C_1 
REMARK    2  A    between atoms: C_8  and  S_2 
REMARK    3  A    between atoms: C_18  and  N_6 
REMARK    4  A    between atoms: O_22  and  C_16 
REMARK    5  A    between atoms: C_23  and  O_22 
ROOT
ATOM      1  C   UNL d   1     -46.764  12.992  22.849  0.00  0.00     0.144 A 
ATOM      2  C   UNL d   1     -47.561  12.811  22.774  0.00  0.00     0.209 A 
ATOM      3  C   UNL d   1     -48.124  13.393  22.658  0.00  0.00     0.058 A 
ATOM      4  C   UNL d   1     -46.522  13.793  22.807  0.00  0.00     0.095 A 
ATOM      5  N   UNL d   1     -47.085  14.389  22.690  0.00  0.00    -0.303 N 
ATOM      6  C   UNL d   1     -47.882  14.194  22.616  0.00  0.00     0.067 A 
ATOM      7  C   UNL d   1     -48.440  14.788  22.500  0.00  0.00     0.020 A 
ATOM      8  C   UNL d   1     -48.917  13.210  22.583  0.00  0.00     0.029 A 
ATOM      9  O   UNL d   1     -47.799  12.022  22.816  0.00  0.00    -0.286 OA
ATOM     10  C   UNL d   1     -49.487  13.794  22.467  0.00  0.00     0.100 A 
ATOM     11  C   UNL d   1     -49.245  14.595  22.425  0.00  0.00     0.026 A 
ENDROOT
BRANCH   1  12
ATOM     12  S   UNL d   1     -46.194  12.408  22.966  0.00  0.00     0.214 S 
ATOM     13  O   UNL d   1     -45.834  12.595  22.248  0.00  0.00    -0.217 OA
ATOM     14  O   UNL d   1     -46.555  12.215  23.693  0.00  0.00    -0.217 OA
BRANCH  12  15
ATOM     15  C   UNL d   1     -45.628  11.819  23.093  0.00  0.00     0.088 A 
ATOM     16  C   UNL d   1     -44.880  11.875  22.747  0.00  0.00     0.011 A 
ATOM     17  C   UNL d   1     -44.315  11.290  22.872  0.00  0.00     0.001 A 
ATOM     18  C   UNL d   1     -44.492  10.638  23.349  0.00  0.00     0.000 A 
ATOM     19  C   UNL d   1     -45.239  10.578  23.698  0.00  0.00     0.001 A 
ATOM     20  C   UNL d   1     -43.925  10.045  23.479  0.00  0.00     0.000 C 
ATOM     21  C   UNL d   1     -45.804  11.164  23.572  0.00  0.00     0.011 A 
ENDBRANCH  12  15
ENDBRANCH   1  12
BRANCH   5  22
ATOM     22  C   UNL d   1     -46.855  15.180  22.647  0.00  0.00     0.080 C 
ATOM     23  C   UNL d   1     -46.053  15.369  22.621  0.00  0.00     0.021 C 
ENDBRANCH   5  22
BRANCH  10  24
ATOM     24  O   UNL d   1     -50.280  13.611  22.392  0.00  0.00    -0.305 OA
BRANCH  24  25
ATOM     25  C   UNL d   1     -50.649  13.591  21.659  0.00  0.00     0.123 C 
ATOM     26  C   UNL d   1     -51.033  12.911  21.398  0.00  0.00     0.029 C 
ENDBRANCH  24  25
ENDBRANCH  10  24
TORSDOF 5
ENDMDL
