MODEL 1
REMARK VINA RESULT:      -9.9      0.000      0.000
REMARK  4 active torsions:
REMARK  status: ('A' for Active; 'I' for Inactive)
REMARK    1  A    between atoms: C_2  and  C_1 
REMARK    2  A    between atoms: C_3  and  C_1 
REMARK    3  A    between atoms: C_9  and  C_1 
REMARK    4  A    between atoms: N_4  and  C_10 
ROOT
ATOM      1  C   UNL d   1      53.179  32.326  53.511  0.00  0.00     0.012 C 
ENDROOT
BRANCH   1   2
ATOM      2  C   UNL d   1      53.172  31.501  53.596  0.00  0.00     0.077 A 
ATOM      3  C   UNL d   1      53.086  31.017  52.931  0.00  0.00     0.195 A 
ATOM      4  C   UNL d   1      53.079  30.195  53.014  0.00  0.00     0.019 A 
ATOM      5  O   UNL d   1      53.005  31.362  52.179  0.00  0.00    -0.287 OA
ATOM      6  C   UNL d   1      53.160  29.852  53.769  0.00  0.00     0.043 A 
ATOM      7  C   UNL d   1      53.246  30.343  54.426  0.00  0.00     0.019 A 
ATOM      8  C   UNL d   1      53.220  29.310  54.377  0.00  0.00     0.009 C 
ATOM      9  C   UNL d   1      53.085  29.246  53.221  0.00  0.00     0.009 C 
ATOM     10  C   UNL d   1      53.254  31.162  54.353  0.00  0.00     0.195 A 
ATOM     11  O   UNL d   1      53.341  31.646  55.028  0.00  0.00    -0.287 OA
ENDBRANCH   1   2
BRANCH   1  12
ATOM     12  C   UNL d   1      52.593  32.870  53.314  0.00  0.00     0.077 A 
ATOM     13  C   UNL d   1      52.030  33.098  53.869  0.00  0.00     0.195 A 
ATOM     14  C   UNL d   1      51.446  33.635  53.689  0.00  0.00     0.019 A 
ATOM     15  O   UNL d   1      52.061  32.777  54.623  0.00  0.00    -0.287 OA
ATOM     16  C   UNL d   1      51.421  33.956  52.927  0.00  0.00     0.043 A 
ATOM     17  C   UNL d   1      51.978  33.741  52.349  0.00  0.00     0.019 A 
ATOM     18  C   UNL d   1      50.787  34.315  53.297  0.00  0.00     0.009 C 
ATOM     19  C   UNL d   1      51.244  34.375  52.223  0.00  0.00     0.009 C 
ATOM     20  C   UNL d   1      52.567  33.190  52.555  0.00  0.00     0.195 A 
ATOM     21  O   UNL d   1      53.121  32.979  51.975  0.00  0.00    -0.287 OA
ENDBRANCH   1  12
BRANCH   1  22
ATOM     22  C   UNL d   1      53.898  32.694  53.644  0.00  0.00     0.002 A 
ATOM     23  C   UNL d   1      53.994  33.166  54.323  0.00  0.00     0.024 A 
ATOM     24  C   UNL d   1      54.713  33.535  54.456  0.00  0.00     0.127 A 
ATOM     25  C   UNL d   1      55.337  33.433  53.911  0.00  0.00     0.024 A 
ATOM     26  C   UNL d   1      55.237  32.974  53.254  0.00  0.00     0.002 A 
ATOM     27  C   UNL d   1      54.507  32.599  53.119  0.00  0.00     0.000 A 
BRANCH  24  28
ATOM     28  N   UNL d   1      54.800  34.006  55.139  0.00  0.00    -0.114 N 
ATOM     29  O   UNL d   1      55.244  33.744  55.772  0.00  0.00    -0.532 OA
ATOM     30  O   UNL d   1      54.437  34.753  55.191  0.00  0.00    -0.532 OA
ENDBRANCH  24  28
ENDBRANCH   1  22
TORSDOF 4
ENDMDL
MODEL 2
REMARK VINA RESULT:      -9.8      0.086      3.087
REMARK  4 active torsions:
REMARK  status: ('A' for Active; 'I' for Inactive)
REMARK    1  A    between atoms: C_2  and  C_1 
REMARK    2  A    between atoms: C_3  and  C_1 
REMARK    3  A    between atoms: C_9  and  C_1 
REMARK    4  A    between atoms: N_4  and  C_10 
ROOT
ATOM      1  C   UNL d   1      53.118  32.385  53.485  0.00  0.00     0.012 C 
ENDROOT
BRANCH   1   2
ATOM      2  C   UNL d   1      52.513  32.913  53.283  0.00  0.00     0.077 A 
ATOM      3  C   UNL d   1      52.486  33.243  52.525  0.00  0.00     0.195 A 
ATOM      4  C   UNL d   1      51.883  33.771  52.322  0.00  0.00     0.019 A 
ATOM      5  O   UNL d   1      53.069  33.040  51.968  0.00  0.00    -0.287 OA
ATOM      6  C   UNL d   1      51.301  33.971  52.883  0.00  0.00     0.043 A 
ATOM      7  C   UNL d   1      51.335  33.638  53.636  0.00  0.00     0.019 A 
ATOM      8  C   UNL d   1      50.648  34.305  53.245  0.00  0.00     0.009 C 
ATOM      9  C   UNL d   1      51.136  34.376  52.188  0.00  0.00     0.009 C 
ATOM     10  C   UNL d   1      51.931  33.113  53.847  0.00  0.00     0.195 A 
ATOM     11  O   UNL d   1      51.953  32.783  54.613  0.00  0.00    -0.287 OA
ENDBRANCH   1   2
BRANCH   1  12
ATOM     12  C   UNL d   1      53.136  31.566  53.572  0.00  0.00     0.077 A 
ATOM     13  C   UNL d   1      53.078  31.074  52.916  0.00  0.00     0.195 A 
ATOM     14  C   UNL d   1      53.095  30.263  52.986  0.00  0.00     0.019 A 
ATOM     15  O   UNL d   1      53.002  31.410  52.172  0.00  0.00    -0.287 OA
ATOM     16  C   UNL d   1      53.172  29.931  53.741  0.00  0.00     0.043 A 
ATOM     17  C   UNL d   1      53.233  30.407  54.418  0.00  0.00     0.019 A 
ATOM     18  C   UNL d   1      53.133  29.275  53.254  0.00  0.00     0.009 C 
ATOM     19  C   UNL d   1      53.243  29.429  54.407  0.00  0.00     0.009 C 
ATOM     20  C   UNL d   1      53.213  31.234  54.323  0.00  0.00     0.195 A 
ATOM     21  O   UNL d   1      53.274  31.705  55.003  0.00  0.00    -0.287 OA
ENDBRANCH   1  12
BRANCH   1  22
ATOM     22  C   UNL d   1      53.852  32.718  53.631  0.00  0.00     0.002 A 
ATOM     23  C   UNL d   1      53.954  33.199  54.302  0.00  0.00     0.024 A 
ATOM     24  C   UNL d   1      54.688  33.532  54.448  0.00  0.00     0.127 A 
ATOM     25  C   UNL d   1      55.320  33.385  53.923  0.00  0.00     0.024 A 
ATOM     26  C   UNL d   1      55.214  32.917  53.273  0.00  0.00     0.002 A 
ATOM     27  C   UNL d   1      54.470  32.579  53.125  0.00  0.00     0.000 A 
BRANCH  24  28
ATOM     28  N   UNL d   1      54.782  34.013  55.124  0.00  0.00    -0.114 N 
ATOM     29  O   UNL d   1      55.264  33.778  55.738  0.00  0.00    -0.532 OA
ATOM     30  O   UNL d   1      54.385  34.743  55.186  0.00  0.00    -0.532 OA
ENDBRANCH  24  28
ENDBRANCH   1  22
TORSDOF 4
ENDMDL
MODEL 3
REMARK VINA RESULT:      -9.5      1.118      3.703
REMARK  4 active torsions:
REMARK  status: ('A' for Active; 'I' for Inactive)
REMARK    1  A    between atoms: C_2  and  C_1 
REMARK    2  A    between atoms: C_3  and  C_1 
REMARK    3  A    between atoms: C_9  and  C_1 
REMARK    4  A    between atoms: N_4  and  C_10 
ROOT
ATOM      1  C   UNL d   1      53.321  32.324  53.815  0.00  0.00     0.012 C 
ENDROOT
BRANCH   1   2
ATOM      2  C   UNL d   1      53.951  32.778  54.106  0.00  0.00     0.077 A 
ATOM      3  C   UNL d   1      53.918  33.087  54.873  0.00  0.00     0.195 A 
ATOM      4  C   UNL d   1      54.545  33.540  55.165  0.00  0.00     0.019 A 
ATOM      5  O   UNL d   1      53.252  32.940  55.347  0.00  0.00    -0.287 OA
ATOM      6  C   UNL d   1      55.211  33.685  54.687  0.00  0.00     0.043 A 
ATOM      7  C   UNL d   1      55.235  33.372  53.924  0.00  0.00     0.019 A 
ATOM      8  C   UNL d   1      55.936  33.950  54.418  0.00  0.00     0.009 C 
ATOM      9  C   UNL d   1      55.331  34.055  55.409  0.00  0.00     0.009 C 
ATOM     10  C   UNL d   1      54.616  32.921  53.625  0.00  0.00     0.195 A 
ATOM     11  O   UNL d   1      54.654  32.611  52.851  0.00  0.00    -0.287 OA
ENDBRANCH   1   2
BRANCH   1  12
ATOM     12  C   UNL d   1      53.236  31.519  53.669  0.00  0.00     0.077 A 
ATOM     13  C   UNL d   1      53.176  31.236  52.898  0.00  0.00     0.195 A 
ATOM     14  C   UNL d   1      53.091  30.443  52.739  0.00  0.00     0.019 A 
ATOM     15  O   UNL d   1      53.202  31.770  52.276  0.00  0.00    -0.287 OA
ATOM     16  C   UNL d   1      53.066  29.910  53.372  0.00  0.00     0.043 A 
ATOM     17  C   UNL d   1      53.124  30.171  54.159  0.00  0.00     0.019 A 
ATOM     18  C   UNL d   1      52.991  29.424  52.720  0.00  0.00     0.009 C 
ATOM     19  C   UNL d   1      53.021  29.241  53.874  0.00  0.00     0.009 C 
ATOM     20  C   UNL d   1      53.210  30.987  54.299  0.00  0.00     0.195 A 
ATOM     21  O   UNL d   1      53.268  31.242  55.086  0.00  0.00    -0.287 OA
ENDBRANCH   1  12
BRANCH   1  22
ATOM     22  C   UNL d   1      52.639  32.736  53.628  0.00  0.00     0.002 A 
ATOM     23  C   UNL d   1      52.676  33.355  53.072  0.00  0.00     0.024 A 
ATOM     24  C   UNL d   1      51.993  33.767  52.885  0.00  0.00     0.127 A 
ATOM     25  C   UNL d   1      51.273  33.561  53.253  0.00  0.00     0.024 A 
ATOM     26  C   UNL d   1      51.243  32.960  53.791  0.00  0.00     0.002 A 
ATOM     27  C   UNL d   1      51.936  32.541  53.981  0.00  0.00     0.000 A 
BRANCH  24  28
ATOM     28  N   UNL d   1      52.040  34.386  52.328  0.00  0.00    -0.114 N 
ATOM     29  O   UNL d   1      51.683  34.316  51.597  0.00  0.00    -0.532 OA
ATOM     30  O   UNL d   1      52.450  35.088  52.503  0.00  0.00    -0.532 OA
ENDBRANCH  24  28
ENDBRANCH   1  22
TORSDOF 4
ENDMDL
MODEL 4
REMARK VINA RESULT:      -9.4      1.092      2.890
REMARK  4 active torsions:
REMARK  status: ('A' for Active; 'I' for Inactive)
REMARK    1  A    between atoms: C_2  and  C_1 
REMARK    2  A    between atoms: C_3  and  C_1 
REMARK    3  A    between atoms: C_9  and  C_1 
REMARK    4  A    between atoms: N_4  and  C_10 
ROOT
ATOM      1  C   UNL d   1      53.337  32.309  53.812  0.00  0.00     0.012 C 
ENDROOT
BRANCH   1   2
ATOM      2  C   UNL d   1      53.256  31.493  53.688  0.00  0.00     0.077 A 
ATOM      3  C   UNL d   1      53.181  31.196  52.919  0.00  0.00     0.195 A 
ATOM      4  C   UNL d   1      53.101  30.383  52.794  0.00  0.00     0.019 A 
ATOM      5  O   UNL d   1      53.187  31.721  52.274  0.00  0.00    -0.287 OA
ATOM      6  C   UNL d   1      53.095  29.862  53.443  0.00  0.00     0.043 A 
ATOM      7  C   UNL d   1      53.171  30.166  54.205  0.00  0.00     0.019 A 
ATOM      8  C   UNL d   1      53.064  29.184  53.899  0.00  0.00     0.009 C 
ATOM      9  C   UNL d   1      53.012  29.418  52.757  0.00  0.00     0.009 C 
ATOM     10  C   UNL d   1      53.252  30.973  54.339  0.00  0.00     0.195 A 
ATOM     11  O   UNL d   1      53.327  31.267  55.117  0.00  0.00    -0.287 OA
ENDBRANCH   1   2
BRANCH   1  12
ATOM     12  C   UNL d   1      53.959  32.771  54.088  0.00  0.00     0.077 A 
ATOM     13  C   UNL d   1      54.619  32.911  53.617  0.00  0.00     0.195 A 
ATOM     14  C   UNL d   1      55.242  33.366  53.878  0.00  0.00     0.019 A 
ATOM     15  O   UNL d   1      54.649  32.583  52.867  0.00  0.00    -0.287 OA
ATOM     16  C   UNL d   1      55.205  33.694  54.637  0.00  0.00     0.043 A 
ATOM     17  C   UNL d   1      54.549  33.567  55.131  0.00  0.00     0.019 A 
ATOM     18  C   UNL d   1      55.928  33.956  54.358  0.00  0.00     0.009 C 
ATOM     19  C   UNL d   1      55.339  34.097  55.358  0.00  0.00     0.009 C 
ATOM     20  C   UNL d   1      53.924  33.099  54.845  0.00  0.00     0.195 A 
ATOM     21  O   UNL d   1      53.272  32.975  55.342  0.00  0.00    -0.287 OA
ENDBRANCH   1  12
BRANCH   1  22
ATOM     22  C   UNL d   1      52.682  32.766  53.630  0.00  0.00     0.002 A 
ATOM     23  C   UNL d   1      52.737  33.332  53.023  0.00  0.00     0.024 A 
ATOM     24  C   UNL d   1      52.082  33.789  52.841  0.00  0.00     0.127 A 
ATOM     25  C   UNL d   1      51.371  33.680  53.266  0.00  0.00     0.024 A 
ATOM     26  C   UNL d   1      51.325  33.129  53.855  0.00  0.00     0.002 A 
ATOM     27  C   UNL d   1      51.990  32.665  54.039  0.00  0.00     0.000 A 
BRANCH  24  28
ATOM     28  N   UNL d   1      52.145  34.354  52.231  0.00  0.00    -0.114 N 
ATOM     29  O   UNL d   1      51.812  34.217  51.499  0.00  0.00    -0.532 OA
ATOM     30  O   UNL d   1      52.550  35.071  52.355  0.00  0.00    -0.532 OA
ENDBRANCH  24  28
ENDBRANCH   1  22
TORSDOF 4
ENDMDL
MODEL 5
REMARK VINA RESULT:      -9.3      1.312      2.940
REMARK  4 active torsions:
REMARK  status: ('A' for Active; 'I' for Inactive)
REMARK    1  A    between atoms: C_2  and  C_1 
REMARK    2  A    between atoms: C_3  and  C_1 
REMARK    3  A    between atoms: C_9  and  C_1 
REMARK    4  A    between atoms: N_4  and  C_10 
ROOT
ATOM      1  C   UNL d   1      53.021  32.752  53.498  0.00  0.00     0.012 C 
ENDROOT
BRANCH   1   2
ATOM      2  C   UNL d   1      53.657  33.005  53.965  0.00  0.00     0.077 A 
ATOM      3  C   UNL d   1      53.540  33.180  54.765  0.00  0.00     0.195 A 
ATOM      4  C   UNL d   1      54.174  33.433  55.232  0.00  0.00     0.019 A 
ATOM      5  O   UNL d   1      52.782  33.101  55.096  0.00  0.00    -0.287 OA
ATOM      6  C   UNL d   1      54.932  33.511  54.896  0.00  0.00     0.043 A 
ATOM      7  C   UNL d   1      55.040  33.334  54.098  0.00  0.00     0.019 A 
ATOM      8  C   UNL d   1      55.730  33.656  54.797  0.00  0.00     0.009 C 
ATOM      9  C   UNL d   1      54.981  33.719  55.689  0.00  0.00     0.009 C 
ATOM     10  C   UNL d   1      54.415  33.082  53.626  0.00  0.00     0.195 A 
ATOM     11  O   UNL d   1      54.539  32.907  52.820  0.00  0.00    -0.287 OA
ENDBRANCH   1   2
BRANCH   1  12
ATOM     12  C   UNL d   1      52.362  33.143  53.196  0.00  0.00     0.077 A 
ATOM     13  C   UNL d   1      51.630  33.077  53.566  0.00  0.00     0.195 A 
ATOM     14  C   UNL d   1      50.970  33.457  53.279  0.00  0.00     0.019 A 
ATOM     15  O   UNL d   1      51.566  32.617  54.241  0.00  0.00    -0.287 OA
ATOM     16  C   UNL d   1      51.043  33.921  52.597  0.00  0.00     0.043 A 
ATOM     17  C   UNL d   1      51.771  34.002  52.205  0.00  0.00     0.019 A 
ATOM     18  C   UNL d   1      50.252  33.998  52.788  0.00  0.00     0.009 C 
ATOM     19  C   UNL d   1      50.930  34.420  51.934  0.00  0.00     0.009 C 
ATOM     20  C   UNL d   1      52.433  33.605  52.516  0.00  0.00     0.195 A 
ATOM     21  O   UNL d   1      53.157  33.689  52.122  0.00  0.00    -0.287 OA
ENDBRANCH   1  12
BRANCH   1  22
ATOM     22  C   UNL d   1      53.026  31.962  53.282  0.00  0.00     0.002 A 
ATOM     23  C   UNL d   1      52.981  31.378  53.873  0.00  0.00     0.024 A 
ATOM     24  C   UNL d   1      52.987  30.588  53.657  0.00  0.00     0.127 A 
ATOM     25  C   UNL d   1      53.037  30.382  52.849  0.00  0.00     0.024 A 
ATOM     26  C   UNL d   1      53.080  30.953  52.280  0.00  0.00     0.002 A 
ATOM     27  C   UNL d   1      53.075  31.755  52.500  0.00  0.00     0.000 A 
BRANCH  24  28
ATOM     28  N   UNL d   1      52.941  30.009  54.256  0.00  0.00    -0.114 N 
ATOM     29  O   UNL d   1      53.573  29.876  54.755  0.00  0.00    -0.532 OA
ATOM     30  O   UNL d   1      52.251  29.555  54.358  0.00  0.00    -0.532 OA
ENDBRANCH  24  28
ENDBRANCH   1  22
TORSDOF 4
ENDMDL
