MODEL 1
REMARK VINA RESULT:      -4.7      0.000      0.000
REMARK  7 active torsions:
REMARK  status: ('A' for Active; 'I' for Inactive)
REMARK    1  A    between atoms: N_2  and  S_1 
REMARK    2  A    between atoms: C_5  and  S_1 
REMARK    3  A    between atoms: C_3  and  N_2 
REMARK    4  A    between atoms: C_4  and  C_3 
REMARK    5  A    between atoms: C_13  and  C_3 
REMARK    6  A    between atoms: C_9  and  C_8 
REMARK    7  A    between atoms: O_22  and  C_19 
ROOT
ATOM      1  C   UNL d   1      58.023  -0.144  30.361  0.00  0.00     0.105 A 
ATOM      2  C   UNL d   1      57.061  -0.034  31.693  0.00  0.00     0.000 A 
ATOM      3  C   UNL d   1      57.845  -0.821  30.795  0.00  0.00     0.013 A 
ATOM      4  C   UNL d   1      57.720   0.588  30.593  0.00  0.00     0.013 A 
ATOM      5  C   UNL d   1      57.239   0.643  31.259  0.00  0.00     0.001 A 
ATOM      6  C   UNL d   1      57.364  -0.765  31.461  0.00  0.00     0.001 A 
ENDROOT
BRANCH   1   7
ATOM      7  S   UNL d   1      58.511  -0.197  29.684  0.00  0.00     0.285 S 
ATOM      8  O   UNL d   1      58.774   0.583  29.816  0.00  0.00    -0.198 OA
ATOM      9  O   UNL d   1      58.243  -0.977  29.558  0.00  0.00    -0.198 OA
BRANCH   7  10
ATOM     10  N   UNL d   1      58.993  -0.251  29.014  0.00  0.00    -0.152 NA
BRANCH  10  11
ATOM     11  C   UNL d   1      59.797  -0.449  29.092  0.00  0.00     0.158 C 
BRANCH  11  12
ATOM     12  C   UNL d   1      60.018  -1.239  29.174  0.00  0.00     0.230 C 
ATOM     13  O   UNL d   1      60.487  -1.472  29.809  0.00  0.00    -0.643 OA
ATOM     14  O   UNL d   1      59.770  -1.796  28.620  0.00  0.00    -0.643 OA
ENDBRANCH  11  12
BRANCH  11  15
ATOM     15  C   UNL d   1      60.369   0.142  29.086  0.00  0.00     0.025 C 
ATOM     16  C   UNL d   1      60.921   0.195  29.708  0.00  0.00     0.002 C 
ATOM     17  C   UNL d   1      60.396   0.682  28.464  0.00  0.00     0.002 C 
ENDBRANCH  11  15
ENDBRANCH  10  11
ENDBRANCH   7  10
ENDBRANCH   1   7
BRANCH   2  18
ATOM     18  C   UNL d   1      56.581   0.021  32.359  0.00  0.00     0.000 A 
ATOM     19  C   UNL d   1      56.706   0.622  32.908  0.00  0.00     0.002 A 
ATOM     20  C   UNL d   1      56.224   0.681  33.581  0.00  0.00     0.024 A 
ATOM     21  C   UNL d   1      55.611   0.129  33.700  0.00  0.00     0.094 A 
ATOM     22  C   UNL d   1      55.487  -0.476  33.144  0.00  0.00     0.024 A 
ATOM     23  C   UNL d   1      55.968  -0.531  32.478  0.00  0.00     0.002 A 
BRANCH  21  24
ATOM     24  O   UNL d   1      55.126   0.183  34.369  0.00  0.00    -0.328 OA
ATOM     25  C   UNL d   1      55.380   0.613  35.037  0.00  0.00     0.181 C 
ENDBRANCH  21  24
ENDBRANCH   2  18
TORSDOF 7
ENDMDL
MODEL 2
REMARK VINA RESULT:      -4.6      0.729      1.194
REMARK  7 active torsions:
REMARK  status: ('A' for Active; 'I' for Inactive)
REMARK    1  A    between atoms: N_2  and  S_1 
REMARK    2  A    between atoms: C_5  and  S_1 
REMARK    3  A    between atoms: C_3  and  N_2 
REMARK    4  A    between atoms: C_4  and  C_3 
REMARK    5  A    between atoms: C_13  and  C_3 
REMARK    6  A    between atoms: C_9  and  C_8 
REMARK    7  A    between atoms: O_22  and  C_19 
ROOT
ATOM      1  C   UNL d   1      57.769  -0.199  30.455  0.00  0.00     0.105 A 
ATOM      2  C   UNL d   1      56.930   0.044  31.851  0.00  0.00     0.000 A 
ATOM      3  C   UNL d   1      57.615  -0.834  30.956  0.00  0.00     0.013 A 
ATOM      4  C   UNL d   1      57.503   0.557  30.652  0.00  0.00     0.013 A 
ATOM      5  C   UNL d   1      57.084   0.678  31.350  0.00  0.00     0.001 A 
ATOM      6  C   UNL d   1      57.196  -0.712  31.655  0.00  0.00     0.001 A 
ENDROOT
BRANCH   1   7
ATOM      7  S   UNL d   1      58.194  -0.319  29.745  0.00  0.00     0.285 S 
ATOM      8  O   UNL d   1      58.172  -1.143  29.876  0.00  0.00    -0.198 OA
ATOM      9  O   UNL d   1      58.212   0.506  29.621  0.00  0.00    -0.198 OA
BRANCH   7  10
ATOM     10  N   UNL d   1      58.615  -0.438  29.043  0.00  0.00    -0.152 NA
BRANCH  10  11
ATOM     11  C   UNL d   1      59.430  -0.597  29.066  0.00  0.00     0.158 C 
BRANCH  11  12
ATOM     12  C   UNL d   1      59.963   0.013  29.222  0.00  0.00     0.230 C 
ATOM     13  O   UNL d   1      60.355   0.042  29.945  0.00  0.00    -0.643 OA
ATOM     14  O   UNL d   1      60.103   0.593  28.655  0.00  0.00    -0.643 OA
ENDBRANCH  11  12
BRANCH  11  15
ATOM     15  C   UNL d   1      59.705  -1.362  28.932  0.00  0.00     0.025 C 
ATOM     16  C   UNL d   1      59.268  -1.886  28.455  0.00  0.00     0.002 C 
ATOM     17  C   UNL d   1      60.415  -1.607  29.271  0.00  0.00     0.002 C 
ENDBRANCH  11  15
ENDBRANCH  10  11
ENDBRANCH   7  10
ENDBRANCH   1   7
BRANCH   2  18
ATOM     18  C   UNL d   1      56.511   0.165  32.549  0.00  0.00     0.000 A 
ATOM     19  C   UNL d   1      56.868   0.556  33.180  0.00  0.00     0.002 A 
ATOM     20  C   UNL d   1      56.449   0.680  33.886  0.00  0.00     0.024 A 
ATOM     21  C   UNL d   1      55.665   0.407  33.954  0.00  0.00     0.094 A 
ATOM     22  C   UNL d   1      55.308   0.012  33.316  0.00  0.00     0.024 A 
ATOM     23  C   UNL d   1      55.727  -0.108  32.618  0.00  0.00     0.002 A 
BRANCH  21  24
ATOM     24  O   UNL d   1      55.241   0.528  34.656  0.00  0.00    -0.328 OA
ATOM     25  C   UNL d   1      54.422   0.682  34.629  0.00  0.00     0.181 C 
ENDBRANCH  21  24
ENDBRANCH   2  18
TORSDOF 7
ENDMDL
