MODEL 1
REMARK VINA RESULT:      -6.5      0.000      0.000
REMARK  4 active torsions:
REMARK  status: ('A' for Active; 'I' for Inactive)
REMARK    1  A    between atoms: N_5  and  C_2 
REMARK    2  A    between atoms: C_9  and  C_3 
REMARK       I    between atoms: C_7  and  N_5 
REMARK    3  A    between atoms: C_8  and  C_7 
REMARK    4  A    between atoms: O_16  and  C_13 
ROOT
ATOM      1  N   UNL d   1     -41.761-122.396 -52.658  0.00  0.00    -0.200 NA
ATOM      2  C   UNL d   1     -41.479-122.894 -52.071  0.00  0.00     0.216 A 
ATOM      3  C   UNL d   1     -41.612-122.743 -53.388  0.00  0.00     0.172 A 
ATOM      4  N   UNL d   1     -41.233-123.463 -53.251  0.00  0.00    -0.187 NA
ATOM      5  S   UNL d   1     -41.153-123.552 -52.438  0.00  0.00     0.054 SA
ENDROOT
BRANCH   2   6
ATOM      6  N   UNL d   1     -41.515-122.758 -51.258  0.00  0.00    -0.181 NA
ATOM      7  C   UNL d   1     -42.005-123.220 -50.793  0.00  0.00     0.281 C 
ATOM      8  O   UNL d   1     -42.460-123.817 -51.133  0.00  0.00    -0.265 OA
BRANCH   7   9
ATOM      9  C   UNL d   1     -42.042-123.084 -49.980  0.00  0.00     0.058 A 
ATOM     10  C   UNL d   1     -42.737-122.804 -49.640  0.00  0.00     0.007 A 
ATOM     11  C   UNL d   1     -42.774-122.668 -48.827  0.00  0.00     0.024 A 
ATOM     12  C   UNL d   1     -42.115-122.813 -48.354  0.00  0.00     0.094 A 
ATOM     13  C   UNL d   1     -41.420-123.093 -48.695  0.00  0.00     0.024 A 
ATOM     14  C   UNL d   1     -41.383-123.229 -49.508  0.00  0.00     0.007 A 
BRANCH  12  15
ATOM     15  O   UNL d   1     -42.151-122.677 -47.541  0.00  0.00    -0.328 OA
ATOM     16  C   UNL d   1     -42.318-123.297 -47.027  0.00  0.00     0.181 C 
ENDBRANCH  12  15
ENDBRANCH   7   9
ENDBRANCH   2   6
BRANCH   3  17
ATOM     17  C   UNL d   1     -41.803-122.433 -54.121  0.00  0.00     0.036 A 
ATOM     18  C   UNL d   1     -42.428-121.899 -54.190  0.00  0.00     0.003 A 
ATOM     19  C   UNL d   1     -42.622-121.584 -54.936  0.00  0.00     0.000 A 
ATOM     20  C   UNL d   1     -42.188-121.807 -55.609  0.00  0.00     0.000 A 
ATOM     21  C   UNL d   1     -41.562-122.344 -55.530  0.00  0.00     0.000 A 
ATOM     22  C   UNL d   1     -41.369-122.656 -54.793  0.00  0.00     0.003 A 
ENDBRANCH   3  17
TORSDOF 4
ENDMDL
