MODEL 1
REMARK VINA RESULT:      11.1      0.000      0.000
REMARK  3 active torsions:
REMARK  status: ('A' for Active; 'I' for Inactive)
REMARK    1  A    between atoms: N_4  and  C_2 
REMARK    2  A    between atoms: C_9  and  C_3 
REMARK       I    between atoms: C_7  and  N_4 
REMARK    3  A    between atoms: C_8  and  C_7 
ROOT
ATOM      1  N   UNL d   1      46.342 -17.484  43.591  0.00  0.00    -0.051 NA
ATOM      2  C   UNL d   1      46.279 -17.074  44.300  0.00  0.00     0.760 A 
ATOM      3  C   UNL d   1      46.314 -18.291  43.758  0.00  0.00     0.147 A 
ATOM      4  N   UNL d   1      46.211 -17.627  44.909  0.00  0.00    -0.019 NA
ATOM      5  S   UNL d   1      46.233 -18.379  44.578  0.00  0.00     0.052 SA
ENDROOT
BRANCH   2   6
ATOM      6  N   UNL d   1      46.274 -16.261  44.472  0.00  0.00    -0.018 NA
ATOM      7  C   UNL d   1      45.626 -15.799  44.255  0.00  0.00     0.295 C 
ATOM      8  O   UNL d   1      44.985 -16.144  43.866  0.00  0.00    -0.265 OA
BRANCH   7   9
ATOM      9  C   UNL d   1      45.622 -14.994  44.426  0.00  0.00     0.059 A 
ATOM     10  C   UNL d   1      46.304 -14.547  44.311  0.00  0.00     0.007 A 
ATOM     11  C   UNL d   1      46.293 -13.739  44.485  0.00  0.00     0.030 A 
ATOM     12  C   UNL d   1      45.607 -13.380  44.770  0.00  0.00     0.140 A 
ATOM     13  C   UNL d   1      44.925 -13.826  44.885  0.00  0.00     0.030 A 
ATOM     14  F   UNL d   1      45.612 -12.574  44.939  0.00  0.00    -0.204 F 
ATOM     15  C   UNL d   1      44.929 -14.632  44.714  0.00  0.00     0.007 A 
ENDBRANCH   7   9
ENDBRANCH   2   6
BRANCH   3  16
ATOM     16  C   UNL d   1      46.359 -18.901  43.210  0.00  0.00     0.026 A 
ATOM     17  C   UNL d   1      46.222 -19.681  43.443  0.00  0.00     0.002 A 
ATOM     18  C   UNL d   1      46.267 -20.294  42.892  0.00  0.00     0.000 A 
ATOM     19  C   UNL d   1      46.450 -20.123  42.106  0.00  0.00     0.000 A 
ATOM     20  C   UNL d   1      46.587 -19.350  41.868  0.00  0.00     0.000 A 
ATOM     21  C   UNL d   1      46.542 -18.738  42.419  0.00  0.00     0.002 A 
ENDBRANCH   3  16
TORSDOF 3
ENDMDL
MODEL 2
REMARK VINA RESULT:      11.9      2.104      5.021
REMARK  3 active torsions:
REMARK  status: ('A' for Active; 'I' for Inactive)
REMARK    1  A    between atoms: N_4  and  C_2 
REMARK    2  A    between atoms: C_9  and  C_3 
REMARK       I    between atoms: C_7  and  N_4 
REMARK    3  A    between atoms: C_8  and  C_7 
ROOT
ATOM      1  N   UNL d   1      45.812 -15.287  44.381  0.00  0.00    -0.051 NA
ATOM      2  C   UNL d   1      45.396 -15.969  44.568  0.00  0.00     0.760 A 
ATOM      3  C   UNL d   1      45.324 -14.639  44.531  0.00  0.00     0.147 A 
ATOM      4  N   UNL d   1      44.648 -15.747  44.834  0.00  0.00    -0.019 NA
ATOM      5  S   UNL d   1      44.599 -14.927  44.813  0.00  0.00     0.052 SA
ENDROOT
BRANCH   2   6
ATOM      6  N   UNL d   1      45.603 -16.774  44.530  0.00  0.00    -0.018 NA
ATOM      7  C   UNL d   1      45.790 -17.116  43.804  0.00  0.00     0.295 C 
ATOM      8  O   UNL d   1      45.771 -16.661  43.116  0.00  0.00    -0.265 OA
BRANCH   7   9
ATOM      9  C   UNL d   1      45.994 -17.912  43.766  0.00  0.00     0.059 A 
ATOM     10  C   UNL d   1      45.969 -18.308  43.044  0.00  0.00     0.007 A 
ATOM     11  C   UNL d   1      46.176 -19.108  43.014  0.00  0.00     0.030 A 
ATOM     12  C   UNL d   1      46.406 -19.509  43.697  0.00  0.00     0.140 A 
ATOM     13  C   UNL d   1      46.431 -19.114  44.419  0.00  0.00     0.030 A 
ATOM     14  F   UNL d   1      46.609 -20.305  43.650  0.00  0.00    -0.204 F 
ATOM     15  C   UNL d   1      46.226 -18.317  44.457  0.00  0.00     0.007 A 
ENDBRANCH   7   9
ENDBRANCH   2   6
BRANCH   3  16
ATOM     16  C   UNL d   1      45.520 -13.850  44.421  0.00  0.00     0.026 A 
ATOM     17  C   UNL d   1      46.019 -13.465  44.955  0.00  0.00     0.002 A 
ATOM     18  C   UNL d   1      46.216 -12.672  44.844  0.00  0.00     0.000 A 
ATOM     19  C   UNL d   1      45.910 -12.262  44.196  0.00  0.00     0.000 A 
ATOM     20  C   UNL d   1      45.413 -12.638  43.662  0.00  0.00     0.000 A 
ATOM     21  C   UNL d   1      45.217 -13.432  43.773  0.00  0.00     0.002 A 
ENDBRANCH   3  16
TORSDOF 3
ENDMDL
