MODEL 1
REMARK VINA RESULT:      41.9      0.000      0.000
REMARK  2 active torsions:
REMARK  status: ('A' for Active; 'I' for Inactive)
REMARK    1  A    between atoms: C_4  and  C_1 
REMARK    2  A    between atoms: C_8  and  C_4 
ROOT
ATOM      1  C   UNL d   1     -47.330  31.628  35.116  0.00  0.00     0.139 A 
ATOM      2  O   UNL d   1     -46.839  32.216  34.798  0.00  0.00    -0.304 OA
ATOM      3  C   UNL d   1     -48.069  31.691  34.798  0.00  0.00     0.030 A 
ATOM      4  C   UNL d   1     -47.306  32.649  34.266  0.00  0.00     0.100 A 
ATOM      5  C   UNL d   1     -48.063  32.326  34.267  0.00  0.00     0.025 A 
ATOM      6  C   UNL d   1     -47.125  33.301  33.784  0.00  0.00     0.025 A 
ATOM      7  C   UNL d   1     -48.659  32.647  33.784  0.00  0.00     0.002 A 
ATOM      8  C   UNL d   1     -47.719  33.617  33.306  0.00  0.00     0.002 A 
ATOM      9  C   UNL d   1     -48.476  33.294  33.306  0.00  0.00     0.000 A 
ENDROOT
BRANCH   1  10
ATOM     10  C   UNL d   1     -47.086  31.056  35.684  0.00  0.00     0.218 C 
ATOM     11  O   UNL d   1     -46.579  31.269  36.308  0.00  0.00    -0.284 OA
BRANCH  10  12
ATOM     12  C   UNL d   1     -47.343  30.273  35.634  0.00  0.00     0.041 A 
ATOM     13  C   UNL d   1     -47.769  29.956  36.269  0.00  0.00     0.003 A 
ATOM     14  C   UNL d   1     -48.030  29.168  36.222  0.00  0.00     0.000 A 
ATOM     15  C   UNL d   1     -47.868  28.713  35.557  0.00  0.00     0.000 A 
ATOM     16  C   UNL d   1     -47.442  29.037  34.925  0.00  0.00     0.000 A 
ATOM     17  C   UNL d   1     -47.181  29.818  34.968  0.00  0.00     0.003 A 
ENDBRANCH  10  12
ENDBRANCH   1  10
TORSDOF 2
ENDMDL
MODEL 2
REMARK VINA RESULT:      42.9      0.525      3.561
REMARK  2 active torsions:
REMARK  status: ('A' for Active; 'I' for Inactive)
REMARK    1  A    between atoms: C_4  and  C_1 
REMARK    2  A    between atoms: C_8  and  C_4 
ROOT
ATOM      1  C   UNL d   1     -47.308  31.344  35.267  0.00  0.00     0.139 A 
ATOM      2  O   UNL d   1     -47.149  30.984  35.998  0.00  0.00    -0.304 OA
ATOM      3  C   UNL d   1     -47.635  30.803  34.765  0.00  0.00     0.030 A 
ATOM      4  C   UNL d   1     -47.393  30.194  35.929  0.00  0.00     0.100 A 
ATOM      5  C   UNL d   1     -47.692  30.083  35.170  0.00  0.00     0.025 A 
ATOM      6  C   UNL d   1     -47.375  29.565  36.472  0.00  0.00     0.025 A 
ATOM      7  C   UNL d   1     -47.981  29.339  34.935  0.00  0.00     0.002 A 
ATOM      8  C   UNL d   1     -47.662  28.829  36.236  0.00  0.00     0.002 A 
ATOM      9  C   UNL d   1     -47.961  28.717  35.477  0.00  0.00     0.000 A 
ENDROOT
BRANCH   1  10
ATOM     10  C   UNL d   1     -47.149  32.150  35.086  0.00  0.00     0.218 C 
ATOM     11  O   UNL d   1     -46.561  32.569  35.499  0.00  0.00    -0.284 OA
BRANCH  10  12
ATOM     12  C   UNL d   1     -47.572  32.543  34.495  0.00  0.00     0.041 A 
ATOM     13  C   UNL d   1     -47.149  32.937  33.902  0.00  0.00     0.003 A 
ATOM     14  C   UNL d   1     -47.572  33.333  33.306  0.00  0.00     0.000 A 
ATOM     15  C   UNL d   1     -48.394  33.333  33.306  0.00  0.00     0.000 A 
ATOM     16  C   UNL d   1     -48.810  32.936  33.902  0.00  0.00     0.000 A 
ATOM     17  C   UNL d   1     -48.394  32.542  34.495  0.00  0.00     0.003 A 
ENDBRANCH  10  12
ENDBRANCH   1  10
TORSDOF 2
ENDMDL
