MODEL 1
REMARK VINA RESULT:     122.7      0.000      0.000
REMARK  12 active torsions:
REMARK  status: ('A' for Active; 'I' for Inactive)
REMARK    1  A    between atoms: C_7  and  C_1 
REMARK    2  A    between atoms: C_8  and  N_2 
REMARK    3  A    between atoms: C_6  and  C_5 
REMARK    4  A    between atoms: C_9  and  C_7 
REMARK    5  A    between atoms: C_24  and  C_8 
REMARK    6  A    between atoms: C_12  and  C_9 
REMARK    7  A    between atoms: C_11  and  C_12 
REMARK    8  A    between atoms: O_27  and  C_13 
REMARK    9  A    between atoms: N_14  and  C_24 
REMARK   10  A    between atoms: O_28  and  C_18 
REMARK   11  A    between atoms: C_33  and  O_28 
REMARK   12  A    between atoms: C_35  and  C_33 
ROOT
ATOM      1  C   UNL d   1      60.527  48.765  52.197  0.00  0.00     0.099 A 
ATOM      2  N   UNL d   1      59.621  49.174  53.089  0.00  0.00    -0.269 N 
ATOM      3  C   UNL d   1      60.897  48.842  52.931  0.00  0.00     0.256 A 
ATOM      4  C   UNL d   1      60.342  49.094  53.482  0.00  0.00     0.304 A 
ATOM      5  C   UNL d   1      59.734  48.971  52.295  0.00  0.00     0.073 A 
ATOM      6  O   UNL d   1      60.479  49.240  54.281  0.00  0.00    -0.263 OA
ATOM      7  O   UNL d   1      61.692  48.692  53.084  0.00  0.00    -0.281 OA
ENDROOT
BRANCH   5   8
ATOM      8  C   UNL d   1      59.156  48.975  51.711  0.00  0.00     0.018 A 
ATOM      9  C   UNL d   1      58.992  48.294  51.292  0.00  0.00     0.028 A 
ATOM     10  C   UNL d   1      58.414  48.298  50.708  0.00  0.00     0.117 A 
ATOM     11  C   UNL d   1      57.995  49.000  50.545  0.00  0.00     0.122 A 
ATOM     12  C   UNL d   1      58.165  49.685  50.971  0.00  0.00     0.027 A 
ATOM     13  C   UNL d   1      58.749  49.676  51.559  0.00  0.00     0.004 A 
BRANCH  10  14
ATOM     14  O   UNL d   1      58.248  47.614  50.286  0.00  0.00    -0.326 OA
ATOM     15  C   UNL d   1      57.971  46.942  50.682  0.00  0.00     0.181 C 
ENDBRANCH  10  14
BRANCH  11  16
ATOM     16  O   UNL d   1      57.417  49.004  49.960  0.00  0.00    -0.303 OA
BRANCH  16  17
ATOM     17  C   UNL d   1      57.017  49.708  49.785  0.00  0.00     0.123 C 
BRANCH  17  18
ATOM     18  C   UNL d   1      56.355  49.692  49.293  0.00  0.00     0.027 C 
ATOM     19  C   UNL d   1      56.038  48.970  49.062  0.00  0.00     0.002 C 
ENDBRANCH  17  18
ENDBRANCH  16  17
ENDBRANCH  11  16
ENDBRANCH   5   8
BRANCH   2  20
ATOM     20  C   UNL d   1      58.908  49.415  53.429  0.00  0.00     0.102 C 
BRANCH  20  21
ATOM     21  C   UNL d   1      58.423  48.866  53.810  0.00  0.00     0.100 C 
BRANCH  21  22
ATOM     22  N   UNL d   1      58.043  49.070  54.509  0.00  0.00    -0.298 N 
ATOM     23  C   UNL d   1      58.469  49.099  55.205  0.00  0.00     0.107 A 
ATOM     24  C   UNL d   1      58.088  49.304  55.910  0.00  0.00     0.142 A 
ATOM     25  O   UNL d   1      57.281  49.479  55.907  0.00  0.00    -0.300 OA
ATOM     26  C   UNL d   1      56.856  49.448  55.200  0.00  0.00     0.142 A 
ATOM     27  C   UNL d   1      57.234  49.245  54.503  0.00  0.00     0.107 A 
ENDBRANCH  21  22
ENDBRANCH  20  21
ENDBRANCH   2  20
BRANCH   1  28
ATOM     28  C   UNL d   1      60.880  48.527  51.498  0.00  0.00     0.200 C 
ATOM     29  O   UNL d   1      61.087  49.086  50.925  0.00  0.00    -0.286 OA
BRANCH  28  30
ATOM     30  C   UNL d   1      61.031  47.723  51.363  0.00  0.00     0.044 C 
BRANCH  30  31
ATOM     31  C   UNL d   1      61.753  47.488  51.031  0.00  0.00     0.028 C 
BRANCH  31  32
ATOM     32  C   UNL d   1      61.768  46.902  50.462  0.00  0.00     0.100 A 
ATOM     33  O   UNL d   1      61.850  46.098  50.596  0.00  0.00    -0.305 OA
ATOM     34  C   UNL d   1      61.836  45.707  49.866  0.00  0.00     0.123 A 
ATOM     35  C   UNL d   1      61.743  46.272  49.278  0.00  0.00     0.029 A 
ATOM     36  C   UNL d   1      61.700  47.016  49.644  0.00  0.00     0.027 A 
ENDBRANCH  31  32
ENDBRANCH  30  31
ENDBRANCH  28  30
ENDBRANCH   1  28
TORSDOF 12
ENDMDL
