MODEL 1
REMARK VINA RESULT:     -11.6      0.000      0.000
REMARK  4 active torsions:
REMARK  status: ('A' for Active; 'I' for Inactive)
REMARK    1  A    between atoms: C_6  and  C_1 
REMARK    2  A    between atoms: C_3  and  C_15 
REMARK    3  A    between atoms: O_11  and  C_6 
REMARK    4  A    between atoms: C_15  and  O_11 
ROOT
ATOM      1  C   UNL d   1      52.029  33.937  52.977  0.00  0.00     0.127 A 
ATOM      2  C   UNL d   1      52.533  34.419  53.399  0.00  0.00     0.305 A 
ATOM      3  C   UNL d   1      52.164  33.118  52.953  0.00  0.00     0.013 A 
ATOM      4  C   UNL d   1      52.822  32.826  53.372  0.00  0.00     0.023 A 
ATOM      5  O   UNL d   1      53.176  34.143  53.809  0.00  0.00    -0.273 OA
ATOM      6  C   UNL d   1      53.324  33.304  53.792  0.00  0.00     0.103 A 
ATOM      7  C   UNL d   1      52.973  31.992  53.357  0.00  0.00     0.002 A 
ATOM      8  O   UNL d   1      52.373  35.272  53.409  0.00  0.00    -0.259 OA
ATOM      9  C   UNL d   1      53.990  33.014  54.216  0.00  0.00     0.025 A 
ATOM     10  C   UNL d   1      53.632  31.700  53.776  0.00  0.00     0.000 A 
ATOM     11  C   UNL d   1      54.126  32.201  54.194  0.00  0.00     0.002 A 
ATOM     12  C   UNL d   1      52.492  31.470  52.946  0.00  0.00     0.000 A 
ATOM     13  C   UNL d   1      53.798  30.912  53.779  0.00  0.00     0.000 A 
ATOM     14  C   UNL d   1      52.663  30.649  52.947  0.00  0.00     0.000 A 
ATOM     15  C   UNL d   1      53.311  30.370  53.360  0.00  0.00     0.000 A 
ENDROOT
BRANCH   1  16
ATOM     16  C   UNL d   1      51.344  34.288  52.547  0.00  0.00     0.305 C 
ATOM     17  O   UNL d   1      51.458  34.471  51.752  0.00  0.00    -0.259 OA
BRANCH  16  18
ATOM     18  O   UNL d   1      50.622  34.428  52.914  0.00  0.00    -0.271 OA
BRANCH  18  19
ATOM     19  C   UNL d   1      49.947  34.529  52.443  0.00  0.00     0.127 C 
ATOM     20  C   UNL d   1      49.900  34.123  51.716  0.00  0.00     0.029 C 
BRANCH  19  21
ATOM     21  C   UNL d   1      49.317  35.012  52.660  0.00  0.00     0.134 A 
ATOM     22  N   UNL d   1      49.193  35.401  53.362  0.00  0.00    -0.236 NA
ATOM     23  C   UNL d   1      48.458  35.811  53.269  0.00  0.00     0.088 A 
ATOM     24  C   UNL d   1      48.043  36.294  53.782  0.00  0.00     0.020 A 
ATOM     25  C   UNL d   1      48.176  35.677  52.580  0.00  0.00     0.049 A 
ATOM     26  C   UNL d   1      47.301  36.660  53.582  0.00  0.00     0.002 A 
ATOM     27  C   UNL d   1      47.033  36.501  52.856  0.00  0.00     0.001 A 
ATOM     28  C   UNL d   1      47.450  36.015  52.339  0.00  0.00     0.008 A 
ATOM     29  S   UNL d   1      48.681  35.178  52.156  0.00  0.00    -0.065 SA
ENDBRANCH  19  21
ENDBRANCH  18  19
ENDBRANCH  16  18
ENDBRANCH   1  16
TORSDOF 4
ENDMDL
MODEL 2
REMARK VINA RESULT:      -8.9      1.426      5.823
REMARK  4 active torsions:
REMARK  status: ('A' for Active; 'I' for Inactive)
REMARK    1  A    between atoms: C_6  and  C_1 
REMARK    2  A    between atoms: C_3  and  C_15 
REMARK    3  A    between atoms: O_11  and  C_6 
REMARK    4  A    between atoms: C_15  and  O_11 
ROOT
ATOM      1  C   UNL d   1      49.773  34.675  52.060  0.00  0.00     0.127 A 
ATOM      2  C   UNL d   1      49.407  34.497  51.354  0.00  0.00     0.305 A 
ATOM      3  C   UNL d   1      49.367  35.111  52.638  0.00  0.00     0.013 A 
ATOM      4  C   UNL d   1      48.588  35.349  52.462  0.00  0.00     0.023 A 
ATOM      5  O   UNL d   1      48.649  34.724  51.175  0.00  0.00    -0.273 OA
ATOM      6  C   UNL d   1      48.222  35.172  51.761  0.00  0.00     0.103 A 
ATOM      7  C   UNL d   1      48.161  35.794  53.042  0.00  0.00     0.002 A 
ATOM      8  O   UNL d   1      49.850  34.040  50.765  0.00  0.00    -0.259 OA
ATOM      9  C   UNL d   1      47.437  35.409  51.578  0.00  0.00     0.025 A 
ATOM     10  C   UNL d   1      47.381  36.032  52.866  0.00  0.00     0.000 A 
ATOM     11  C   UNL d   1      47.031  35.842  52.151  0.00  0.00     0.002 A 
ATOM     12  C   UNL d   1      48.490  35.996  53.766  0.00  0.00     0.000 A 
ATOM     13  C   UNL d   1      46.952  36.456  53.399  0.00  0.00     0.000 A 
ATOM     14  C   UNL d   1      48.045  36.438  54.323  0.00  0.00     0.000 A 
ATOM     15  C   UNL d   1      47.282  36.667  54.143  0.00  0.00     0.000 A 
ENDROOT
BRANCH   1  16
ATOM     16  C   UNL d   1      50.600  34.404  52.206  0.00  0.00     0.305 C 
ATOM     17  O   UNL d   1      51.195  34.780  51.776  0.00  0.00    -0.259 OA
BRANCH  16  18
ATOM     18  O   UNL d   1      50.778  33.808  52.741  0.00  0.00    -0.271 OA
BRANCH  18  19
ATOM     19  C   UNL d   1      51.545  33.763  53.051  0.00  0.00     0.127 C 
ATOM     20  C   UNL d   1      51.915  34.465  53.310  0.00  0.00     0.029 C 
BRANCH  19  21
ATOM     21  C   UNL d   1      51.962  33.057  53.117  0.00  0.00     0.134 A 
ATOM     22  N   UNL d   1      51.736  32.311  52.892  0.00  0.00    -0.236 NA
ATOM     23  C   UNL d   1      52.384  31.805  53.094  0.00  0.00     0.088 A 
ATOM     24  C   UNL d   1      52.486  30.999  53.004  0.00  0.00     0.020 A 
ATOM     25  C   UNL d   1      52.939  32.213  53.408  0.00  0.00     0.049 A 
ATOM     26  C   UNL d   1      53.191  30.586  53.246  0.00  0.00     0.002 A 
ATOM     27  C   UNL d   1      53.751  31.040  53.570  0.00  0.00     0.001 A 
ATOM     28  C   UNL d   1      53.648  31.852  53.661  0.00  0.00     0.008 A 
ATOM     29  S   UNL d   1      52.721  33.010  53.446  0.00  0.00    -0.065 SA
ENDBRANCH  19  21
ENDBRANCH  18  19
ENDBRANCH  16  18
ENDBRANCH   1  16
TORSDOF 4
ENDMDL
