MODEL 1
REMARK VINA RESULT:       8.0      0.000      0.000
REMARK  3 active torsions:
REMARK  status: ('A' for Active; 'I' for Inactive)
REMARK    1  A    between atoms: C_12  and  N_3 
REMARK    2  A    between atoms: C_11  and  C_6 
REMARK    3  A    between atoms: C_22  and  C_12 
ROOT
ATOM      1  C   UNL d   1     -42.388-122.153 -52.507  0.00  0.00     0.130 A 
ATOM      2  C   UNL d   1     -41.909-122.825 -52.484  0.00  0.00     0.157 A 
ATOM      3  N   UNL d   1     -42.509-122.192 -51.080  0.00  0.00    -0.256 N 
ATOM      4  C   UNL d   1     -42.685-121.842 -51.804  0.00  0.00     0.272 A 
ATOM      5  N   UNL d   1     -41.726-123.185 -51.763  0.00  0.00    -0.208 NA
ATOM      6  C   UNL d   1     -42.022-122.874 -51.060  0.00  0.00     0.175 A 
ATOM      7  C   UNL d   1     -42.568-121.799 -53.223  0.00  0.00     0.204 A 
ATOM      8  N   UNL d   1     -41.606-123.146 -53.186  0.00  0.00    -0.289 N 
ATOM      9  C   UNL d   1     -42.269-122.114 -53.927  0.00  0.00     0.055 A 
ATOM     10  C   UNL d   1     -41.790-122.785 -53.912  0.00  0.00     0.069 A 
ATOM     11  O   UNL d   1     -43.164-121.171 -51.818  0.00  0.00    -0.266 OA
ATOM     12  O   UNL d   1     -43.047-121.129 -53.242  0.00  0.00    -0.286 OA
ATOM     13  C   UNL d   1     -41.126-123.817 -53.172  0.00  0.00     0.101 C 
ATOM     14  C   UNL d   1     -42.453-121.754 -54.643  0.00  0.00     0.005 A 
ATOM     15  C   UNL d   1     -41.493-123.096 -54.614  0.00  0.00     0.018 A 
ATOM     16  C   UNL d   1     -42.157-122.064 -55.346  0.00  0.00     0.000 A 
ATOM     17  C   UNL d   1     -41.678-122.735 -55.332  0.00  0.00     0.002 A 
ENDROOT
BRANCH   6  18
ATOM     18  C   UNL d   1     -41.841-123.231 -50.330  0.00  0.00     0.135 A 
ATOM     19  O   UNL d   1     -42.455-123.490 -49.844  0.00  0.00    -0.302 OA
ATOM     20  C   UNL d   1     -42.116-123.817 -49.166  0.00  0.00     0.123 A 
ATOM     21  C   UNL d   1     -41.294-123.759 -49.235  0.00  0.00     0.029 A 
ATOM     22  C   UNL d   1     -41.127-123.398 -49.954  0.00  0.00     0.030 A 
ENDBRANCH   6  18
BRANCH   3  23
ATOM     23  C   UNL d   1     -42.808-121.878 -50.373  0.00  0.00     0.085 C 
BRANCH  23  24
ATOM     24  C   UNL d   1     -43.628-121.883 -50.230  0.00  0.00     0.018 C 
ATOM     25  C   UNL d   1     -44.074-122.577 -50.396  0.00  0.00     0.002 C 
ATOM     26  C   UNL d   1     -44.007-121.207 -49.924  0.00  0.00     0.002 C 
ENDBRANCH  23  24
ENDBRANCH   3  23
TORSDOF 3
ENDMDL
MODEL 2
REMARK VINA RESULT:      10.2      1.092      3.881
REMARK  3 active torsions:
REMARK  status: ('A' for Active; 'I' for Inactive)
REMARK    1  A    between atoms: C_12  and  N_3 
REMARK    2  A    between atoms: C_11  and  C_6 
REMARK    3  A    between atoms: C_22  and  C_12 
ROOT
ATOM      1  C   UNL d   1     -42.598-122.311 -51.003  0.00  0.00     0.130 A 
ATOM      2  C   UNL d   1     -42.005-122.883 -51.048  0.00  0.00     0.157 A 
ATOM      3  N   UNL d   1     -42.573-122.172 -52.429  0.00  0.00    -0.256 N 
ATOM      4  C   UNL d   1     -42.878-121.960 -51.694  0.00  0.00     0.272 A 
ATOM      5  N   UNL d   1     -41.692-123.104 -51.781  0.00  0.00    -0.208 NA
ATOM      6  C   UNL d   1     -41.970-122.753 -52.472  0.00  0.00     0.175 A 
ATOM      7  C   UNL d   1     -42.907-122.095 -50.275  0.00  0.00     0.204 A 
ATOM      8  N   UNL d   1     -41.717-123.243 -50.359  0.00  0.00    -0.289 N 
ATOM      9  C   UNL d   1     -42.625-122.449 -49.584  0.00  0.00     0.055 A 
ATOM     10  C   UNL d   1     -42.032-123.022 -49.622  0.00  0.00     0.069 A 
ATOM     11  O   UNL d   1     -43.471-121.387 -51.656  0.00  0.00    -0.266 OA
ATOM     12  O   UNL d   1     -43.499-121.523 -50.234  0.00  0.00    -0.286 OA
ATOM     13  C   UNL d   1     -41.125-123.815 -50.397  0.00  0.00     0.101 C 
ATOM     14  C   UNL d   1     -42.938-122.228 -48.857  0.00  0.00     0.005 A 
ATOM     15  C   UNL d   1     -41.753-123.373 -48.932  0.00  0.00     0.018 A 
ATOM     16  C   UNL d   1     -42.660-122.579 -48.166  0.00  0.00     0.000 A 
ATOM     17  C   UNL d   1     -42.067-123.151 -48.204  0.00  0.00     0.002 A 
ENDROOT
BRANCH   6  18
ATOM     18  C   UNL d   1     -41.659-122.970 -53.212  0.00  0.00     0.135 A 
ATOM     19  O   UNL d   1     -41.635-123.767 -53.423  0.00  0.00    -0.302 OA
ATOM     20  C   UNL d   1     -41.303-123.817 -54.177  0.00  0.00     0.123 A 
ATOM     21  C   UNL d   1     -41.123-123.050 -54.431  0.00  0.00     0.029 A 
ATOM     22  C   UNL d   1     -41.344-122.529 -53.834  0.00  0.00     0.030 A 
ENDBRANCH   6  18
BRANCH   3  23
ATOM     23  C   UNL d   1     -42.855-121.817 -53.123  0.00  0.00     0.085 C 
BRANCH  23  24
ATOM     24  C   UNL d   1     -42.559-121.076 -53.361  0.00  0.00     0.018 C 
ATOM     25  C   UNL d   1     -42.838-120.726 -54.073  0.00  0.00     0.002 C 
ATOM     26  C   UNL d   1     -41.990-120.681 -52.898  0.00  0.00     0.002 C 
ENDBRANCH  23  24
ENDBRANCH   3  23
TORSDOF 3
ENDMDL
