MODEL 1
REMARK VINA RESULT:      -2.8      0.000      0.000
REMARK  5 active torsions:
REMARK  status: ('A' for Active; 'I' for Inactive)
REMARK    1  A    between atoms: C_8  and  C_1 
REMARK    2  A    between atoms: N_4  and  C_2 
REMARK       I    between atoms: C_6  and  N_4 
REMARK    3  A    between atoms: C_11  and  C_6 
REMARK    4  A    between atoms: O_12  and  C_8 
REMARK    5  A    between atoms: C_17  and  O_12 
ROOT
ATOM      1  C   UNL d   1      59.156  -1.380  29.008  0.00  0.00     0.181 A 
ATOM      2  C   UNL d   1      59.202  -0.877  29.668  0.00  0.00     0.115 A 
ATOM      3  O   UNL d   1      59.769  -1.161  28.494  0.00  0.00    -0.300 OA
ATOM      4  C   UNL d   1      59.830  -0.365  29.555  0.00  0.00     0.043 A 
ATOM      5  C   UNL d   1      60.183  -0.538  28.828  0.00  0.00     0.102 A 
ATOM      6  C   UNL d   1      60.131   0.245  30.023  0.00  0.00     0.004 A 
ATOM      7  C   UNL d   1      60.831  -0.106  28.574  0.00  0.00     0.025 A 
ATOM      8  C   UNL d   1      60.786   0.681  29.764  0.00  0.00     0.000 A 
ATOM      9  C   UNL d   1      61.133   0.500  29.035  0.00  0.00     0.002 A 
ENDROOT
BRANCH   2  10
ATOM     10  N   UNL d   1      58.694  -0.896  30.327  0.00  0.00    -0.206 NA
ATOM     11  C   UNL d   1      58.084  -0.346  30.389  0.00  0.00     0.279 C 
ATOM     12  O   UNL d   1      57.975   0.222  29.803  0.00  0.00    -0.265 OA
BRANCH  11  13
ATOM     13  C   UNL d   1      57.584  -0.366  31.041  0.00  0.00     0.058 A 
ATOM     14  C   UNL d   1      57.110  -1.038  31.185  0.00  0.00     0.005 A 
ATOM     15  C   UNL d   1      56.616  -1.055  31.830  0.00  0.00     0.000 A 
ATOM     16  C   UNL d   1      56.583  -0.408  32.340  0.00  0.00     0.000 A 
ATOM     17  C   UNL d   1      57.048   0.251  32.198  0.00  0.00     0.000 A 
ATOM     18  C   UNL d   1      57.554   0.270  31.538  0.00  0.00     0.005 A 
ENDBRANCH  11  13
ENDBRANCH   2  10
BRANCH   1  19
ATOM     19  C   UNL d   1      58.605  -1.982  28.888  0.00  0.00     0.325 C 
ATOM     20  O   UNL d   1      57.806  -1.794  28.773  0.00  0.00    -0.257 OA
BRANCH  19  21
ATOM     21  O   UNL d   1      58.850  -2.763  28.883  0.00  0.00    -0.269 OA
BRANCH  21  22
ATOM     22  C   UNL d   1      58.370  -3.347  28.537  0.00  0.00     0.126 C 
ATOM     23  C   UNL d   1      58.628  -4.136  28.526  0.00  0.00     0.029 C 
ENDBRANCH  21  22
ENDBRANCH  19  21
ENDBRANCH   1  19
TORSDOF 5
ENDMDL
MODEL 2
REMARK VINA RESULT:      -0.2      0.854      3.307
REMARK  5 active torsions:
REMARK  status: ('A' for Active; 'I' for Inactive)
REMARK    1  A    between atoms: C_8  and  C_1 
REMARK    2  A    between atoms: N_4  and  C_2 
REMARK       I    between atoms: C_6  and  N_4 
REMARK    3  A    between atoms: C_11  and  C_6 
REMARK    4  A    between atoms: O_12  and  C_8 
REMARK    5  A    between atoms: C_17  and  O_12 
ROOT
ATOM      1  C   UNL d   1      58.520  -0.562  30.097  0.00  0.00     0.181 A 
ATOM      2  C   UNL d   1      58.936  -0.997  29.522  0.00  0.00     0.115 A 
ATOM      3  O   UNL d   1      58.956   0.128  30.239  0.00  0.00    -0.300 OA
ATOM      4  C   UNL d   1      59.609  -0.577  29.322  0.00  0.00     0.043 A 
ATOM      5  C   UNL d   1      59.624   0.121  29.765  0.00  0.00     0.102 A 
ATOM      6  C   UNL d   1      60.217  -0.739  28.790  0.00  0.00     0.004 A 
ATOM      7  C   UNL d   1      60.243   0.650  29.675  0.00  0.00     0.025 A 
ATOM      8  C   UNL d   1      60.843  -0.202  28.700  0.00  0.00     0.000 A 
ATOM      9  C   UNL d   1      60.850   0.494  29.147  0.00  0.00     0.002 A 
ENDROOT
BRANCH   2  10
ATOM     10  N   UNL d   1      58.702  -1.731  29.209  0.00  0.00    -0.206 NA
ATOM     11  C   UNL d   1      59.115  -2.413  29.414  0.00  0.00     0.279 C 
ATOM     12  O   UNL d   1      59.758  -2.372  29.927  0.00  0.00    -0.265 OA
BRANCH  11  13
ATOM     13  C   UNL d   1      58.884  -3.138  29.103  0.00  0.00     0.058 A 
ATOM     14  C   UNL d   1      59.446  -3.747  28.997  0.00  0.00     0.005 A 
ATOM     15  C   UNL d   1      59.213  -4.463  28.690  0.00  0.00     0.000 A 
ATOM     16  C   UNL d   1      58.425  -4.586  28.484  0.00  0.00     0.000 A 
ATOM     17  C   UNL d   1      57.875  -3.989  28.588  0.00  0.00     0.000 A 
ATOM     18  C   UNL d   1      58.111  -3.255  28.902  0.00  0.00     0.005 A 
ENDBRANCH  11  13
ENDBRANCH   2  10
BRANCH   1  19
ATOM     19  C   UNL d   1      57.809  -0.778  30.456  0.00  0.00     0.325 C 
ATOM     20  O   UNL d   1      57.238  -1.194  30.022  0.00  0.00    -0.257 OA
BRANCH  19  21
ATOM     21  O   UNL d   1      57.672  -0.580  31.238  0.00  0.00    -0.269 OA
BRANCH  21  22
ATOM     22  C   UNL d   1      56.894  -0.453  31.503  0.00  0.00     0.126 C 
ATOM     23  C   UNL d   1      56.767  -0.143  32.263  0.00  0.00     0.029 C 
ENDBRANCH  21  22
ENDBRANCH  19  21
ENDBRANCH   1  19
TORSDOF 5
ENDMDL
