MODEL 1
REMARK VINA RESULT:      52.5      0.000      0.000
REMARK  6 active torsions:
REMARK  status: ('A' for Active; 'I' for Inactive)
REMARK    1  A    between atoms: C_5  and  C_1 
REMARK       I    between atoms: N_10  and  C_5 
REMARK    2  A    between atoms: C_9  and  C_6 
REMARK    3  A    between atoms: C_17  and  N_7 
REMARK    4  A    between atoms: O_23  and  C_8 
REMARK    5  A    between atoms: O_25  and  C_12 
REMARK    6  A    between atoms: C_18  and  C_17 
ROOT
ATOM      1  C   UNL d   1     -48.889  28.266  35.034  0.00  0.00     0.316 C 
ATOM      2  N   UNL d   1     -49.593  26.570  34.035  0.00  0.00    -0.143 NA
ATOM      3  N   UNL d   1     -49.174  27.711  34.026  0.00  0.00    -0.104 NA
ATOM      4  O   UNL d   1     -48.974  27.878  35.749  0.00  0.00    -0.262 OA
ENDROOT
BRANCH   1   5
ATOM      5  C   UNL d   1     -48.607  29.038  35.009  0.00  0.00     0.164 A 
ATOM      6  C   UNL d   1     -48.655  29.472  34.324  0.00  0.00     0.047 A 
ATOM      7  C   UNL d   1     -48.042  30.572  34.976  0.00  0.00     0.105 A 
ATOM      8  N   UNL d   1     -47.996  30.130  35.669  0.00  0.00    -0.148 NA
ATOM      9  N   UNL d   1     -48.274  29.371  35.688  0.00  0.00    -0.143 NA
BRANCH   7  10
ATOM     10  C   UNL d   1     -47.824  31.332  34.759  0.00  0.00     0.019 A 
ATOM     11  C   UNL d   1     -48.266  31.754  34.227  0.00  0.00     0.002 A 
ATOM     12  C   UNL d   1     -48.052  32.510  34.009  0.00  0.00     0.011 A 
ATOM     13  C   UNL d   1     -47.378  32.843  34.336  0.00  0.00     0.058 A 
ATOM     14  C   UNL d   1     -46.928  32.427  34.870  0.00  0.00     0.011 A 
ATOM     15 CL   UNL d   1     -47.156  33.604  34.121  0.00  0.00    -0.082 Cl
ATOM     16  C   UNL d   1     -47.146  31.667  35.088  0.00  0.00     0.002 A 
ENDBRANCH   7  10
ENDBRANCH   1   5
BRANCH   2  17
ATOM     17  C   UNL d   1     -49.795  26.177  33.316  0.00  0.00     0.122 C 
BRANCH  17  18
ATOM     18  C   UNL d   1     -50.377  25.503  33.314  0.00  0.00     0.023 A 
ATOM     19  C   UNL d   1     -51.259  25.677  33.313  0.00  0.00     0.028 A 
ATOM     20  C   UNL d   1     -51.844  24.994  33.311  0.00  0.00     0.116 A 
ATOM     21  C   UNL d   1     -51.551  24.143  33.310  0.00  0.00     0.116 A 
ATOM     22  C   UNL d   1     -50.676  23.981  33.311  0.00  0.00     0.026 A 
ATOM     23  C   UNL d   1     -50.081  24.661  33.313  0.00  0.00     0.004 A 
BRANCH  20  24
ATOM     24  O   UNL d   1     -52.725  25.168  33.310  0.00  0.00    -0.326 OA
ATOM     25  C   UNL d   1     -53.034  25.889  33.730  0.00  0.00     0.181 C 
ENDBRANCH  20  24
BRANCH  21  26
ATOM     26  O   UNL d   1     -52.141  23.472  33.308  0.00  0.00    -0.326 OA
ATOM     27  C   UNL d   1     -52.957  23.610  33.642  0.00  0.00     0.181 C 
ENDBRANCH  21  26
ENDBRANCH  17  18
ENDBRANCH   2  17
TORSDOF 6
ENDMDL
