MODEL 1
REMARK VINA RESULT:      42.4      0.000      0.000
REMARK  5 active torsions:
REMARK  status: ('A' for Active; 'I' for Inactive)
REMARK    1  A    between atoms: C_7  and  C_2 
REMARK    2  A    between atoms: C_9  and  C_4 
REMARK    3  A    between atoms: C_16  and  C_7 
REMARK    4  A    between atoms: N_8  and  C_9 
REMARK    5  A    between atoms: C_23  and  C_14 
ROOT
ATOM      1  C   UNL d   1      46.095 -17.633  43.920  0.00  0.00     0.108 A 
ATOM      2  C   UNL d   1      46.324 -16.309  43.961  0.00  0.00     0.139 A 
ATOM      3  O   UNL d   1      46.570 -17.026  43.611  0.00  0.00    -0.304 OA
ATOM      4  C   UNL d   1      46.083 -18.437  43.782  0.00  0.00     0.079 A 
ATOM      5  C   UNL d   1      45.561 -17.296  44.455  0.00  0.00     0.064 A 
ATOM      6  C   UNL d   1      45.705 -16.480  44.478  0.00  0.00     0.220 A 
ATOM      7  C   UNL d   1      45.016 -17.773  44.850  0.00  0.00     0.009 A 
ATOM      8  C   UNL d   1      45.539 -18.909  44.177  0.00  0.00     0.199 A 
ATOM      9  O   UNL d   1      45.293 -15.932  44.943  0.00  0.00    -0.284 OA
ATOM     10  C   UNL d   1      45.007 -18.578  44.709  0.00  0.00     0.042 A 
ATOM     11  O   UNL d   1      45.527 -19.722  44.037  0.00  0.00    -0.286 OA
ENDROOT
BRANCH   2  12
ATOM     12  C   UNL d   1      46.646 -15.563  43.813  0.00  0.00     0.028 C 
BRANCH  12  13
ATOM     13  C   UNL d   1      46.151 -14.913  43.697  0.00  0.00     0.002 A 
ATOM     14  C   UNL d   1      46.299 -14.384  43.080  0.00  0.00     0.000 A 
ATOM     15  C   UNL d   1      45.804 -13.734  42.963  0.00  0.00     0.000 A 
ATOM     16  C   UNL d   1      45.159 -13.615  43.465  0.00  0.00     0.000 A 
ATOM     17  C   UNL d   1      45.011 -14.144  44.081  0.00  0.00     0.000 A 
ATOM     18  C   UNL d   1      45.506 -14.794  44.198  0.00  0.00     0.000 A 
BRANCH  16  19
ATOM     19  C   UNL d   1      44.664 -12.966  43.348  0.00  0.00     0.000 C 
ATOM     20  C   UNL d   1      43.867 -13.009  43.560  0.00  0.00     0.000 C 
ATOM     21  C   UNL d   1      44.967 -12.268  43.017  0.00  0.00     0.000 C 
ENDBRANCH  16  19
ENDBRANCH  12  13
ENDBRANCH   2  12
BRANCH   4  22
ATOM     22  C   UNL d   1      46.608 -18.777  43.255  0.00  0.00     0.086 C 
BRANCH  22  23
ATOM     23  N   UNL d   1      46.503 -18.863  42.444  0.00  0.00    -0.300 N 
ATOM     24  C   UNL d   1      46.306 -19.594  42.132  0.00  0.00     0.100 A 
ATOM     25  C   UNL d   1      46.200 -19.686  41.327  0.00  0.00     0.100 A 
ATOM     26  N   UNL d   1      46.295 -19.036  40.836  0.00  0.00    -0.299 N 
ATOM     27  C   UNL d   1      46.493 -18.306  41.148  0.00  0.00     0.100 A 
ATOM     28  C   UNL d   1      46.192 -19.118  40.028  0.00  0.00     0.100 C 
ATOM     29  C   UNL d   1      46.595 -18.227  41.955  0.00  0.00     0.100 A 
ENDBRANCH  22  23
ENDBRANCH   4  22
TORSDOF 5
ENDMDL
