MODEL 1
REMARK VINA RESULT:      20.7      0.000      0.000
REMARK  4 active torsions:
REMARK  status: ('A' for Active; 'I' for Inactive)
REMARK    1  A    between atoms: C_2  and  N_1 
REMARK    2  A    between atoms: C_4  and  C_2 
REMARK    3  A    between atoms: C_10  and  C_4 
REMARK    4  A    between atoms: N_7  and  C_6 
ROOT
ATOM      1  C   UNL d   1     -58.538 -98.776 -44.365  0.00  0.00     0.064 A 
ATOM      2  C   UNL d   1     -58.141 -98.788 -43.641  0.00  0.00     0.018 A 
ATOM      3  C   UNL d   1     -58.113 -98.759 -45.072  0.00  0.00     0.018 A 
ATOM      4  C   UNL d   1     -56.892 -98.767 -44.340  0.00  0.00     0.002 A 
ATOM      5  C   UNL d   1     -57.291 -98.755 -45.061  0.00  0.00     0.002 A 
ATOM      6  C   UNL d   1     -57.317 -98.784 -43.629  0.00  0.00     0.002 A 
ENDROOT
BRANCH   4   7
ATOM      7  C   UNL d   1     -56.065 -98.763 -44.329  0.00  0.00     0.025 C 
BRANCH   7   8
ATOM      8  C   UNL d   1     -55.657 -99.459 -44.186  0.00  0.00     0.148 C 
BRANCH   8   9
ATOM      9  N   UNL d   1     -55.032 -99.671 -44.682  0.00  0.00    -0.112 N 
ATOM     10  O   UNL d   1     -54.752-100.436 -44.666  0.00  0.00    -0.532 OA
ATOM     11  O   UNL d   1     -54.713 -99.105 -45.175  0.00  0.00    -0.532 OA
ENDBRANCH   8   9
ENDBRANCH   7   8
ENDBRANCH   4   7
BRANCH   1  12
ATOM     12  N   UNL d   1     -59.369 -98.780 -44.367  0.00  0.00    -0.301 N 
ATOM     13  C   UNL d   1     -59.782 -98.756 -43.648  0.00  0.00     0.100 C 
ATOM     14  C   UNL d   1     -59.790 -98.808 -45.080  0.00  0.00     0.100 C 
ENDBRANCH   1  12
TORSDOF 4
ENDMDL
