MODEL 1
REMARK VINA RESULT:      21.5      0.000      0.000
REMARK  4 active torsions:
REMARK  status: ('A' for Active; 'I' for Inactive)
REMARK    1  A    between atoms: N_2  and  S_1 
REMARK    2  A    between atoms: C_7  and  S_1 
REMARK    3  A    between atoms: S_9  and  C_3 
REMARK    4  A    between atoms: C_13  and  S_9 
ROOT
ATOM      1  S   UNL d   1     -52.452  25.267  33.546  0.00  0.00     0.273 S 
ATOM      2  O   UNL d   1     -52.054  25.965  33.384  0.00  0.00    -0.200 OA
ATOM      3  O   UNL d   1     -53.035  25.856  33.563  0.00  0.00    -0.200 OA
ENDROOT
BRANCH   1   4
ATOM      4  N   UNL d   1     -51.721  24.878  33.476  0.00  0.00    -0.208 N 
ATOM      5  C   UNL d   1     -50.977  25.247  33.409  0.00  0.00     0.189 A 
ATOM      6  N   UNL d   1     -50.398  24.654  33.353  0.00  0.00    -0.219 NA
ATOM      7  C   UNL d   1     -50.787  23.920  33.386  0.00  0.00     0.121 A 
ATOM      8  C   UNL d   1     -51.600  24.052  33.462  0.00  0.00     0.114 A 
BRANCH   5   9
ATOM      9  S   UNL d   1     -50.839  26.068  33.399  0.00  0.00    -0.049 SA
BRANCH   9  10
ATOM     10  C   UNL d   1     -50.063  26.355  33.374  0.00  0.00     0.038 C 
ATOM     11  C   UNL d   1     -49.929  27.167  33.308  0.00  0.00     0.008 C 
ENDBRANCH   9  10
ENDBRANCH   5   9
ENDBRANCH   1   4
BRANCH   1  12
ATOM     12  C   UNL d   1     -52.870  24.571  33.711  0.00  0.00     0.104 A 
ATOM     13  C   UNL d   1     -52.682  23.882  33.307  0.00  0.00     0.013 A 
ATOM     14  C   UNL d   1     -53.098  23.190  33.472  0.00  0.00     0.001 A 
ATOM     15  C   UNL d   1     -53.698  23.194  34.038  0.00  0.00     0.000 A 
ATOM     16  C   UNL d   1     -53.882  23.886  34.440  0.00  0.00     0.001 A 
ATOM     17  C   UNL d   1     -53.461  24.581  34.272  0.00  0.00     0.013 A 
ENDBRANCH   1  12
TORSDOF 4
ENDMDL
