MODEL 1
REMARK VINA RESULT:      -7.0      0.000      0.000
REMARK  3 active torsions:
REMARK  status: ('A' for Active; 'I' for Inactive)
REMARK    1  A    between atoms: C_2  and  N_1 
REMARK    2  A    between atoms: O_14  and  C_5 
REMARK    3  A    between atoms: O_15  and  C_12 
ROOT
ATOM      1  C   UNL d   1     -48.378  12.556  22.716  0.00  0.00     0.092 A 
ATOM      2  C   UNL d   1     -47.822  13.145  22.823  0.00  0.00     0.112 A 
ATOM      3  C   UNL d   1     -47.086  12.962  23.150  0.00  0.00     0.050 A 
ATOM      4  C   UNL d   1     -48.218  11.780  22.931  0.00  0.00     0.022 A 
ATOM      5  C   UNL d   1     -46.923  12.183  23.367  0.00  0.00     0.096 A 
ATOM      6  C   UNL d   1     -47.490  11.592  23.256  0.00  0.00     0.026 A 
ENDROOT
BRANCH   1   7
ATOM      7  N   UNL d   1     -49.118  12.739  22.387  0.00  0.00    -0.240 N 
ATOM      8  C   UNL d   1     -49.309  12.768  21.588  0.00  0.00     0.267 A 
ATOM      9  C   UNL d   1     -50.096  12.970  21.514  0.00  0.00     0.066 A 
ATOM     10  O   UNL d   1     -48.786  12.616  20.963  0.00  0.00    -0.267 OA
ATOM     11  C   UNL d   1     -50.409  13.072  22.276  0.00  0.00     0.066 A 
ATOM     12  C   UNL d   1     -49.803  12.929  22.817  0.00  0.00     0.267 A 
ATOM     13  O   UNL d   1     -49.876  12.971  23.695  0.00  0.00    -0.267 OA
ENDBRANCH   1   7
BRANCH   2  14
ATOM     14  O   UNL d   1     -47.985  13.929  22.606  0.00  0.00    -0.327 OA
ATOM     15  C   UNL d   1     -47.424  14.523  22.731  0.00  0.00     0.181 C 
ENDBRANCH   2  14
BRANCH   5  16
ATOM     16  O   UNL d   1     -46.183  11.992  23.698  0.00  0.00    -0.328 OA
ATOM     17  C   UNL d   1     -45.914  11.210  23.698  0.00  0.00     0.181 C 
ENDBRANCH   5  16
TORSDOF 3
ENDMDL
MODEL 2
REMARK VINA RESULT:      -6.8      0.951      1.928
REMARK  3 active torsions:
REMARK  status: ('A' for Active; 'I' for Inactive)
REMARK    1  A    between atoms: C_2  and  N_1 
REMARK    2  A    between atoms: O_14  and  C_5 
REMARK    3  A    between atoms: O_15  and  C_12 
ROOT
ATOM      1  C   UNL d   1     -48.391  13.292  22.648  0.00  0.00     0.092 A 
ATOM      2  C   UNL d   1     -47.985  12.701  23.041  0.00  0.00     0.112 A 
ATOM      3  C   UNL d   1     -47.185  12.803  23.221  0.00  0.00     0.050 A 
ATOM      4  C   UNL d   1     -48.016  13.987  22.428  0.00  0.00     0.022 A 
ATOM      5  C   UNL d   1     -46.806  13.502  23.001  0.00  0.00     0.096 A 
ATOM      6  C   UNL d   1     -47.223  14.094  22.603  0.00  0.00     0.026 A 
ENDROOT
BRANCH   1   7
ATOM      7  N   UNL d   1     -49.195  13.191  22.466  0.00  0.00    -0.240 N 
ATOM      8  C   UNL d   1     -49.836  13.387  22.941  0.00  0.00     0.267 A 
ATOM      9  C   UNL d   1     -50.523  13.194  22.546  0.00  0.00     0.066 A 
ATOM     10  O   UNL d   1     -49.790  13.726  23.696  0.00  0.00    -0.267 OA
ATOM     11  C   UNL d   1     -50.316  12.871  21.810  0.00  0.00     0.066 A 
ATOM     12  C   UNL d   1     -49.493  12.869  21.761  0.00  0.00     0.267 A 
ATOM     13  O   UNL d   1     -49.019  12.575  21.078  0.00  0.00    -0.267 OA
ENDBRANCH   1   7
BRANCH   2  14
ATOM     14  O   UNL d   1     -48.365  11.999  23.264  0.00  0.00    -0.327 OA
ATOM     15  C   UNL d   1     -47.958  11.421  23.692  0.00  0.00     0.181 C 
ENDBRANCH   2  14
BRANCH   5  16
ATOM     16  O   UNL d   1     -46.000  13.609  23.179  0.00  0.00    -0.328 OA
ATOM     17  C   UNL d   1     -45.441  13.671  22.573  0.00  0.00     0.181 C 
ENDBRANCH   5  16
TORSDOF 3
ENDMDL
MODEL 3
REMARK VINA RESULT:      -6.8      1.160      2.896
REMARK  3 active torsions:
REMARK  status: ('A' for Active; 'I' for Inactive)
REMARK    1  A    between atoms: C_2  and  N_1 
REMARK    2  A    between atoms: O_14  and  C_5 
REMARK    3  A    between atoms: O_15  and  C_12 
ROOT
ATOM      1  C   UNL d   1     -48.141  12.849  22.961  0.00  0.00     0.092 A 
ATOM      2  C   UNL d   1     -48.515  12.665  22.258  0.00  0.00     0.112 A 
ATOM      3  C   UNL d   1     -49.224  12.241  22.268  0.00  0.00     0.050 A 
ATOM      4  C   UNL d   1     -48.460  12.619  23.681  0.00  0.00     0.022 A 
ATOM      5  C   UNL d   1     -49.546  12.009  22.991  0.00  0.00     0.096 A 
ATOM      6  C   UNL d   1     -49.163  12.199  23.698  0.00  0.00     0.026 A 
ENDROOT
BRANCH   1   7
ATOM      7  N   UNL d   1     -47.429  13.275  22.952  0.00  0.00    -0.240 N 
ATOM      8  C   UNL d   1     -46.668  12.964  22.953  0.00  0.00     0.267 A 
ATOM      9  C   UNL d   1     -46.134  13.580  22.942  0.00  0.00     0.066 A 
ATOM     10  O   UNL d   1     -46.478  12.157  22.965  0.00  0.00    -0.267 OA
ATOM     11  C   UNL d   1     -46.560  14.292  22.933  0.00  0.00     0.066 A 
ATOM     12  C   UNL d   1     -47.362  14.103  22.939  0.00  0.00     0.267 A 
ATOM     13  O   UNL d   1     -48.028  14.682  22.933  0.00  0.00    -0.267 OA
ENDBRANCH   1   7
BRANCH   2  14
ATOM     14  O   UNL d   1     -48.192  12.897  21.531  0.00  0.00    -0.327 OA
ATOM     15  C   UNL d   1     -48.560  12.681  20.822  0.00  0.00     0.181 C 
ENDBRANCH   2  14
BRANCH   5  16
ATOM     16  O   UNL d   1     -50.261  11.581  23.008  0.00  0.00    -0.328 OA
ATOM     17  C   UNL d   1     -50.861  11.791  23.537  0.00  0.00     0.181 C 
ENDBRANCH   5  16
TORSDOF 3
ENDMDL
