MODEL 1
REMARK VINA RESULT:      -3.7      0.000      0.000
REMARK  6 active torsions:
REMARK  status: ('A' for Active; 'I' for Inactive)
REMARK    1  A    between atoms: C_2  and  N_1 
REMARK    2  A    between atoms: C_6  and  C_2 
REMARK    3  A    between atoms: O_5  and  C_12 
REMARK    4  A    between atoms: C_11  and  O_5 
REMARK    5  A    between atoms: C_12  and  C_9 
REMARK    6  A    between atoms: C_10  and  C_11 
ROOT
ATOM      1  N   UNL d   1      31.170  16.990 -24.230  0.00  0.00    -0.302 N 
ATOM      2  C   UNL d   1      31.671  16.710 -23.634  0.00  0.00     0.080 A 
ATOM      3  C   UNL d   1      31.248  17.768 -24.503  0.00  0.00     0.080 A 
ATOM      4  C   UNL d   1      32.243  17.197 -23.312  0.00  0.00     0.021 A 
ATOM      5  C   UNL d   1      31.824  18.263 -24.181  0.00  0.00     0.021 A 
ATOM      6  C   UNL d   1      32.328  17.977 -23.580  0.00  0.00     0.028 A 
ENDROOT
BRANCH   6   7
ATOM      7  C   UNL d   1      32.904  18.471 -23.258  0.00  0.00     0.123 C 
BRANCH   7   8
ATOM      8  O   UNL d   1      32.680  19.118 -22.786  0.00  0.00    -0.303 OA
BRANCH   8   9
ATOM      9  C   UNL d   1      33.227  19.486 -22.303  0.00  0.00     0.123 C 
BRANCH   9  10
ATOM     10  C   UNL d   1      33.042  20.194 -21.928  0.00  0.00     0.025 A 
ATOM     11  C   UNL d   1      32.813  20.187 -21.140  0.00  0.00     0.002 A 
ATOM     12  C   UNL d   1      32.627  20.896 -20.765  0.00  0.00     0.000 A 
ATOM     13  C   UNL d   1      32.671  21.611 -21.178  0.00  0.00     0.000 A 
ATOM     14  C   UNL d   1      32.903  21.607 -21.972  0.00  0.00     0.000 A 
ATOM     15  C   UNL d   1      33.088  20.898 -22.347  0.00  0.00     0.002 A 
ENDBRANCH   9  10
ENDBRANCH   8   9
ENDBRANCH   7   8
ENDBRANCH   6   7
BRANCH   1  16
ATOM     16  C   UNL d   1      30.601  16.496 -24.546  0.00  0.00     0.080 C 
BRANCH  16  17
ATOM     17  C   UNL d   1      29.857  16.441 -24.194  0.00  0.00     0.018 A 
ATOM     18  C   UNL d   1      29.692  15.823 -23.663  0.00  0.00     0.002 A 
ATOM     19  C   UNL d   1      28.944  15.769 -23.310  0.00  0.00     0.000 A 
ATOM     20  C   UNL d   1      28.364  16.328 -23.487  0.00  0.00     0.000 A 
ATOM     21  C   UNL d   1      28.528  16.942 -24.015  0.00  0.00     0.000 A 
ATOM     22  C   UNL d   1      29.273  17.001 -24.370  0.00  0.00     0.002 A 
ENDBRANCH  16  17
ENDBRANCH   1  16
TORSDOF 6
ENDMDL
MODEL 2
REMARK VINA RESULT:      -3.6      0.714      1.509
REMARK  6 active torsions:
REMARK  status: ('A' for Active; 'I' for Inactive)
REMARK    1  A    between atoms: C_2  and  N_1 
REMARK    2  A    between atoms: C_6  and  C_2 
REMARK    3  A    between atoms: O_5  and  C_12 
REMARK    4  A    between atoms: C_11  and  O_5 
REMARK    5  A    between atoms: C_12  and  C_9 
REMARK    6  A    between atoms: C_10  and  C_11 
ROOT
ATOM      1  N   UNL d   1      32.062  17.656 -24.068  0.00  0.00    -0.302 N 
ATOM      2  C   UNL d   1      32.191  18.419 -24.361  0.00  0.00     0.080 A 
ATOM      3  C   UNL d   1      32.328  17.454 -23.310  0.00  0.00     0.080 A 
ATOM      4  C   UNL d   1      32.579  18.976 -23.906  0.00  0.00     0.021 A 
ATOM      5  C   UNL d   1      32.720  18.013 -22.848  0.00  0.00     0.021 A 
ATOM      6  C   UNL d   1      32.848  18.782 -23.146  0.00  0.00     0.028 A 
ENDROOT
BRANCH   6   7
ATOM      7  C   UNL d   1      33.240  19.342 -22.684  0.00  0.00     0.123 C 
BRANCH   7   8
ATOM      8  O   UNL d   1      32.808  19.929 -22.285  0.00  0.00    -0.303 OA
BRANCH   8   9
ATOM      9  C   UNL d   1      33.140  20.332 -21.656  0.00  0.00     0.123 C 
BRANCH   9  10
ATOM     10  C   UNL d   1      32.822  21.048 -21.406  0.00  0.00     0.025 A 
ATOM     11  C   UNL d   1      33.203  21.749 -21.599  0.00  0.00     0.002 A 
ATOM     12  C   UNL d   1      32.885  22.466 -21.349  0.00  0.00     0.000 A 
ATOM     13  C   UNL d   1      32.187  22.480 -20.906  0.00  0.00     0.000 A 
ATOM     14  C   UNL d   1      31.811  21.768 -20.717  0.00  0.00     0.000 A 
ATOM     15  C   UNL d   1      32.129  21.052 -20.967  0.00  0.00     0.002 A 
ENDBRANCH   9  10
ENDBRANCH   8   9
ENDBRANCH   7   8
ENDBRANCH   6   7
BRANCH   1  16
ATOM     16  C   UNL d   1      31.673  17.106 -24.530  0.00  0.00     0.080 C 
BRANCH  16  17
ATOM     17  C   UNL d   1      30.859  17.000 -24.454  0.00  0.00     0.018 A 
ATOM     18  C   UNL d   1      30.336  17.439 -24.929  0.00  0.00     0.002 A 
ATOM     19  C   UNL d   1      29.518  17.332 -24.851  0.00  0.00     0.000 A 
ATOM     20  C   UNL d   1      29.223  16.790 -24.303  0.00  0.00     0.000 A 
ATOM     21  C   UNL d   1      29.743  16.355 -23.831  0.00  0.00     0.000 A 
ATOM     22  C   UNL d   1      30.560  16.457 -23.904  0.00  0.00     0.002 A 
ENDBRANCH  16  17
ENDBRANCH   1  16
TORSDOF 6
ENDMDL
MODEL 3
REMARK VINA RESULT:      -2.8      0.740      1.445
REMARK  6 active torsions:
REMARK  status: ('A' for Active; 'I' for Inactive)
REMARK    1  A    between atoms: C_2  and  N_1 
REMARK    2  A    between atoms: C_6  and  C_2 
REMARK    3  A    between atoms: O_5  and  C_12 
REMARK    4  A    between atoms: C_11  and  O_5 
REMARK    5  A    between atoms: C_12  and  C_9 
REMARK    6  A    between atoms: C_10  and  C_11 
ROOT
ATOM      1  N   UNL d   1      30.376  16.606 -24.524  0.00  0.00    -0.302 N 
ATOM      2  C   UNL d   1      30.607  17.377 -24.712  0.00  0.00     0.080 A 
ATOM      3  C   UNL d   1      30.866  16.130 -24.056  0.00  0.00     0.080 A 
ATOM      4  C   UNL d   1      31.318  17.673 -24.438  0.00  0.00     0.021 A 
ATOM      5  C   UNL d   1      31.584  16.425 -23.777  0.00  0.00     0.021 A 
ATOM      6  C   UNL d   1      31.815  17.204 -23.969  0.00  0.00     0.028 A 
ENDROOT
BRANCH   6   7
ATOM      7  C   UNL d   1      32.533  17.499 -23.691  0.00  0.00     0.123 C 
BRANCH   7   8
ATOM      8  O   UNL d   1      32.584  18.284 -23.424  0.00  0.00    -0.303 OA
BRANCH   8   9
ATOM      9  C   UNL d   1      33.200  18.517 -22.939  0.00  0.00     0.123 C 
BRANCH   9  10
ATOM     10  C   UNL d   1      33.213  19.272 -22.615  0.00  0.00     0.025 A 
ATOM     11  C   UNL d   1      33.209  19.926 -23.112  0.00  0.00     0.002 A 
ATOM     12  C   UNL d   1      33.221  20.682 -22.788  0.00  0.00     0.000 A 
ATOM     13  C   UNL d   1      33.237  20.784 -21.967  0.00  0.00     0.000 A 
ATOM     14  C   UNL d   1      33.241  20.120 -21.475  0.00  0.00     0.000 A 
ATOM     15  C   UNL d   1      33.228  19.363 -21.799  0.00  0.00     0.002 A 
ENDBRANCH   9  10
ENDBRANCH   8   9
ENDBRANCH   7   8
ENDBRANCH   6   7
BRANCH   1  16
ATOM     16  C   UNL d   1      29.663  16.317 -24.801  0.00  0.00     0.080 C 
BRANCH  16  17
ATOM     17  C   UNL d   1      29.014  16.255 -24.296  0.00  0.00     0.018 A 
ATOM     18  C   UNL d   1      28.698  16.936 -23.939  0.00  0.00     0.002 A 
ATOM     19  C   UNL d   1      28.046  16.872 -23.431  0.00  0.00     0.000 A 
ATOM     20  C   UNL d   1      27.712  16.133 -23.280  0.00  0.00     0.000 A 
ATOM     21  C   UNL d   1      28.026  15.456 -23.635  0.00  0.00     0.000 A 
ATOM     22  C   UNL d   1      28.677  15.514 -24.143  0.00  0.00     0.002 A 
ENDBRANCH  16  17
ENDBRANCH   1  16
TORSDOF 6
ENDMDL
MODEL 4
REMARK VINA RESULT:      -2.4      1.434      5.461
REMARK  6 active torsions:
REMARK  status: ('A' for Active; 'I' for Inactive)
REMARK    1  A    between atoms: C_2  and  N_1 
REMARK    2  A    between atoms: C_6  and  C_2 
REMARK    3  A    between atoms: O_5  and  C_12 
REMARK    4  A    between atoms: C_11  and  O_5 
REMARK    5  A    between atoms: C_12  and  C_9 
REMARK    6  A    between atoms: C_10  and  C_11 
ROOT
ATOM      1  N   UNL d   1      33.177  20.918 -21.766  0.00  0.00    -0.302 N 
ATOM      2  C   UNL d   1      33.097  20.139 -21.500  0.00  0.00     0.080 A 
ATOM      3  C   UNL d   1      33.216  21.074 -22.579  0.00  0.00     0.080 A 
ATOM      4  C   UNL d   1      33.055  19.522 -22.034  0.00  0.00     0.021 A 
ATOM      5  C   UNL d   1      33.174  20.455 -23.121  0.00  0.00     0.021 A 
ATOM      6  C   UNL d   1      33.093  19.669 -22.849  0.00  0.00     0.028 A 
ENDROOT
BRANCH   6   7
ATOM      7  C   UNL d   1      33.052  19.050 -23.391  0.00  0.00     0.123 C 
BRANCH   7   8
ATOM      8  O   UNL d   1      32.362  18.590 -23.446  0.00  0.00    -0.303 OA
BRANCH   8   9
ATOM      9  C   UNL d   1      32.360  17.897 -23.880  0.00  0.00     0.123 C 
BRANCH   9  10
ATOM     10  C   UNL d   1      31.661  17.477 -23.990  0.00  0.00     0.025 A 
ATOM     11  C   UNL d   1      31.104  17.751 -24.527  0.00  0.00     0.002 A 
ATOM     12  C   UNL d   1      30.406  17.331 -24.637  0.00  0.00     0.000 A 
ATOM     13  C   UNL d   1      30.264  16.637 -24.210  0.00  0.00     0.000 A 
ATOM     14  C   UNL d   1      30.832  16.369 -23.671  0.00  0.00     0.000 A 
ATOM     15  C   UNL d   1      31.531  16.790 -23.561  0.00  0.00     0.002 A 
ENDBRANCH   9  10
ENDBRANCH   8   9
ENDBRANCH   7   8
ENDBRANCH   6   7
BRANCH   1  16
ATOM     16  C   UNL d   1      33.218  21.529 -21.225  0.00  0.00     0.080 C 
BRANCH  16  17
ATOM     17  C   UNL d   1      32.796  22.226 -21.353  0.00  0.00     0.018 A 
ATOM     18  C   UNL d   1      33.052  22.767 -21.929  0.00  0.00     0.002 A 
ATOM     19  C   UNL d   1      32.628  23.468 -22.057  0.00  0.00     0.000 A 
ATOM     20  C   UNL d   1      31.952  23.627 -21.612  0.00  0.00     0.000 A 
ATOM     21  C   UNL d   1      31.697  23.089 -21.039  0.00  0.00     0.000 A 
ATOM     22  C   UNL d   1      32.117  22.388 -20.907  0.00  0.00     0.002 A 
ENDBRANCH  16  17
ENDBRANCH   1  16
TORSDOF 6
ENDMDL
MODEL 5
REMARK VINA RESULT:      -2.2      1.353      5.313
REMARK  6 active torsions:
REMARK  status: ('A' for Active; 'I' for Inactive)
REMARK    1  A    between atoms: C_2  and  N_1 
REMARK    2  A    between atoms: C_6  and  C_2 
REMARK    3  A    between atoms: O_5  and  C_12 
REMARK    4  A    between atoms: C_11  and  O_5 
REMARK    5  A    between atoms: C_12  and  C_9 
REMARK    6  A    between atoms: C_10  and  C_11 
ROOT
ATOM      1  N   UNL d   1      33.136  20.285 -21.701  0.00  0.00    -0.302 N 
ATOM      2  C   UNL d   1      33.229  20.548 -22.479  0.00  0.00     0.080 A 
ATOM      3  C   UNL d   1      32.944  19.493 -21.553  0.00  0.00     0.080 A 
ATOM      4  C   UNL d   1      33.133  20.031 -23.104  0.00  0.00     0.021 A 
ATOM      5  C   UNL d   1      32.846  18.967 -22.181  0.00  0.00     0.021 A 
ATOM      6  C   UNL d   1      32.941  19.237 -22.965  0.00  0.00     0.028 A 
ENDROOT
BRANCH   6   7
ATOM      7  C   UNL d   1      32.844  18.711 -23.594  0.00  0.00     0.123 C 
BRANCH   7   8
ATOM      8  O   UNL d   1      32.109  18.344 -23.718  0.00  0.00    -0.303 OA
BRANCH   8   9
ATOM      9  C   UNL d   1      32.019  17.789 -24.312  0.00  0.00     0.123 C 
BRANCH   9  10
ATOM     10  C   UNL d   1      31.300  17.405 -24.417  0.00  0.00     0.025 A 
ATOM     11  C   UNL d   1      31.188  16.660 -24.092  0.00  0.00     0.002 A 
ATOM     12  C   UNL d   1      30.468  16.275 -24.197  0.00  0.00     0.000 A 
ATOM     13  C   UNL d   1      29.861  16.636 -24.628  0.00  0.00     0.000 A 
ATOM     14  C   UNL d   1      29.984  17.387 -24.952  0.00  0.00     0.000 A 
ATOM     15  C   UNL d   1      30.704  17.771 -24.846  0.00  0.00     0.002 A 
ENDBRANCH   9  10
ENDBRANCH   8   9
ENDBRANCH   7   8
ENDBRANCH   6   7
BRANCH   1  16
ATOM     16  C   UNL d   1      33.233  20.809 -21.081  0.00  0.00     0.080 C 
BRANCH  16  17
ATOM     17  C   UNL d   1      32.818  21.522 -21.071  0.00  0.00     0.018 A 
ATOM     18  C   UNL d   1      32.028  21.539 -20.813  0.00  0.00     0.002 A 
ATOM     19  C   UNL d   1      31.612  22.256 -20.803  0.00  0.00     0.000 A 
ATOM     20  C   UNL d   1      31.982  22.951 -21.048  0.00  0.00     0.000 A 
ATOM     21  C   UNL d   1      32.768  22.934 -21.304  0.00  0.00     0.000 A 
ATOM     22  C   UNL d   1      33.188  22.221 -21.316  0.00  0.00     0.002 A 
ENDBRANCH  16  17
ENDBRANCH   1  16
TORSDOF 6
ENDMDL
MODEL 6
REMARK VINA RESULT:      -1.6      1.539      2.677
REMARK  6 active torsions:
REMARK  status: ('A' for Active; 'I' for Inactive)
REMARK    1  A    between atoms: C_2  and  N_1 
REMARK    2  A    between atoms: C_6  and  C_2 
REMARK    3  A    between atoms: O_5  and  C_12 
REMARK    4  A    between atoms: C_11  and  O_5 
REMARK    5  A    between atoms: C_12  and  C_9 
REMARK    6  A    between atoms: C_10  and  C_11 
ROOT
ATOM      1  N   UNL d   1      33.175  18.757 -23.862  0.00  0.00    -0.302 N 
ATOM      2  C   UNL d   1      33.156  19.348 -24.440  0.00  0.00     0.080 A 
ATOM      3  C   UNL d   1      33.215  18.965 -23.061  0.00  0.00     0.080 A 
ATOM      4  C   UNL d   1      33.177  20.136 -24.226  0.00  0.00     0.021 A 
ATOM      5  C   UNL d   1      33.237  19.759 -22.841  0.00  0.00     0.021 A 
ATOM      6  C   UNL d   1      33.218  20.353 -23.428  0.00  0.00     0.028 A 
ENDROOT
BRANCH   6   7
ATOM      7  C   UNL d   1      33.239  21.147 -23.208  0.00  0.00     0.123 C 
BRANCH   7   8
ATOM      8  O   UNL d   1      32.875  21.394 -22.502  0.00  0.00    -0.303 OA
BRANCH   8   9
ATOM      9  C   UNL d   1      33.079  22.107 -22.159  0.00  0.00     0.123 C 
BRANCH   9  10
ATOM     10  C   UNL d   1      32.646  22.403 -21.525  0.00  0.00     0.025 A 
ATOM     11  C   UNL d   1      32.560  21.949 -20.847  0.00  0.00     0.002 A 
ATOM     12  C   UNL d   1      32.127  22.245 -20.213  0.00  0.00     0.000 A 
ATOM     13  C   UNL d   1      31.780  22.995 -20.258  0.00  0.00     0.000 A 
ATOM     14  C   UNL d   1      31.873  23.444 -20.946  0.00  0.00     0.000 A 
ATOM     15  C   UNL d   1      32.306  23.148 -21.580  0.00  0.00     0.002 A 
ENDBRANCH   9  10
ENDBRANCH   8   9
ENDBRANCH   7   8
ENDBRANCH   6   7
BRANCH   1  16
ATOM     16  C   UNL d   1      33.153  17.971 -24.084  0.00  0.00     0.080 C 
BRANCH  16  17
ATOM     17  C   UNL d   1      32.504  17.501 -23.889  0.00  0.00     0.018 A 
ATOM     18  C   UNL d   1      31.824  17.511 -24.368  0.00  0.00     0.002 A 
ATOM     19  C   UNL d   1      31.172  17.039 -24.171  0.00  0.00     0.000 A 
ATOM     20  C   UNL d   1      31.199  16.560 -23.499  0.00  0.00     0.000 A 
ATOM     21  C   UNL d   1      31.874  16.550 -23.023  0.00  0.00     0.000 A 
ATOM     22  C   UNL d   1      32.527  17.020 -23.216  0.00  0.00     0.002 A 
ENDBRANCH  16  17
ENDBRANCH   1  16
TORSDOF 6
ENDMDL
MODEL 7
REMARK VINA RESULT:      -0.8      1.549      5.485
REMARK  6 active torsions:
REMARK  status: ('A' for Active; 'I' for Inactive)
REMARK    1  A    between atoms: C_2  and  N_1 
REMARK    2  A    between atoms: C_6  and  C_2 
REMARK    3  A    between atoms: O_5  and  C_12 
REMARK    4  A    between atoms: C_11  and  O_5 
REMARK    5  A    between atoms: C_12  and  C_9 
REMARK    6  A    between atoms: C_10  and  C_11 
ROOT
ATOM      1  N   UNL d   1      33.235  21.275 -22.043  0.00  0.00    -0.302 N 
ATOM      2  C   UNL d   1      33.226  21.006 -22.825  0.00  0.00     0.080 A 
ATOM      3  C   UNL d   1      33.237  20.731 -21.419  0.00  0.00     0.080 A 
ATOM      4  C   UNL d   1      33.220  20.205 -22.986  0.00  0.00     0.021 A 
ATOM      5  C   UNL d   1      33.231  19.922 -21.576  0.00  0.00     0.021 A 
ATOM      6  C   UNL d   1      33.222  19.653 -22.367  0.00  0.00     0.028 A 
ENDROOT
BRANCH   6   7
ATOM      7  C   UNL d   1      33.216  18.844 -22.525  0.00  0.00     0.123 C 
BRANCH   7   8
ATOM      8  O   UNL d   1      32.604  18.513 -22.980  0.00  0.00    -0.303 OA
BRANCH   8   9
ATOM      9  C   UNL d   1      32.651  17.739 -23.237  0.00  0.00     0.123 C 
BRANCH   9  10
ATOM     10  C   UNL d   1      31.997  17.370 -23.571  0.00  0.00     0.025 A 
ATOM     11  C   UNL d   1      31.807  16.603 -23.350  0.00  0.00     0.002 A 
ATOM     12  C   UNL d   1      31.152  16.234 -23.684  0.00  0.00     0.000 A 
ATOM     13  C   UNL d   1      30.687  16.633 -24.240  0.00  0.00     0.000 A 
ATOM     14  C   UNL d   1      30.886  17.406 -24.456  0.00  0.00     0.000 A 
ATOM     15  C   UNL d   1      31.541  17.775 -24.122  0.00  0.00     0.002 A 
ENDBRANCH   9  10
ENDBRANCH   8   9
ENDBRANCH   7   8
ENDBRANCH   6   7
BRANCH   1  16
ATOM     16  C   UNL d   1      33.241  22.079 -21.892  0.00  0.00     0.080 C 
BRANCH  16  17
ATOM     17  C   UNL d   1      32.824  22.384 -21.249  0.00  0.00     0.018 A 
ATOM     18  C   UNL d   1      33.194  22.453 -20.508  0.00  0.00     0.002 A 
ATOM     19  C   UNL d   1      32.773  22.759 -19.862  0.00  0.00     0.000 A 
ATOM     20  C   UNL d   1      31.988  22.995 -19.957  0.00  0.00     0.000 A 
ATOM     21  C   UNL d   1      31.621  22.926 -20.693  0.00  0.00     0.000 A 
ATOM     22  C   UNL d   1      32.036  22.621 -21.341  0.00  0.00     0.002 A 
ENDBRANCH  16  17
ENDBRANCH   1  16
TORSDOF 6
ENDMDL
