MODEL 1
REMARK VINA RESULT:      -8.0      0.000      0.000
REMARK  0 active torsions:
REMARK  status: ('A' for Active; 'I' for Inactive)
ROOT
ATOM      1  N   UNL d   1     -48.387  13.806  22.970  0.00  0.00    -0.242 NA
ATOM      2  N   UNL d   1     -47.846  12.293  23.276  0.00  0.00    -0.242 NA
ATOM      3  C   UNL d   1     -48.661  12.455  23.307  0.00  0.00     0.101 A 
ATOM      4  C   UNL d   1     -48.929  13.205  23.155  0.00  0.00     0.101 A 
ATOM      5  C   UNL d   1     -49.183  11.858  23.489  0.00  0.00     0.043 A 
ATOM      6  C   UNL d   1     -49.727  13.379  23.181  0.00  0.00     0.043 A 
ATOM      7  C   UNL d   1     -50.272  12.786  23.365  0.00  0.00     0.124 A 
ATOM      8  C   UNL d   1     -49.998  12.020  23.520  0.00  0.00     0.124 A 
ATOM      9  C   UNL d   1     -47.311  12.895  23.092  0.00  0.00     0.099 A 
ATOM     10  C   UNL d   1     -47.579  13.644  22.940  0.00  0.00     0.099 A 
ATOM     11  N   UNL d   1     -51.064  12.944  23.394  0.00  0.00    -0.146 N 
ATOM     12  N   UNL d   1     -50.512  11.440  23.698  0.00  0.00    -0.146 N 
ATOM     13  C   UNL d   1     -47.044  14.243  22.756  0.00  0.00     0.021 A 
ATOM     14  C   UNL d   1     -46.503  12.730  23.062  0.00  0.00     0.021 A 
ATOM     15  C   UNL d   1     -45.962  13.334  22.877  0.00  0.00     0.002 A 
ATOM     16  C   UNL d   1     -46.230  14.083  22.725  0.00  0.00     0.002 A 
ENDROOT
TORSDOF 0
ENDMDL
MODEL 2
REMARK VINA RESULT:      -7.9      1.077      3.268
REMARK  0 active torsions:
REMARK  status: ('A' for Active; 'I' for Inactive)
ROOT
ATOM      1  N   UNL d   1     -48.748  13.089  22.995  0.00  0.00    -0.242 NA
ATOM      2  N   UNL d   1     -48.916  11.618  23.691  0.00  0.00    -0.242 NA
ATOM      3  C   UNL d   1     -48.157  11.910  23.518  0.00  0.00     0.101 A 
ATOM      4  C   UNL d   1     -48.074  12.638  23.173  0.00  0.00     0.101 A 
ATOM      5  C   UNL d   1     -47.502  11.459  23.697  0.00  0.00     0.043 A 
ATOM      6  C   UNL d   1     -47.334  12.938  22.997  0.00  0.00     0.043 A 
ATOM      7  C   UNL d   1     -46.659  12.496  23.171  0.00  0.00     0.124 A 
ATOM      8  C   UNL d   1     -46.743  11.751  23.523  0.00  0.00     0.124 A 
ATOM      9  C   UNL d   1     -49.584  12.070  23.512  0.00  0.00     0.099 A 
ATOM     10  C   UNL d   1     -49.501  12.798  23.168  0.00  0.00     0.099 A 
ATOM     11  N   UNL d   1     -45.921  12.780  23.002  0.00  0.00    -0.146 N 
ATOM     12  N   UNL d   1     -46.102  11.315  23.696  0.00  0.00    -0.146 N 
ATOM     13  C   UNL d   1     -50.168  13.248  22.990  0.00  0.00     0.021 A 
ATOM     14  C   UNL d   1     -50.336  11.777  23.686  0.00  0.00     0.021 A 
ATOM     15  C   UNL d   1     -51.010  12.229  23.507  0.00  0.00     0.002 A 
ATOM     16  C   UNL d   1     -50.927  12.958  23.162  0.00  0.00     0.002 A 
ENDROOT
TORSDOF 0
ENDMDL
MODEL 3
REMARK VINA RESULT:      -7.9      0.932      3.510
REMARK  0 active torsions:
REMARK  status: ('A' for Active; 'I' for Inactive)
ROOT
ATOM      1  N   UNL d   1     -48.659  11.990  23.449  0.00  0.00    -0.242 NA
ATOM      2  N   UNL d   1     -49.004  13.552  23.108  0.00  0.00    -0.242 NA
ATOM      3  C   UNL d   1     -48.214  13.291  23.101  0.00  0.00     0.101 A 
ATOM      4  C   UNL d   1     -48.043  12.518  23.269  0.00  0.00     0.101 A 
ATOM      5  C   UNL d   1     -47.619  13.818  22.923  0.00  0.00     0.043 A 
ATOM      6  C   UNL d   1     -47.272  12.247  23.266  0.00  0.00     0.043 A 
ATOM      7  C   UNL d   1     -46.655  12.766  23.088  0.00  0.00     0.124 A 
ATOM      8  C   UNL d   1     -46.830  13.557  22.915  0.00  0.00     0.124 A 
ATOM      9  C   UNL d   1     -49.613  13.023  23.287  0.00  0.00     0.099 A 
ATOM     10  C   UNL d   1     -49.442  12.250  23.456  0.00  0.00     0.099 A 
ATOM     11  N   UNL d   1     -45.887  12.512  23.081  0.00  0.00    -0.146 N 
ATOM     12  N   UNL d   1     -46.245  14.067  22.743  0.00  0.00    -0.146 N 
ATOM     13  C   UNL d   1     -50.050  11.723  23.635  0.00  0.00     0.021 A 
ATOM     14  C   UNL d   1     -50.395  13.285  23.294  0.00  0.00     0.021 A 
ATOM     15  C   UNL d   1     -51.010  12.755  23.474  0.00  0.00     0.002 A 
ATOM     16  C   UNL d   1     -50.839  11.982  23.643  0.00  0.00     0.002 A 
ENDROOT
TORSDOF 0
ENDMDL
MODEL 4
REMARK VINA RESULT:      -7.8      1.182      2.160
REMARK  0 active torsions:
REMARK  status: ('A' for Active; 'I' for Inactive)
ROOT
ATOM      1  N   UNL d   1     -48.701  12.557  23.358  0.00  0.00    -0.242 NA
ATOM      2  N   UNL d   1     -47.470  13.594  23.065  0.00  0.00    -0.242 NA
ATOM      3  C   UNL d   1     -48.256  13.856  23.000  0.00  0.00     0.101 A 
ATOM      4  C   UNL d   1     -48.865  13.343  23.145  0.00  0.00     0.101 A 
ATOM      5  C   UNL d   1     -48.406  14.629  22.791  0.00  0.00     0.043 A 
ATOM      6  C   UNL d   1     -49.644  13.586  23.086  0.00  0.00     0.043 A 
ATOM      7  C   UNL d   1     -49.815  14.367  22.875  0.00  0.00     0.124 A 
ATOM      8  C   UNL d   1     -49.192  14.891  22.727  0.00  0.00     0.124 A 
ATOM      9  C   UNL d   1     -47.311  12.811  23.277  0.00  0.00     0.099 A 
ATOM     10  C   UNL d   1     -47.920  12.298  23.422  0.00  0.00     0.099 A 
ATOM     11  N   UNL d   1     -50.580  14.621  22.812  0.00  0.00    -0.146 N 
ATOM     12  N   UNL d   1     -49.343  15.644  22.523  0.00  0.00    -0.146 N 
ATOM     13  C   UNL d   1     -47.760  11.517  23.633  0.00  0.00     0.021 A 
ATOM     14  C   UNL d   1     -46.529  12.554  23.340  0.00  0.00     0.021 A 
ATOM     15  C   UNL d   1     -46.366  11.767  23.553  0.00  0.00     0.002 A 
ATOM     16  C   UNL d   1     -46.976  11.253  23.698  0.00  0.00     0.002 A 
ENDROOT
TORSDOF 0
ENDMDL
MODEL 5
REMARK VINA RESULT:      -7.8      1.292      2.959
REMARK  0 active torsions:
REMARK  status: ('A' for Active; 'I' for Inactive)
ROOT
ATOM      1  N   UNL d   1     -48.886  13.166  23.220  0.00  0.00    -0.242 NA
ATOM      2  N   UNL d   1     -47.645  14.156  22.825  0.00  0.00    -0.242 NA
ATOM      3  C   UNL d   1     -47.493  13.369  23.046  0.00  0.00     0.101 A 
ATOM      4  C   UNL d   1     -48.107  12.879  23.241  0.00  0.00     0.101 A 
ATOM      5  C   UNL d   1     -46.725  13.099  23.063  0.00  0.00     0.043 A 
ATOM      6  C   UNL d   1     -47.973  12.103  23.460  0.00  0.00     0.043 A 
ATOM      7  C   UNL d   1     -47.200  11.810  23.483  0.00  0.00     0.124 A 
ATOM      8  C   UNL d   1     -46.572  12.312  23.284  0.00  0.00     0.124 A 
ATOM      9  C   UNL d   1     -48.422  14.438  22.805  0.00  0.00     0.099 A 
ATOM     10  C   UNL d   1     -49.036  13.947  23.001  0.00  0.00     0.099 A 
ATOM     11  N   UNL d   1     -47.052  11.045  23.698  0.00  0.00    -0.146 N 
ATOM     12  N   UNL d   1     -45.824  12.043  23.302  0.00  0.00    -0.146 N 
ATOM     13  C   UNL d   1     -49.811  14.228  22.980  0.00  0.00     0.021 A 
ATOM     14  C   UNL d   1     -48.570  15.219  22.586  0.00  0.00     0.021 A 
ATOM     15  C   UNL d   1     -49.351  15.505  22.565  0.00  0.00     0.002 A 
ATOM     16  C   UNL d   1     -49.965  15.014  22.760  0.00  0.00     0.002 A 
ENDROOT
TORSDOF 0
ENDMDL
MODEL 6
REMARK VINA RESULT:      -6.1      2.052      3.235
REMARK  0 active torsions:
REMARK  status: ('A' for Active; 'I' for Inactive)
ROOT
ATOM      1  N   UNL d   1     -45.149  12.248  22.925  0.00  0.00    -0.242 NA
ATOM      2  N   UNL d   1     -46.095  11.099  23.603  0.00  0.00    -0.242 NA
ATOM      3  C   UNL d   1     -46.421  11.836  23.398  0.00  0.00     0.101 A 
ATOM      4  C   UNL d   1     -45.953  12.405  23.062  0.00  0.00     0.101 A 
ATOM      5  C   UNL d   1     -47.210  11.979  23.537  0.00  0.00     0.043 A 
ATOM      6  C   UNL d   1     -46.259  13.134  22.855  0.00  0.00     0.043 A 
ATOM      7  C   UNL d   1     -47.057  13.297  22.988  0.00  0.00     0.124 A 
ATOM      8  C   UNL d   1     -47.536  12.715  23.332  0.00  0.00     0.124 A 
ATOM      9  C   UNL d   1     -45.295  10.947  23.465  0.00  0.00     0.099 A 
ATOM     10  C   UNL d   1     -44.826  11.516  23.129  0.00  0.00     0.099 A 
ATOM     11  N   UNL d   1     -47.374  14.014  22.789  0.00  0.00    -0.146 N 
ATOM     12  N   UNL d   1     -48.307  12.859  23.466  0.00  0.00    -0.146 N 
ATOM     13  C   UNL d   1     -44.028  11.364  22.991  0.00  0.00     0.021 A 
ATOM     14  C   UNL d   1     -44.974  10.215  23.669  0.00  0.00     0.021 A 
ATOM     15  C   UNL d   1     -44.169  10.060  23.531  0.00  0.00     0.002 A 
ATOM     16  C   UNL d   1     -43.701  10.629  23.195  0.00  0.00     0.002 A 
ENDROOT
TORSDOF 0
ENDMDL
MODEL 7
REMARK VINA RESULT:      -5.8      9.153      9.599
REMARK  0 active torsions:
REMARK  status: ('A' for Active; 'I' for Inactive)
ROOT
ATOM      1  N   UNL d   1     -40.601  15.914  19.153  0.00  0.00    -0.242 NA
ATOM      2  N   UNL d   1     -39.959  14.414  19.035  0.00  0.00    -0.242 NA
ATOM      3  C   UNL d   1     -39.992  14.793  19.774  0.00  0.00     0.101 A 
ATOM      4  C   UNL d   1     -40.310  15.536  19.832  0.00  0.00     0.101 A 
ATOM      5  C   UNL d   1     -39.703  14.414  20.434  0.00  0.00     0.043 A 
ATOM      6  C   UNL d   1     -40.349  15.922  20.552  0.00  0.00     0.043 A 
ATOM      7  C   UNL d   1     -40.060  15.552  21.232  0.00  0.00     0.124 A 
ATOM      8  C   UNL d   1     -39.735  14.793  21.173  0.00  0.00     0.124 A 
ATOM      9  C   UNL d   1     -40.251  14.794  18.362  0.00  0.00     0.099 A 
ATOM     10  C   UNL d   1     -40.569  15.536  18.420  0.00  0.00     0.099 A 
ATOM     11  N   UNL d   1     -40.092  15.922  21.951  0.00  0.00    -0.146 N 
ATOM     12  N   UNL d   1     -39.454  14.426  21.820  0.00  0.00    -0.146 N 
ATOM     13  C   UNL d   1     -40.859  15.914  17.747  0.00  0.00     0.021 A 
ATOM     14  C   UNL d   1     -40.217  14.414  17.629  0.00  0.00     0.021 A 
ATOM     15  C   UNL d   1     -40.509  14.794  16.950  0.00  0.00     0.002 A 
ATOM     16  C   UNL d   1     -40.827  15.536  17.008  0.00  0.00     0.002 A 
ENDROOT
TORSDOF 0
ENDMDL
MODEL 8
REMARK VINA RESULT:      -5.5      8.212      9.807
REMARK  0 active torsions:
REMARK  status: ('A' for Active; 'I' for Inactive)
ROOT
ATOM      1  N   UNL d   1     -40.014  14.137  18.524  0.00  0.00    -0.242 NA
ATOM      2  N   UNL d   1     -39.999  15.770  18.424  0.00  0.00    -0.242 NA
ATOM      3  C   UNL d   1     -40.318  15.399  19.097  0.00  0.00     0.101 A 
ATOM      4  C   UNL d   1     -40.325  14.591  19.146  0.00  0.00     0.101 A 
ATOM      5  C   UNL d   1     -40.620  15.853  19.701  0.00  0.00     0.043 A 
ATOM      6  C   UNL d   1     -40.634  14.211  19.801  0.00  0.00     0.043 A 
ATOM      7  C   UNL d   1     -40.945  14.656  20.424  0.00  0.00     0.124 A 
ATOM      8  C   UNL d   1     -40.938  15.482  20.374  0.00  0.00     0.124 A 
ATOM      9  C   UNL d   1     -39.691  15.315  17.808  0.00  0.00     0.099 A 
ATOM     10  C   UNL d   1     -39.698  14.506  17.857  0.00  0.00     0.099 A 
ATOM     11  N   UNL d   1     -41.255  14.295  21.078  0.00  0.00    -0.146 N 
ATOM     12  N   UNL d   1     -41.234  15.922  20.966  0.00  0.00    -0.146 N 
ATOM     13  C   UNL d   1     -39.391  14.053  17.241  0.00  0.00     0.021 A 
ATOM     14  C   UNL d   1     -39.376  15.686  17.141  0.00  0.00     0.021 A 
ATOM     15  C   UNL d   1     -39.065  15.231  16.519  0.00  0.00     0.002 A 
ATOM     16  C   UNL d   1     -39.072  14.422  16.568  0.00  0.00     0.002 A 
ENDROOT
TORSDOF 0
ENDMDL
