MODEL 1
REMARK VINA RESULT:      -9.1      0.000      0.000
REMARK  5 active torsions:
REMARK  status: ('A' for Active; 'I' for Inactive)
REMARK    1  A    between atoms: C_3  and  C_1 
REMARK    2  A    between atoms: C_2  and  C_3 
REMARK       I    between atoms: N_4  and  C_2 
REMARK    3  A    between atoms: C_10  and  C_8 
REMARK    4  A    between atoms: O_16  and  C_10 
REMARK    5  A    between atoms: C_21  and  O_16 
ROOT
ATOM      1  C   UNL d   1      53.929  32.167  54.042  0.00  0.00     0.304 C 
ATOM      2  N   UNL d   1      53.511  31.591  53.634  0.00  0.00    -0.269 N 
ATOM      3  C   UNL d   1      53.046  30.244  53.522  0.00  0.00     0.081 A 
ATOM      4  C   UNL d   1      53.467  30.825  53.932  0.00  0.00     0.088 A 
ATOM      5  O   UNL d   1      54.303  31.979  54.748  0.00  0.00    -0.263 OA
ATOM      6  C   UNL d   1      53.138  31.779  52.931  0.00  0.00     0.083 A 
ATOM      7  C   UNL d   1      52.669  30.428  52.813  0.00  0.00     0.008 A 
ATOM      8  C   UNL d   1      52.713  31.197  52.513  0.00  0.00     0.019 A 
ENDROOT
BRANCH   1   9
ATOM      9  C   UNL d   1      53.973  32.940  53.741  0.00  0.00     0.253 C 
ATOM     10  O   UNL d   1      54.058  33.058  52.930  0.00  0.00    -0.281 OA
BRANCH   9  11
ATOM     11  C   UNL d   1      53.932  33.578  54.251  0.00  0.00     0.064 A 
ATOM     12  C   UNL d   1      54.372  33.693  54.939  0.00  0.00     0.102 A 
ATOM     13  N   UNL d   1      54.154  34.407  55.281  0.00  0.00    -0.244 NA
ATOM     14  C   UNL d   1      53.573  34.743  54.803  0.00  0.00     0.082 A 
ATOM     15  C   UNL d   1      53.436  34.233  54.169  0.00  0.00     0.022 A 
ATOM     16  C   UNL d   1      53.152  35.446  54.864  0.00  0.00     0.019 A 
ATOM     17  C   UNL d   1      52.879  34.428  53.598  0.00  0.00     0.002 A 
ATOM     18  C   UNL d   1      52.454  35.139  53.661  0.00  0.00     0.000 A 
ATOM     19  C   UNL d   1      52.595  35.640  54.293  0.00  0.00     0.002 A 
ENDBRANCH   9  11
ENDBRANCH   1   9
BRANCH   3  20
ATOM     20  C   UNL d   1      53.000  29.475  53.817  0.00  0.00     0.302 C 
ATOM     21  O   UNL d   1      52.721  28.869  53.343  0.00  0.00    -0.259 OA
BRANCH  20  22
ATOM     22  O   UNL d   1      53.234  29.323  54.585  0.00  0.00    -0.271 OA
BRANCH  22  23
ATOM     23  C   UNL d   1      53.297  28.540  54.850  0.00  0.00     0.126 C 
ATOM     24  C   UNL d   1      53.462  28.396  55.651  0.00  0.00     0.029 C 
ENDBRANCH  22  23
ENDBRANCH  20  22
ENDBRANCH   3  20
TORSDOF 5
ENDMDL
MODEL 2
REMARK VINA RESULT:      -8.9      2.917      4.704
REMARK  5 active torsions:
REMARK  status: ('A' for Active; 'I' for Inactive)
REMARK    1  A    between atoms: C_3  and  C_1 
REMARK    2  A    between atoms: C_2  and  C_3 
REMARK       I    between atoms: N_4  and  C_2 
REMARK    3  A    between atoms: C_10  and  C_8 
REMARK    4  A    between atoms: O_16  and  C_10 
REMARK    5  A    between atoms: C_21  and  O_16 
ROOT
ATOM      1  C   UNL d   1      51.401  33.898  53.396  0.00  0.00     0.304 C 
ATOM      2  N   UNL d   1      50.985  34.104  52.720  0.00  0.00    -0.269 N 
ATOM      3  C   UNL d   1      49.776  34.539  52.094  0.00  0.00     0.081 A 
ATOM      4  C   UNL d   1      50.196  34.331  52.775  0.00  0.00     0.088 A 
ATOM      5  O   UNL d   1      51.029  33.918  54.128  0.00  0.00    -0.263 OA
ATOM      6  C   UNL d   1      51.356  34.083  51.991  0.00  0.00     0.083 A 
ATOM      7  C   UNL d   1      50.145  34.519  51.357  0.00  0.00     0.008 A 
ATOM      8  C   UNL d   1      50.936  34.291  51.302  0.00  0.00     0.019 A 
ENDROOT
BRANCH   1   9
ATOM      9  C   UNL d   1      52.197  33.668  53.341  0.00  0.00     0.253 C 
ATOM     10  O   UNL d   1      52.422  33.108  52.780  0.00  0.00    -0.281 OA
BRANCH   9  11
ATOM     11  C   UNL d   1      52.752  34.000  53.843  0.00  0.00     0.064 A 
ATOM     12  C   UNL d   1      52.840  34.798  54.028  0.00  0.00     0.102 A 
ATOM     13  N   UNL d   1      53.465  34.885  54.552  0.00  0.00    -0.244 NA
ATOM     14  C   UNL d   1      53.772  34.135  54.697  0.00  0.00     0.082 A 
ATOM     15  C   UNL d   1      53.334  33.589  54.261  0.00  0.00     0.022 A 
ATOM     16  C   UNL d   1      54.394  33.878  55.170  0.00  0.00     0.019 A 
ATOM     17  C   UNL d   1      53.518  32.789  54.298  0.00  0.00     0.002 A 
ATOM     18  C   UNL d   1      54.146  32.532  54.776  0.00  0.00     0.000 A 
ATOM     19  C   UNL d   1      54.578  33.078  55.207  0.00  0.00     0.002 A 
ENDBRANCH   9  11
ENDBRANCH   1   9
BRANCH   3  20
ATOM     20  C   UNL d   1      48.985  34.767  52.145  0.00  0.00     0.302 C 
ATOM     21  O   UNL d   1      48.417  34.384  51.697  0.00  0.00    -0.259 OA
BRANCH  20  22
ATOM     22  O   UNL d   1      48.773  35.378  52.644  0.00  0.00    -0.271 OA
BRANCH  22  23
ATOM     23  C   UNL d   1      47.999  35.676  52.626  0.00  0.00     0.126 C 
ATOM     24  C   UNL d   1      47.797  36.307  53.126  0.00  0.00     0.029 C 
ENDBRANCH  22  23
ENDBRANCH  20  22
ENDBRANCH   3  20
TORSDOF 5
ENDMDL
MODEL 3
REMARK VINA RESULT:      -8.5      2.943      4.024
REMARK  5 active torsions:
REMARK  status: ('A' for Active; 'I' for Inactive)
REMARK    1  A    between atoms: C_3  and  C_1 
REMARK    2  A    between atoms: C_2  and  C_3 
REMARK       I    between atoms: N_4  and  C_2 
REMARK    3  A    between atoms: C_10  and  C_8 
REMARK    4  A    between atoms: O_16  and  C_10 
REMARK    5  A    between atoms: C_21  and  O_16 
ROOT
ATOM      1  C   UNL d   1      50.955  33.744  53.161  0.00  0.00     0.304 C 
ATOM      2  N   UNL d   1      51.768  33.682  53.250  0.00  0.00    -0.269 N 
ATOM      3  C   UNL d   1      52.925  32.890  53.524  0.00  0.00     0.081 A 
ATOM      4  C   UNL d   1      52.106  32.955  53.434  0.00  0.00     0.088 A 
ATOM      5  O   UNL d   1      50.479  33.082  53.256  0.00  0.00    -0.263 OA
ATOM      6  C   UNL d   1      52.240  34.342  53.155  0.00  0.00     0.083 A 
ATOM      7  C   UNL d   1      53.406  33.553  53.429  0.00  0.00     0.008 A 
ATOM      8  C   UNL d   1      53.067  34.282  53.244  0.00  0.00     0.019 A 
ENDROOT
BRANCH   1   9
ATOM      9  C   UNL d   1      50.612  34.478  52.975  0.00  0.00     0.253 C 
ATOM     10  O   UNL d   1      50.858  35.156  53.374  0.00  0.00    -0.281 OA
BRANCH   9  11
ATOM     11  C   UNL d   1      50.035  34.523  52.397  0.00  0.00     0.064 A 
ATOM     12  C   UNL d   1      50.053  34.178  51.649  0.00  0.00     0.102 A 
ATOM     13  N   UNL d   1      49.360  34.364  51.250  0.00  0.00    -0.244 NA
ATOM     14  C   UNL d   1      48.903  34.829  51.753  0.00  0.00     0.082 A 
ATOM     15  C   UNL d   1      49.317  34.928  52.460  0.00  0.00     0.022 A 
ATOM     16  C   UNL d   1      48.163  35.175  51.659  0.00  0.00     0.019 A 
ATOM     17  C   UNL d   1      48.992  35.371  53.069  0.00  0.00     0.002 A 
ATOM     18  C   UNL d   1      48.244  35.720  52.972  0.00  0.00     0.000 A 
ATOM     19  C   UNL d   1      47.838  35.619  52.269  0.00  0.00     0.002 A 
ENDBRANCH   9  11
ENDBRANCH   1   9
BRANCH   3  20
ATOM     20  C   UNL d   1      53.269  32.163  53.709  0.00  0.00     0.302 C 
ATOM     21  O   UNL d   1      53.752  32.092  54.367  0.00  0.00    -0.259 OA
BRANCH  20  22
ATOM     22  O   UNL d   1      53.125  31.516  53.233  0.00  0.00    -0.271 OA
BRANCH  22  23
ATOM     23  C   UNL d   1      53.405  30.768  53.457  0.00  0.00     0.126 C 
ATOM     24  C   UNL d   1      53.120  30.095  53.062  0.00  0.00     0.029 C 
ENDBRANCH  22  23
ENDBRANCH  20  22
ENDBRANCH   3  20
TORSDOF 5
ENDMDL
MODEL 4
REMARK VINA RESULT:      -8.4      1.724      4.772
REMARK  5 active torsions:
REMARK  status: ('A' for Active; 'I' for Inactive)
REMARK    1  A    between atoms: C_3  and  C_1 
REMARK    2  A    between atoms: C_2  and  C_3 
REMARK       I    between atoms: N_4  and  C_2 
REMARK    3  A    between atoms: C_10  and  C_8 
REMARK    4  A    between atoms: O_16  and  C_10 
REMARK    5  A    between atoms: C_21  and  O_16 
ROOT
ATOM      1  C   UNL d   1      52.675  31.785  53.017  0.00  0.00     0.304 C 
ATOM      2  N   UNL d   1      52.602  32.588  53.168  0.00  0.00    -0.269 N 
ATOM      3  C   UNL d   1      51.938  33.834  52.946  0.00  0.00     0.081 A 
ATOM      4  C   UNL d   1      52.013  33.024  52.795  0.00  0.00     0.088 A 
ATOM      5  O   UNL d   1      52.160  31.417  52.494  0.00  0.00    -0.263 OA
ATOM      6  C   UNL d   1      53.116  32.953  53.689  0.00  0.00     0.083 A 
ATOM      7  C   UNL d   1      52.453  34.207  53.470  0.00  0.00     0.008 A 
ATOM      8  C   UNL d   1      53.045  33.769  53.844  0.00  0.00     0.019 A 
ENDROOT
BRANCH   1   9
ATOM      9  C   UNL d   1      53.270  31.344  53.393  0.00  0.00     0.253 C 
ATOM     10  O   UNL d   1      53.913  31.732  53.731  0.00  0.00    -0.281 OA
BRANCH   9  11
ATOM     11  C   UNL d   1      53.213  30.528  53.425  0.00  0.00     0.064 A 
ATOM     12  C   UNL d   1      53.090  30.013  52.793  0.00  0.00     0.102 A 
ATOM     13  N   UNL d   1      53.070  29.243  53.075  0.00  0.00    -0.244 NA
ATOM     14  C   UNL d   1      53.181  29.274  53.890  0.00  0.00     0.082 A 
ATOM     15  C   UNL d   1      53.269  30.065  54.107  0.00  0.00     0.022 A 
ATOM     16  C   UNL d   1      53.213  28.685  54.463  0.00  0.00     0.019 A 
ATOM     17  C   UNL d   1      53.389  30.265  54.894  0.00  0.00     0.002 A 
ATOM     18  C   UNL d   1      53.421  29.668  55.471  0.00  0.00     0.000 A 
ATOM     19  C   UNL d   1      53.333  28.885  55.250  0.00  0.00     0.002 A 
ENDBRANCH   9  11
ENDBRANCH   1   9
BRANCH   3  20
ATOM     20  C   UNL d   1      51.348  34.275  52.575  0.00  0.00     0.302 C 
ATOM     21  O   UNL d   1      51.456  34.542  51.808  0.00  0.00    -0.259 OA
BRANCH  20  22
ATOM     22  O   UNL d   1      50.658  34.444  52.976  0.00  0.00    -0.271 OA
BRANCH  22  23
ATOM     23  C   UNL d   1      49.983  34.683  52.556  0.00  0.00     0.126 C 
ATOM     24  C   UNL d   1      49.332  34.984  52.974  0.00  0.00     0.029 C 
ENDBRANCH  22  23
ENDBRANCH  20  22
ENDBRANCH   3  20
TORSDOF 5
ENDMDL
MODEL 5
REMARK VINA RESULT:      -8.0      4.410      6.025
REMARK  5 active torsions:
REMARK  status: ('A' for Active; 'I' for Inactive)
REMARK    1  A    between atoms: C_3  and  C_1 
REMARK    2  A    between atoms: C_2  and  C_3 
REMARK       I    between atoms: N_4  and  C_2 
REMARK    3  A    between atoms: C_10  and  C_8 
REMARK    4  A    between atoms: O_16  and  C_10 
REMARK    5  A    between atoms: C_21  and  O_16 
ROOT
ATOM      1  C   UNL d   1      49.894  34.785  52.480  0.00  0.00     0.304 C 
ATOM      2  N   UNL d   1      49.266  34.821  51.953  0.00  0.00    -0.269 N 
ATOM      3  C   UNL d   1      47.944  35.258  51.632  0.00  0.00     0.081 A 
ATOM      4  C   UNL d   1      48.578  35.220  52.161  0.00  0.00     0.088 A 
ATOM      5  O   UNL d   1      49.835  35.146  53.214  0.00  0.00    -0.263 OA
ATOM      6  C   UNL d   1      49.326  34.461  51.222  0.00  0.00     0.083 A 
ATOM      7  C   UNL d   1      47.999  34.897  50.893  0.00  0.00     0.008 A 
ATOM      8  C   UNL d   1      48.690  34.496  50.684  0.00  0.00     0.019 A 
ENDROOT
BRANCH   1   9
ATOM      9  C   UNL d   1      50.589  34.382  52.270  0.00  0.00     0.253 C 
ATOM     10  O   UNL d   1      50.867  34.423  51.495  0.00  0.00    -0.281 OA
BRANCH   9  11
ATOM     11  C   UNL d   1      50.994  33.947  52.833  0.00  0.00     0.064 A 
ATOM     12  C   UNL d   1      50.712  33.297  53.255  0.00  0.00     0.102 A 
ATOM     13  N   UNL d   1      51.301  33.031  53.761  0.00  0.00    -0.244 NA
ATOM     14  C   UNL d   1      51.957  33.517  53.656  0.00  0.00     0.082 A 
ATOM     15  C   UNL d   1      51.769  34.082  53.085  0.00  0.00     0.022 A 
ATOM     16  C   UNL d   1      52.700  33.520  54.007  0.00  0.00     0.019 A 
ATOM     17  C   UNL d   1      52.324  34.646  52.865  0.00  0.00     0.002 A 
ATOM     18  C   UNL d   1      53.075  34.647  53.221  0.00  0.00     0.000 A 
ATOM     19  C   UNL d   1      53.255  34.084  53.787  0.00  0.00     0.002 A 
ENDBRANCH   9  11
ENDBRANCH   1   9
BRANCH   3  20
ATOM     20  C   UNL d   1      47.252  35.657  51.837  0.00  0.00     0.302 C 
ATOM     21  O   UNL d   1      47.271  36.461  51.989  0.00  0.00    -0.259 OA
BRANCH  20  22
ATOM     22  O   UNL d   1      46.548  35.246  51.886  0.00  0.00    -0.271 OA
BRANCH  22  23
ATOM     23  C   UNL d   1      45.856  35.637  52.123  0.00  0.00     0.126 C 
ATOM     24  C   UNL d   1      45.147  35.209  52.176  0.00  0.00     0.029 C 
ENDBRANCH  22  23
ENDBRANCH  20  22
ENDBRANCH   3  20
TORSDOF 5
ENDMDL
