MODEL 1
REMARK VINA RESULT:      24.8      0.000      0.000
REMARK  0 active torsions:
REMARK  status: ('A' for Active; 'I' for Inactive)
REMARK       I    between atoms: C_3  and  N_1 
REMARK       I    between atoms: N_6  and  C_3 
ROOT
ATOM      1  N   UNL d   1     -57.073 -98.756 -44.059  0.00  0.00    -0.160 N 
ATOM      2  N   UNL d   1     -57.003 -98.756 -43.250  0.00  0.00    -0.056 NA
ATOM      3  C   UNL d   1     -57.816 -98.756 -44.470  0.00  0.00     0.357 C 
ATOM      4  N   UNL d   1     -56.199 -98.757 -43.071  0.00  0.00    -0.128 NA
ATOM      5  C   UNL d   1     -56.328 -98.756 -44.388  0.00  0.00     0.108 A 
ATOM      6  N   UNL d   1     -58.525 -98.756 -44.056  0.00  0.00    -0.252 N 
ATOM      7  C   UNL d   1     -55.783 -98.757 -43.774  0.00  0.00     0.122 A 
ATOM      8  O   UNL d   1     -57.799 -98.755 -45.305  0.00  0.00    -0.244 OA
ATOM      9  O   UNL d   1     -59.947 -98.755 -43.226  0.00  0.00    -0.300 OA
ATOM     10  C   UNL d   1     -56.073 -98.756 -45.160  0.00  0.00     0.021 A 
ATOM     11  C   UNL d   1     -58.515 -98.756 -43.218  0.00  0.00     0.111 A 
ATOM     12  C   UNL d   1     -59.232 -98.755 -44.455  0.00  0.00     0.111 A 
ATOM     13  C   UNL d   1     -54.969 -98.757 -43.934  0.00  0.00     0.022 A 
ATOM     14  C   UNL d   1     -59.231 -98.756 -42.800  0.00  0.00     0.142 A 
ATOM     15  C   UNL d   1     -59.945 -98.755 -44.039  0.00  0.00     0.142 A 
ATOM     16  C   UNL d   1     -55.264 -98.756 -45.330  0.00  0.00     0.002 A 
ATOM     17  C   UNL d   1     -54.711 -98.757 -44.726  0.00  0.00     0.002 A 
ENDROOT
TORSDOF 0
ENDMDL
