MODEL 1
REMARK VINA RESULT:      -4.2      0.000      0.000
REMARK  3 active torsions:
REMARK  status: ('A' for Active; 'I' for Inactive)
REMARK    1  A    between atoms: C_9  and  C_4 
REMARK    2  A    between atoms: C_10  and  C_7 
REMARK    3  A    between atoms: C_13  and  C_10 
ROOT
ATOM      1  C   UNL d   1      59.233  -9.723  32.759  0.00  0.00     0.179 A 
ATOM      2  N   UNL d   1      58.471  -9.746  33.089  0.00  0.00    -0.282 N 
ATOM      3  N   UNL d   1      59.161  -9.727  31.941  0.00  0.00    -0.221 NA
ATOM      4  C   UNL d   1      58.347  -9.751  31.758  0.00  0.00     0.101 A 
ATOM      5  S   UNL d   1      59.780  -9.706  33.376  0.00  0.00    -0.048 SA
ATOM      6  C   UNL d   1      57.932  -9.763  32.465  0.00  0.00     0.101 A 
ATOM      7  C   UNL d   1      59.355  -9.718  34.087  0.00  0.00     0.050 A 
ATOM      8  C   UNL d   1      58.560  -9.742  33.906  0.00  0.00     0.089 A 
ENDROOT
BRANCH   7   9
ATOM      9  C   UNL d   1      59.693  -9.707  34.844  0.00  0.00     0.008 C 
BRANCH   9  10
ATOM     10  C   UNL d   1      59.898  -8.999  35.198  0.00  0.00     0.001 A 
ATOM     11  C   UNL d   1      60.675  -8.709  35.125  0.00  0.00     0.002 A 
ATOM     12  C   UNL d   1      60.881  -7.990  35.485  0.00  0.00     0.030 A 
ATOM     13  C   UNL d   1      60.320  -7.565  35.913  0.00  0.00     0.140 A 
ATOM     14  C   UNL d   1      59.549  -7.851  35.986  0.00  0.00     0.030 A 
ATOM     15  F   UNL d   1      60.509  -6.852  36.275  0.00  0.00    -0.204 F 
ATOM     16  C   UNL d   1      59.341  -8.568  35.628  0.00  0.00     0.002 A 
ENDBRANCH   9  10
ENDBRANCH   7   9
BRANCH   4  17
ATOM     17  C   UNL d   1      58.028  -9.762  31.003  0.00  0.00     0.019 A 
ATOM     18  C   UNL d   1      58.529  -9.727  30.355  0.00  0.00     0.004 A 
ATOM     19  C   UNL d   1      58.218  -9.737  29.586  0.00  0.00     0.030 A 
ATOM     20  C   UNL d   1      57.398  -9.783  29.480  0.00  0.00     0.140 A 
ATOM     21  C   UNL d   1      56.897  -9.817  30.128  0.00  0.00     0.030 A 
ATOM     22  F   UNL d   1      56.932  -9.802  28.803  0.00  0.00    -0.204 F 
ATOM     23  C   UNL d   1      57.207  -9.807  30.891  0.00  0.00     0.004 A 
ENDBRANCH   4  17
TORSDOF 3
ENDMDL
MODEL 2
REMARK VINA RESULT:      -1.9      1.181      5.434
REMARK  3 active torsions:
REMARK  status: ('A' for Active; 'I' for Inactive)
REMARK    1  A    between atoms: C_9  and  C_4 
REMARK    2  A    between atoms: C_10  and  C_7 
REMARK    3  A    between atoms: C_13  and  C_10 
ROOT
ATOM      1  C   UNL d   1      59.309  -9.730  31.673  0.00  0.00     0.179 A 
ATOM      2  N   UNL d   1      58.503  -9.607  31.833  0.00  0.00    -0.282 N 
ATOM      3  N   UNL d   1      59.718  -9.721  32.385  0.00  0.00    -0.221 NA
ATOM      4  C   UNL d   1      59.164  -9.591  32.995  0.00  0.00     0.101 A 
ATOM      5  S   UNL d   1      59.399  -9.816  30.858  0.00  0.00    -0.048 SA
ATOM      6  C   UNL d   1      58.423  -9.522  32.649  0.00  0.00     0.101 A 
ATOM      7  C   UNL d   1      58.648  -9.746  30.515  0.00  0.00     0.050 A 
ATOM      8  C   UNL d   1      58.108  -9.619  31.112  0.00  0.00     0.089 A 
ENDROOT
BRANCH   7   9
ATOM      9  C   UNL d   1      58.490  -9.798  29.703  0.00  0.00     0.008 C 
BRANCH   9  10
ATOM     10  C   UNL d   1      57.801  -9.487  29.392  0.00  0.00     0.001 A 
ATOM     11  C   UNL d   1      57.836  -8.832  28.879  0.00  0.00     0.002 A 
ATOM     12  C   UNL d   1      57.136  -8.518  28.565  0.00  0.00     0.030 A 
ATOM     13  C   UNL d   1      56.408  -8.853  28.759  0.00  0.00     0.140 A 
ATOM     14  C   UNL d   1      56.371  -9.503  29.267  0.00  0.00     0.030 A 
ATOM     15  F   UNL d   1      55.706  -8.553  28.455  0.00  0.00    -0.204 F 
ATOM     16  C   UNL d   1      57.069  -9.818  29.582  0.00  0.00     0.002 A 
ENDBRANCH   9  10
ENDBRANCH   7   9
BRANCH   4  17
ATOM     17  C   UNL d   1      59.336  -9.542  33.795  0.00  0.00     0.019 A 
ATOM     18  C   UNL d   1      58.774  -9.780  34.342  0.00  0.00     0.004 A 
ATOM     19  C   UNL d   1      58.936  -9.735  35.154  0.00  0.00     0.030 A 
ATOM     20  C   UNL d   1      59.671  -9.447  35.406  0.00  0.00     0.140 A 
ATOM     21  C   UNL d   1      60.233  -9.209  34.859  0.00  0.00     0.030 A 
ATOM     22  F   UNL d   1      59.989  -9.338  36.157  0.00  0.00    -0.204 F 
ATOM     23  C   UNL d   1      60.070  -9.254  34.054  0.00  0.00     0.004 A 
ENDBRANCH   4  17
TORSDOF 3
ENDMDL
MODEL 3
REMARK VINA RESULT:      -1.4      8.732      9.146
REMARK  3 active torsions:
REMARK  status: ('A' for Active; 'I' for Inactive)
REMARK    1  A    between atoms: C_9  and  C_4 
REMARK    2  A    between atoms: C_10  and  C_7 
REMARK    3  A    between atoms: C_13  and  C_10 
ROOT
ATOM      1  C   UNL d   1      57.691  -0.888  31.014  0.00  0.00     0.179 A 
ATOM      2  N   UNL d   1      57.768  -0.308  30.423  0.00  0.00    -0.282 N 
ATOM      3  N   UNL d   1      58.126  -1.546  30.788  0.00  0.00    -0.221 NA
ATOM      4  C   UNL d   1      58.478  -1.378  30.050  0.00  0.00     0.101 A 
ATOM      5  S   UNL d   1      57.205  -0.586  31.608  0.00  0.00    -0.048 SA
ATOM      6  C   UNL d   1      58.254  -0.619  29.834  0.00  0.00     0.101 A 
ATOM      7  C   UNL d   1      56.983   0.180  31.383  0.00  0.00     0.050 A 
ATOM      8  C   UNL d   1      57.328   0.343  30.662  0.00  0.00     0.089 A 
ENDROOT
BRANCH   7   9
ATOM      9  C   UNL d   1      56.493   0.682  31.826  0.00  0.00     0.008 C 
BRANCH   9  10
ATOM     10  C   UNL d   1      56.187   0.438  32.544  0.00  0.00     0.001 A 
ATOM     11  C   UNL d   1      55.479  -0.001  32.564  0.00  0.00     0.002 A 
ATOM     12  C   UNL d   1      55.170  -0.248  33.293  0.00  0.00     0.030 A 
ATOM     13  C   UNL d   1      55.561  -0.060  33.994  0.00  0.00     0.140 A 
ATOM     14  C   UNL d   1      56.262   0.375  33.975  0.00  0.00     0.030 A 
ATOM     15  F   UNL d   1      55.266  -0.298  34.723  0.00  0.00    -0.204 F 
ATOM     16  C   UNL d   1      56.573   0.622  33.249  0.00  0.00     0.002 A 
ENDBRANCH   9  10
ENDBRANCH   7   9
BRANCH   4  17
ATOM     17  C   UNL d   1      58.961  -1.886  29.625  0.00  0.00     0.019 A 
ATOM     18  C   UNL d   1      58.689  -2.197  28.916  0.00  0.00     0.004 A 
ATOM     19  C   UNL d   1      59.167  -2.712  28.476  0.00  0.00     0.030 A 
ATOM     20  C   UNL d   1      59.921  -2.908  28.758  0.00  0.00     0.140 A 
ATOM     21  C   UNL d   1      60.193  -2.596  29.466  0.00  0.00     0.030 A 
ATOM     22  F   UNL d   1      60.513  -3.392  28.455  0.00  0.00    -0.204 F 
ATOM     23  C   UNL d   1      59.717  -2.086  29.902  0.00  0.00     0.004 A 
ENDBRANCH   4  17
TORSDOF 3
ENDMDL
