MODEL 1
REMARK VINA RESULT:      91.4      0.000      0.000
REMARK  6 active torsions:
REMARK  status: ('A' for Active; 'I' for Inactive)
REMARK    1  A    between atoms: N_5  and  C_1 
REMARK    2  A    between atoms: N_7  and  C_2 
REMARK    3  A    between atoms: C_8  and  N_3 
REMARK    4  A    between atoms: C_18  and  C_8 
REMARK    5  A    between atoms: C_14  and  N_9 
REMARK    6  A    between atoms: C_19  and  C_14 
ROOT
ATOM      1  C   UNL d   1      61.559  48.425  50.316  0.00  0.00     0.242 A 
ATOM      2  C   UNL d   1      60.878  47.974  50.429  0.00  0.00     0.175 A 
ATOM      3  N   UNL d   1      61.082  47.172  50.312  0.00  0.00    -0.274 N 
ATOM      4  N   UNL d   1      62.188  47.908  50.129  0.00  0.00    -0.203 NA
ATOM      5  C   UNL d   1      61.881  47.140  50.129  0.00  0.00     0.151 A 
ATOM      6  C   UNL d   1      62.308  46.452  49.972  0.00  0.00     0.041 C 
ENDROOT
BRANCH   2   7
ATOM      7  N   UNL d   1      60.202  48.402  50.619  0.00  0.00    -0.285 N 
ATOM      8  C   UNL d   1      59.459  48.148  50.360  0.00  0.00     0.101 A 
ATOM      9  C   UNL d   1      58.784  48.588  50.558  0.00  0.00     0.100 A 
ATOM     10  N   UNL d   1      58.851  49.268  51.006  0.00  0.00    -0.300 N 
ATOM     11  C   UNL d   1      59.595  49.522  51.265  0.00  0.00     0.100 A 
ATOM     12  C   UNL d   1      60.264  49.091  51.073  0.00  0.00     0.101 A 
BRANCH  10  13
ATOM     13  C   UNL d   1      58.173  49.707  51.203  0.00  0.00     0.080 C 
BRANCH  13  14
ATOM     14  C   UNL d   1      57.496  49.641  50.747  0.00  0.00     0.018 A 
ATOM     15  C   UNL d   1      57.543  49.706  49.924  0.00  0.00     0.002 A 
ATOM     16  C   UNL d   1      56.865  49.640  49.461  0.00  0.00     0.000 A 
ATOM     17  C   UNL d   1      56.130  49.507  49.826  0.00  0.00     0.000 A 
ATOM     18  C   UNL d   1      56.084  49.442  50.649  0.00  0.00     0.000 A 
ATOM     19  C   UNL d   1      56.774  49.510  51.108  0.00  0.00     0.002 A 
ENDBRANCH  13  14
ENDBRANCH  10  13
ENDBRANCH   2   7
BRANCH   1  20
ATOM     20  N   UNL d   1      61.621  49.251  50.375  0.00  0.00    -0.092 N 
ATOM     21  O   UNL d   1      61.648  49.613  51.110  0.00  0.00    -0.530 OA
ATOM     22  O   UNL d   1      61.656  49.706  49.685  0.00  0.00    -0.530 OA
ENDBRANCH   1  20
BRANCH   3  23
ATOM     23  C   UNL d   1      60.561  46.534  50.372  0.00  0.00     0.083 C 
BRANCH  23  24
ATOM     24  C   UNL d   1      60.844  45.763  50.442  0.00  0.00     0.018 A 
ATOM     25  C   UNL d   1      61.211  45.527  51.147  0.00  0.00     0.002 A 
ATOM     26  C   UNL d   1      61.498  44.752  51.223  0.00  0.00     0.000 A 
ATOM     27  C   UNL d   1      61.416  44.225  50.599  0.00  0.00     0.000 A 
ATOM     28  C   UNL d   1      61.053  44.458  49.900  0.00  0.00     0.000 A 
ATOM     29  C   UNL d   1      60.766  45.233  49.824  0.00  0.00     0.002 A 
ENDBRANCH  23  24
ENDBRANCH   3  23
TORSDOF 6
ENDMDL
