MODEL 1
REMARK VINA RESULT:      -5.2      0.000      0.000
REMARK  3 active torsions:
REMARK  status: ('A' for Active; 'I' for Inactive)
REMARK    1  A    between atoms: N_7  and  C_1 
REMARK    2  A    between atoms: N_10  and  N_7 
REMARK    3  A    between atoms: C_17  and  N_10 
ROOT
ATOM      1  N   UNL d   1      57.828  -0.140  30.724  0.00  0.00    -0.148 NA
ENDROOT
BRANCH   1   2
ATOM      2  N   UNL d   1      58.206   0.556  30.452  0.00  0.00    -0.138 NA
BRANCH   2   3
ATOM      3  C   UNL d   1      58.837   0.489  29.960  0.00  0.00     0.218 A 
ATOM      4  C   UNL d   1      59.581   0.547  30.227  0.00  0.00     0.307 A 
ATOM      5  N   UNL d   1      60.208   0.477  29.712  0.00  0.00    -0.150 NA
ATOM      6  O   UNL d   1      59.714   0.681  31.043  0.00  0.00    -0.263 OA
ATOM      7  C   UNL d   1      60.118   0.354  28.954  0.00  0.00     0.374 A 
ATOM      8  N   UNL d   1      59.346   0.290  28.655  0.00  0.00    -0.150 NA
ATOM      9  O   UNL d   1      60.797   0.287  28.455  0.00  0.00    -0.242 OA
ATOM     10  C   UNL d   1      58.705   0.355  29.144  0.00  0.00     0.307 A 
ATOM     11  O   UNL d   1      57.935   0.290  28.834  0.00  0.00    -0.263 OA
ENDBRANCH   2   3
ENDBRANCH   1   2
BRANCH   1  12
ATOM     12  C   UNL d   1      57.251  -0.073  31.320  0.00  0.00     0.105 A 
ATOM     13  C   UNL d   1      57.001  -0.779  31.643  0.00  0.00     0.048 A 
ATOM     14  C   UNL d   1      56.429  -0.764  32.237  0.00  0.00     0.124 A 
ATOM     15  O   UNL d   1      56.179  -1.470  32.560  0.00  0.00    -0.301 OA
ATOM     16  C   UNL d   1      56.112  -0.034  32.504  0.00  0.00     0.123 A 
ATOM     17  C   UNL d   1      55.607  -1.456  33.155  0.00  0.00     0.149 A 
ATOM     18  C   UNL d   1      55.290  -0.725  33.422  0.00  0.00     0.149 A 
ATOM     19  O   UNL d   1      55.548  -0.019  33.090  0.00  0.00    -0.301 OA
ATOM     20  C   UNL d   1      56.370   0.673  32.172  0.00  0.00     0.028 A 
ATOM     21  C   UNL d   1      56.933   0.657  31.587  0.00  0.00     0.023 A 
ENDBRANCH   1  12
TORSDOF 3
ENDMDL
MODEL 2
REMARK VINA RESULT:      -4.4      1.805      4.480
REMARK  3 active torsions:
REMARK  status: ('A' for Active; 'I' for Inactive)
REMARK    1  A    between atoms: N_7  and  C_1 
REMARK    2  A    between atoms: N_10  and  N_7 
REMARK    3  A    between atoms: C_17  and  N_10 
ROOT
ATOM      1  N   UNL d   1      57.092  -0.339  31.225  0.00  0.00    -0.148 NA
ENDROOT
BRANCH   1   2
ATOM      2  N   UNL d   1      57.232  -0.623  32.000  0.00  0.00    -0.138 NA
BRANCH   2   3
ATOM      3  C   UNL d   1      56.731  -0.411  32.590  0.00  0.00     0.218 A 
ATOM      4  C   UNL d   1      56.870   0.221  33.047  0.00  0.00     0.307 A 
ATOM      5  N   UNL d   1      56.349   0.420  33.640  0.00  0.00    -0.150 NA
ATOM      6  O   UNL d   1      57.557   0.681  32.911  0.00  0.00    -0.263 OA
ATOM      7  C   UNL d   1      55.707   0.016  33.790  0.00  0.00     0.374 A 
ATOM      8  N   UNL d   1      55.544  -0.650  33.322  0.00  0.00    -0.150 NA
ATOM      9  O   UNL d   1      55.194   0.258  34.416  0.00  0.00    -0.242 OA
ATOM     10  C   UNL d   1      56.044  -0.871  32.725  0.00  0.00     0.307 A 
ATOM     11  O   UNL d   1      55.872  -1.541  32.262  0.00  0.00    -0.263 OA
ENDBRANCH   2   3
ENDBRANCH   1   2
BRANCH   1  12
ATOM     12  C   UNL d   1      57.670  -0.471  30.640  0.00  0.00     0.105 A 
ATOM     13  C   UNL d   1      57.767  -1.248  30.416  0.00  0.00     0.048 A 
ATOM     14  C   UNL d   1      58.328  -1.429  29.839  0.00  0.00     0.124 A 
ATOM     15  O   UNL d   1      58.426  -2.207  29.614  0.00  0.00    -0.301 OA
ATOM     16  C   UNL d   1      58.790  -0.820  29.490  0.00  0.00     0.123 A 
ATOM     17  C   UNL d   1      58.987  -2.388  29.037  0.00  0.00     0.149 A 
ATOM     18  C   UNL d   1      59.449  -1.779  28.688  0.00  0.00     0.149 A 
ATOM     19  O   UNL d   1      59.344  -0.997  28.922  0.00  0.00    -0.301 OA
ATOM     20  C   UNL d   1      58.685  -0.038  29.723  0.00  0.00     0.028 A 
ATOM     21  C   UNL d   1      58.132   0.138  30.292  0.00  0.00     0.023 A 
ENDBRANCH   1  12
TORSDOF 3
ENDMDL
MODEL 3
REMARK VINA RESULT:      -4.1      2.226      4.720
REMARK  3 active torsions:
REMARK  status: ('A' for Active; 'I' for Inactive)
REMARK    1  A    between atoms: N_7  and  C_1 
REMARK    2  A    between atoms: N_10  and  N_7 
REMARK    3  A    between atoms: C_17  and  N_10 
ROOT
ATOM      1  N   UNL d   1      56.521  -0.041  32.538  0.00  0.00    -0.148 NA
ENDROOT
BRANCH   1   2
ATOM      2  N   UNL d   1      56.457   0.682  32.954  0.00  0.00    -0.138 NA
BRANCH   2   3
ATOM      3  C   UNL d   1      56.133   0.682  33.688  0.00  0.00     0.218 A 
ATOM      4  C   UNL d   1      56.582   0.682  34.341  0.00  0.00     0.307 A 
ATOM      5  N   UNL d   1      56.234   0.682  35.078  0.00  0.00    -0.150 NA
ATOM      6  O   UNL d   1      57.416   0.682  34.264  0.00  0.00    -0.263 OA
ATOM      7  C   UNL d   1      55.468   0.682  35.182  0.00  0.00     0.374 A 
ATOM      8  N   UNL d   1      54.981   0.682  34.509  0.00  0.00    -0.150 NA
ATOM      9  O   UNL d   1      55.150   0.682  35.964  0.00  0.00    -0.242 OA
ATOM     10  C   UNL d   1      55.299   0.682  33.765  0.00  0.00     0.307 A 
ATOM     11  O   UNL d   1      54.801   0.682  33.098  0.00  0.00    -0.263 OA
ENDBRANCH   2   3
ENDBRANCH   1   2
BRANCH   1  12
ATOM     12  C   UNL d   1      56.930  -0.051  31.813  0.00  0.00     0.105 A 
ATOM     13  C   UNL d   1      57.120  -0.791  31.530  0.00  0.00     0.048 A 
ATOM     14  C   UNL d   1      57.526  -0.852  30.814  0.00  0.00     0.124 A 
ATOM     15  O   UNL d   1      57.717  -1.592  30.531  0.00  0.00    -0.301 OA
ATOM     16  C   UNL d   1      57.739  -0.160  30.387  0.00  0.00     0.123 A 
ATOM     17  C   UNL d   1      58.123  -1.653  29.815  0.00  0.00     0.149 A 
ATOM     18  C   UNL d   1      58.336  -0.962  29.388  0.00  0.00     0.149 A 
ATOM     19  O   UNL d   1      58.139  -0.219  29.682  0.00  0.00    -0.301 OA
ATOM     20  C   UNL d   1      57.543   0.582  30.681  0.00  0.00     0.028 A 
ATOM     21  C   UNL d   1      57.143   0.640  31.385  0.00  0.00     0.023 A 
ENDBRANCH   1  12
TORSDOF 3
ENDMDL
MODEL 4
REMARK VINA RESULT:      -3.6      1.134      1.703
REMARK  3 active torsions:
REMARK  status: ('A' for Active; 'I' for Inactive)
REMARK    1  A    between atoms: N_7  and  C_1 
REMARK    2  A    between atoms: N_10  and  N_7 
REMARK    3  A    between atoms: C_17  and  N_10 
ROOT
ATOM      1  N   UNL d   1      57.415  -0.024  31.729  0.00  0.00    -0.148 NA
ENDROOT
BRANCH   1   2
ATOM      2  N   UNL d   1      57.853   0.589  31.365  0.00  0.00    -0.138 NA
BRANCH   2   3
ATOM      3  C   UNL d   1      58.219   0.445  30.665  0.00  0.00     0.218 A 
ATOM      4  C   UNL d   1      57.823   0.457  29.978  0.00  0.00     0.307 A 
ATOM      5  N   UNL d   1      58.211   0.307  29.278  0.00  0.00    -0.150 NA
ATOM      6  O   UNL d   1      57.002   0.625  29.982  0.00  0.00    -0.263 OA
ATOM      7  C   UNL d   1      58.967   0.149  29.242  0.00  0.00     0.374 A 
ATOM      8  N   UNL d   1      59.399   0.132  29.951  0.00  0.00    -0.150 NA
ATOM      9  O   UNL d   1      59.330   0.000  28.494  0.00  0.00    -0.242 OA
ATOM     10  C   UNL d   1      59.039   0.277  30.661  0.00  0.00     0.307 A 
ATOM     11  O   UNL d   1      59.481   0.257  31.366  0.00  0.00    -0.263 OA
ENDBRANCH   2   3
ENDBRANCH   1   2
BRANCH   1  12
ATOM     12  C   UNL d   1      57.048   0.128  32.461  0.00  0.00     0.105 A 
ATOM     13  C   UNL d   1      56.258  -0.068  32.501  0.00  0.00     0.048 A 
ATOM     14  C   UNL d   1      55.851   0.064  33.207  0.00  0.00     0.124 A 
ATOM     15  O   UNL d   1      55.060  -0.132  33.248  0.00  0.00    -0.301 OA
ATOM     16  C   UNL d   1      56.246   0.394  33.870  0.00  0.00     0.123 A 
ATOM     17  C   UNL d   1      54.653  -0.001  33.953  0.00  0.00     0.149 A 
ATOM     18  C   UNL d   1      55.048   0.330  34.616  0.00  0.00     0.149 A 
ATOM     19  O   UNL d   1      55.846   0.524  34.566  0.00  0.00    -0.301 OA
ATOM     20  C   UNL d   1      57.044   0.588  33.819  0.00  0.00     0.028 A 
ATOM     21  C   UNL d   1      57.444   0.458  33.124  0.00  0.00     0.023 A 
ENDBRANCH   1  12
TORSDOF 3
ENDMDL
