MODEL 1
REMARK VINA RESULT:      -4.3      0.000      0.000
REMARK  4 active torsions:
REMARK  status: ('A' for Active; 'I' for Inactive)
REMARK    1  A    between atoms: C_6  and  C_1 
REMARK    2  A    between atoms: N_7  and  C_2 
REMARK    3  A    between atoms: C_8  and  C_5 
REMARK    4  A    between atoms: O_10  and  C_6 
ROOT
ATOM      1  C   UNL d   1      58.489   0.010  30.369  0.00  0.00     0.186 A 
ATOM      2  C   UNL d   1      58.126  -0.664  30.006  0.00  0.00     0.193 A 
ATOM      3  N   UNL d   1      58.064   0.207  31.028  0.00  0.00    -0.213 NA
ATOM      4  O   UNL d   1      57.458  -0.857  30.490  0.00  0.00    -0.271 OA
ATOM      5  C   UNL d   1      57.460  -0.290  31.112  0.00  0.00     0.184 A 
ENDROOT
BRANCH   5   6
ATOM      6  C   UNL d   1      57.076  -0.097  31.725  0.00  0.00     0.041 A 
ATOM      7  C   UNL d   1      56.776  -0.878  31.757  0.00  0.00     0.004 A 
ATOM      8  C   UNL d   1      56.252  -1.102  32.359  0.00  0.00     0.000 A 
ATOM      9  C   UNL d   1      56.031  -0.544  32.926  0.00  0.00     0.000 A 
ATOM     10  C   UNL d   1      56.331   0.238  32.894  0.00  0.00     0.000 A 
ATOM     11  C   UNL d   1      56.844   0.439  32.296  0.00  0.00     0.004 A 
ENDBRANCH   5   6
BRANCH   1  12
ATOM     12  C   UNL d   1      59.060   0.222  30.007  0.00  0.00     0.317 C 
ATOM     13  O   UNL d   1      59.221   0.682  29.271  0.00  0.00    -0.257 OA
BRANCH  12  14
ATOM     14  O   UNL d   1      59.773   0.113  30.150  0.00  0.00    -0.294 OA
ATOM     15  C   UNL d   1      60.412   0.681  30.224  0.00  0.00     0.185 C 
ENDBRANCH  12  14
ENDBRANCH   1  12
BRANCH   2  16
ATOM     16  N   UNL d   1      58.445  -0.852  29.466  0.00  0.00    -0.281 N 
ATOM     17  C   UNL d   1      58.476  -1.625  29.690  0.00  0.00     0.101 C 
ATOM     18  C   UNL d   1      58.764  -0.624  28.774  0.00  0.00     0.101 C 
ENDBRANCH   2  16
TORSDOF 4
ENDMDL
MODEL 2
REMARK VINA RESULT:      -3.8      1.496      3.857
REMARK  4 active torsions:
REMARK  status: ('A' for Active; 'I' for Inactive)
REMARK    1  A    between atoms: C_6  and  C_1 
REMARK    2  A    between atoms: N_7  and  C_2 
REMARK    3  A    between atoms: C_8  and  C_5 
REMARK    4  A    between atoms: O_10  and  C_6 
ROOT
ATOM      1  C   UNL d   1      56.526  -0.522  32.164  0.00  0.00     0.186 A 
ATOM      2  C   UNL d   1      56.634   0.308  32.291  0.00  0.00     0.193 A 
ATOM      3  N   UNL d   1      56.970  -0.744  31.525  0.00  0.00    -0.213 NA
ATOM      4  O   UNL d   1      57.169   0.569  31.688  0.00  0.00    -0.271 OA
ATOM      5  C   UNL d   1      57.351  -0.119  31.237  0.00  0.00     0.184 A 
ENDROOT
BRANCH   5   6
ATOM      6  C   UNL d   1      57.757  -0.338  30.648  0.00  0.00     0.041 A 
ATOM      7  C   UNL d   1      57.887   0.469  30.465  0.00  0.00     0.004 A 
ATOM      8  C   UNL d   1      58.343   0.681  29.806  0.00  0.00     0.000 A 
ATOM      9  C   UNL d   1      58.667   0.087  29.334  0.00  0.00     0.000 A 
ATOM     10  C   UNL d   1      58.537  -0.720  29.517  0.00  0.00     0.000 A 
ATOM     11  C   UNL d   1      58.087  -0.910  30.168  0.00  0.00     0.004 A 
ENDBRANCH   5   6
BRANCH   1  12
ATOM     12  C   UNL d   1      56.084  -0.802  32.641  0.00  0.00     0.317 C 
ATOM     13  O   UNL d   1      55.292  -0.603  32.978  0.00  0.00    -0.257 OA
BRANCH  12  14
ATOM     14  O   UNL d   1      56.156  -1.410  33.047  0.00  0.00    -0.294 OA
ATOM     15  C   UNL d   1      55.556  -1.951  33.339  0.00  0.00     0.185 C 
ENDBRANCH  12  14
ENDBRANCH   1  12
BRANCH   2  16
ATOM     16  N   UNL d   1      56.287   0.525  32.803  0.00  0.00    -0.281 N 
ATOM     17  C   UNL d   1      56.940   0.681  33.246  0.00  0.00     0.101 C 
ATOM     18  C   UNL d   1      55.561   0.665  33.096  0.00  0.00     0.101 C 
ENDBRANCH   2  16
TORSDOF 4
ENDMDL
MODEL 3
REMARK VINA RESULT:      -3.0      1.385      3.614
REMARK  4 active torsions:
REMARK  status: ('A' for Active; 'I' for Inactive)
REMARK    1  A    between atoms: C_6  and  C_1 
REMARK    2  A    between atoms: N_7  and  C_2 
REMARK    3  A    between atoms: C_8  and  C_5 
REMARK    4  A    between atoms: O_10  and  C_6 
ROOT
ATOM      1  C   UNL d   1      58.249  -0.812  30.022  0.00  0.00     0.186 A 
ATOM      2  C   UNL d   1      58.946  -0.418  29.747  0.00  0.00     0.193 A 
ATOM      3  N   UNL d   1      58.253  -1.569  29.737  0.00  0.00    -0.213 NA
ATOM      4  O   UNL d   1      59.367  -0.986  29.280  0.00  0.00    -0.271 OA
ATOM      5  C   UNL d   1      58.898  -1.685  29.303  0.00  0.00     0.184 A 
ENDROOT
BRANCH   5   6
ATOM      6  C   UNL d   1      58.889  -2.388  29.047  0.00  0.00     0.041 A 
ATOM      7  C   UNL d   1      59.726  -2.367  29.020  0.00  0.00     0.004 A 
ATOM      8  C   UNL d   1      60.154  -3.028  28.761  0.00  0.00     0.000 A 
ATOM      9  C   UNL d   1      59.745  -3.706  28.530  0.00  0.00     0.000 A 
ATOM     10  C   UNL d   1      58.908  -3.727  28.557  0.00  0.00     0.000 A 
ATOM     11  C   UNL d   1      58.504  -3.070  28.814  0.00  0.00     0.004 A 
ENDBRANCH   5   6
BRANCH   1  12
ATOM     12  C   UNL d   1      57.851  -0.384  30.422  0.00  0.00     0.317 C 
ATOM     13  O   UNL d   1      57.362   0.341  30.299  0.00  0.00    -0.257 OA
BRANCH  12  14
ATOM     14  O   UNL d   1      57.707  -0.416  31.142  0.00  0.00    -0.294 OA
ATOM     15  C   UNL d   1      56.957  -0.354  31.556  0.00  0.00     0.185 C 
ENDBRANCH  12  14
ENDBRANCH   1  12
BRANCH   2  16
ATOM     16  N   UNL d   1      58.977   0.202  29.959  0.00  0.00    -0.281 N 
ATOM     17  C   UNL d   1      59.002   0.511  29.216  0.00  0.00     0.101 C 
ATOM     18  C   UNL d   1      58.996   0.681  30.592  0.00  0.00     0.101 C 
ENDBRANCH   2  16
TORSDOF 4
ENDMDL
MODEL 4
REMARK VINA RESULT:      -2.3      1.486      2.624
REMARK  4 active torsions:
REMARK  status: ('A' for Active; 'I' for Inactive)
REMARK    1  A    between atoms: C_6  and  C_1 
REMARK    2  A    between atoms: N_7  and  C_2 
REMARK    3  A    between atoms: C_8  and  C_5 
REMARK    4  A    between atoms: O_10  and  C_6 
ROOT
ATOM      1  C   UNL d   1      57.021   0.140  31.825  0.00  0.00     0.186 A 
ATOM      2  C   UNL d   1      57.602   0.496  32.327  0.00  0.00     0.193 A 
ATOM      3  N   UNL d   1      56.319   0.110  32.226  0.00  0.00    -0.213 NA
ATOM      4  O   UNL d   1      57.204   0.678  33.053  0.00  0.00    -0.271 OA
ATOM      5  C   UNL d   1      56.410   0.421  32.943  0.00  0.00     0.184 A 
ENDROOT
BRANCH   5   6
ATOM      6  C   UNL d   1      55.754   0.387  33.301  0.00  0.00     0.041 A 
ATOM      7  C   UNL d   1      56.153   0.601  34.006  0.00  0.00     0.004 A 
ATOM      8  C   UNL d   1      55.734   0.681  34.717  0.00  0.00     0.000 A 
ATOM      9  C   UNL d   1      54.920   0.547  34.721  0.00  0.00     0.000 A 
ATOM     10  C   UNL d   1      54.521   0.332  34.015  0.00  0.00     0.000 A 
ATOM     11  C   UNL d   1      54.948   0.258  33.327  0.00  0.00     0.004 A 
ENDBRANCH   5   6
BRANCH   1  12
ATOM     12  C   UNL d   1      57.296  -0.037  31.197  0.00  0.00     0.317 C 
ATOM     13  O   UNL d   1      57.456   0.367  30.428  0.00  0.00    -0.257 OA
BRANCH  12  14
ATOM     14  O   UNL d   1      57.561  -0.683  30.966  0.00  0.00    -0.294 OA
ATOM     15  C   UNL d   1      57.458  -1.082  30.213  0.00  0.00     0.185 C 
ENDBRANCH  12  14
ENDBRANCH   1  12
BRANCH   2  16
ATOM     16  N   UNL d   1      58.187   0.537  32.034  0.00  0.00    -0.281 N 
ATOM     17  C   UNL d   1      58.580   0.682  32.722  0.00  0.00     0.101 C 
ATOM     18  C   UNL d   1      58.584   0.500  31.347  0.00  0.00     0.101 C 
ENDBRANCH   2  16
TORSDOF 4
ENDMDL
MODEL 5
REMARK VINA RESULT:      -1.8      1.405      2.280
REMARK  4 active torsions:
REMARK  status: ('A' for Active; 'I' for Inactive)
REMARK    1  A    between atoms: C_6  and  C_1 
REMARK    2  A    between atoms: N_7  and  C_2 
REMARK    3  A    between atoms: C_8  and  C_5 
REMARK    4  A    between atoms: O_10  and  C_6 
ROOT
ATOM      1  C   UNL d   1      59.215  -1.182  29.538  0.00  0.00     0.186 A 
ATOM      2  C   UNL d   1      59.706  -0.501  29.431  0.00  0.00     0.193 A 
ATOM      3  N   UNL d   1      58.593  -0.978  30.014  0.00  0.00    -0.213 NA
ATOM      4  O   UNL d   1      59.340   0.123  29.872  0.00  0.00    -0.271 OA
ATOM      5  C   UNL d   1      58.653  -0.221  30.217  0.00  0.00     0.184 A 
ENDROOT
BRANCH   5   6
ATOM      6  C   UNL d   1      58.073  -0.046  30.656  0.00  0.00     0.041 A 
ATOM      7  C   UNL d   1      58.611   0.323  31.183  0.00  0.00     0.004 A 
ATOM      8  C   UNL d   1      58.337   0.682  31.878  0.00  0.00     0.000 A 
ATOM      9  C   UNL d   1      57.529   0.672  32.044  0.00  0.00     0.000 A 
ATOM     10  C   UNL d   1      56.991   0.304  31.517  0.00  0.00     0.000 A 
ATOM     11  C   UNL d   1      57.277  -0.044  30.839  0.00  0.00     0.004 A 
ENDBRANCH   5   6
BRANCH   1  12
ATOM     12  C   UNL d   1      59.471  -1.744  29.190  0.00  0.00     0.317 C 
ATOM     13  O   UNL d   1      60.231  -2.192  29.162  0.00  0.00    -0.257 OA
BRANCH  12  14
ATOM     14  O   UNL d   1      59.146  -2.173  28.689  0.00  0.00    -0.294 OA
ATOM     15  C   UNL d   1      58.988  -3.016  28.707  0.00  0.00     0.185 C 
ENDBRANCH  12  14
ENDBRANCH   1  12
BRANCH   2  16
ATOM     16  N   UNL d   1      60.222  -0.630  29.048  0.00  0.00    -0.281 N 
ATOM     17  C   UNL d   1      59.970  -0.147  28.455  0.00  0.00     0.101 C 
ATOM     18  C   UNL d   1      60.904  -1.031  28.974  0.00  0.00     0.101 C 
ENDBRANCH   2  16
TORSDOF 4
ENDMDL
