MODEL 1
REMARK VINA RESULT:      17.2      0.000      0.000
REMARK  3 active torsions:
REMARK  status: ('A' for Active; 'I' for Inactive)
REMARK    1  A    between atoms: O_3  and  C_1 
REMARK    2  A    between atoms: C_4  and  O_3 
REMARK    3  A    between atoms: C_8  and  C_4 
ROOT
ATOM      1  C   UNL d   1      46.408 -17.887  43.549  0.00  0.00     0.131 A 
ATOM      2  C   UNL d   1      46.487 -18.176  42.778  0.00  0.00     0.106 A 
ATOM      3  C   UNL d   1      46.519 -18.987  42.635  0.00  0.00     0.030 A 
ATOM      4  C   UNL d   1      46.359 -18.420  44.183  0.00  0.00     0.083 A 
ATOM      5  C   UNL d   1      46.470 -19.519  43.270  0.00  0.00     0.060 A 
ATOM      6  C   UNL d   1      46.391 -19.238  44.039  0.00  0.00     0.025 A 
ATOM      7  N   UNL d   1      46.535 -17.644  42.147  0.00  0.00    -0.242 NA
ATOM      8 CL   UNL d   1      46.280 -18.148  44.955  0.00  0.00    -0.080 Cl
ATOM      9 CL   UNL d   1      46.502 -20.330  43.127  0.00  0.00    -0.082 Cl
ATOM     10  C   UNL d   1      46.597 -19.268  41.875  0.00  0.00     0.004 A 
ATOM     11  C   UNL d   1      46.615 -17.925  41.379  0.00  0.00     0.099 A 
ATOM     12  C   UNL d   1      46.646 -18.740  41.240  0.00  0.00     0.021 A 
ENDROOT
BRANCH   1  13
ATOM     13  O   UNL d   1      46.376 -17.086  43.698  0.00  0.00    -0.269 OA
BRANCH  13  14
ATOM     14  C   UNL d   1      45.692 -16.745  44.009  0.00  0.00     0.323 C 
ATOM     15  O   UNL d   1      45.020 -17.207  44.113  0.00  0.00    -0.257 OA
BRANCH  14  16
ATOM     16  C   UNL d   1      45.679 -15.949  44.215  0.00  0.00     0.163 A 
ATOM     17  O   UNL d   1      46.257 -15.385  44.026  0.00  0.00    -0.300 OA
ATOM     18  C   UNL d   1      46.024 -14.668  44.338  0.00  0.00     0.123 A 
ATOM     19  C   UNL d   1      45.293 -14.780  44.729  0.00  0.00     0.029 A 
ATOM     20  C   UNL d   1      45.089 -15.573  44.647  0.00  0.00     0.032 A 
ENDBRANCH  14  16
ENDBRANCH  13  14
ENDBRANCH   1  13
TORSDOF 3
ENDMDL
