MODEL 1
REMARK VINA RESULT:      -7.1      0.000      0.000
REMARK  6 active torsions:
REMARK  status: ('A' for Active; 'I' for Inactive)
REMARK    1  A    between atoms: C_2  and  S_1 
REMARK    2  A    between atoms: N_5  and  S_1 
REMARK    3  A    between atoms: C_14  and  N_5 
REMARK    4  A    between atoms: C_7  and  C_6 
REMARK    5  A    between atoms: C_19  and  C_14 
REMARK    6  A    between atoms: O_18  and  C_19 
ROOT
ATOM      1  C   UNL d   1     -46.218  13.341  22.464  0.00  0.00     0.105 A 
ATOM      2  C   UNL d   1     -47.754  13.916  22.737  0.00  0.00     0.000 A 
ATOM      3  C   UNL d   1     -46.866  12.977  22.106  0.00  0.00     0.013 A 
ATOM      4  C   UNL d   1     -46.334  13.992  22.958  0.00  0.00     0.013 A 
ATOM      5  C   UNL d   1     -47.106  14.281  23.096  0.00  0.00     0.001 A 
ATOM      6  C   UNL d   1     -47.638  13.266  22.243  0.00  0.00     0.001 A 
ENDROOT
BRANCH   1   7
ATOM      7  S   UNL d   1     -45.454  13.058  22.331  0.00  0.00     0.285 S 
ATOM      8  O   UNL d   1     -44.695  12.782  22.196  0.00  0.00    -0.198 OA
ATOM      9  O   UNL d   1     -45.275  13.735  21.898  0.00  0.00    -0.198 OA
BRANCH   7  10
ATOM     10  N   UNL d   1     -45.628  12.384  22.761  0.00  0.00    -0.155 NA
BRANCH  10  11
ATOM     11  C   UNL d   1     -45.046  11.800  22.874  0.00  0.00     0.138 C 
BRANCH  11  12
ATOM     12  C   UNL d   1     -45.222  11.133  23.316  0.00  0.00     0.138 C 
BRANCH  12  13
ATOM     13  O   UNL d   1     -44.616  10.710  23.698  0.00  0.00    -0.325 OA
ATOM     14  C   UNL d   1     -44.571   9.893  23.634  0.00  0.00     0.182 C 
ENDBRANCH  12  13
ENDBRANCH  11  12
ENDBRANCH  10  11
ENDBRANCH   7  10
ENDBRANCH   1   7
BRANCH   2  15
ATOM     15  C   UNL d   1     -48.508  14.202  22.874  0.00  0.00     0.000 A 
ATOM     16  C   UNL d   1     -49.081  13.708  23.205  0.00  0.00     0.000 A 
ATOM     17  C   UNL d   1     -49.844  13.990  23.345  0.00  0.00     0.000 A 
ATOM     18  C   UNL d   1     -50.033  14.781  23.150  0.00  0.00     0.000 A 
ATOM     19  C   UNL d   1     -49.460  15.275  22.819  0.00  0.00     0.000 A 
ATOM     20  C   UNL d   1     -50.795  15.066  23.289  0.00  0.00     0.000 C 
ATOM     21  C   UNL d   1     -48.697  14.990  22.680  0.00  0.00     0.000 A 
ENDBRANCH   2  15
TORSDOF 6
ENDMDL
MODEL 2
REMARK VINA RESULT:      -6.7      1.110      1.702
REMARK  6 active torsions:
REMARK  status: ('A' for Active; 'I' for Inactive)
REMARK    1  A    between atoms: C_2  and  S_1 
REMARK    2  A    between atoms: N_5  and  S_1 
REMARK    3  A    between atoms: C_14  and  N_5 
REMARK    4  A    between atoms: C_7  and  C_6 
REMARK    5  A    between atoms: C_19  and  C_14 
REMARK    6  A    between atoms: O_18  and  C_19 
ROOT
ATOM      1  C   UNL d   1     -46.490  12.635  23.062  0.00  0.00     0.105 A 
ATOM      2  C   UNL d   1     -47.834  13.604  22.922  0.00  0.00     0.000 A 
ATOM      3  C   UNL d   1     -47.177  12.341  22.712  0.00  0.00     0.013 A 
ATOM      4  C   UNL d   1     -46.471  13.411  23.342  0.00  0.00     0.013 A 
ATOM      5  C   UNL d   1     -47.147  13.898  23.271  0.00  0.00     0.001 A 
ATOM      6  C   UNL d   1     -47.853  12.828  22.642  0.00  0.00     0.001 A 
ENDROOT
BRANCH   1   7
ATOM      7  S   UNL d   1     -45.821  12.157  23.133  0.00  0.00     0.285 S 
ATOM      8  O   UNL d   1     -45.159  11.680  23.208  0.00  0.00    -0.198 OA
ATOM      9  O   UNL d   1     -46.205  11.697  23.698  0.00  0.00    -0.198 OA
BRANCH   7  10
ATOM     10  N   UNL d   1     -45.435  12.611  22.573  0.00  0.00    -0.155 NA
BRANCH  10  11
ATOM     11  C   UNL d   1     -44.680  12.390  22.304  0.00  0.00     0.138 C 
BRANCH  11  12
ATOM     12  C   UNL d   1     -44.275  12.879  21.785  0.00  0.00     0.138 C 
BRANCH  12  13
ATOM     13  O   UNL d   1     -43.619  12.590  21.363  0.00  0.00    -0.325 OA
ATOM     14  C   UNL d   1     -43.023  13.098  21.117  0.00  0.00     0.182 C 
ENDBRANCH  12  13
ENDBRANCH  11  12
ENDBRANCH  10  11
ENDBRANCH   7  10
ENDBRANCH   1   7
BRANCH   2  15
ATOM     15  C   UNL d   1     -48.493  14.083  22.854  0.00  0.00     0.000 A 
ATOM     16  C   UNL d   1     -48.452  14.777  22.408  0.00  0.00     0.000 A 
ATOM     17  C   UNL d   1     -49.114  15.266  22.336  0.00  0.00     0.000 A 
ATOM     18  C   UNL d   1     -49.826  15.053  22.719  0.00  0.00     0.000 A 
ATOM     19  C   UNL d   1     -49.867  14.359  23.165  0.00  0.00     0.000 A 
ATOM     20  C   UNL d   1     -50.490  15.540  22.649  0.00  0.00     0.000 C 
ATOM     21  C   UNL d   1     -49.203  13.873  23.235  0.00  0.00     0.000 A 
ENDBRANCH   2  15
TORSDOF 6
ENDMDL
MODEL 3
REMARK VINA RESULT:      -6.2      1.287      1.708
REMARK  6 active torsions:
REMARK  status: ('A' for Active; 'I' for Inactive)
REMARK    1  A    between atoms: C_2  and  S_1 
REMARK    2  A    between atoms: N_5  and  S_1 
REMARK    3  A    between atoms: C_14  and  N_5 
REMARK    4  A    between atoms: C_7  and  C_6 
REMARK    5  A    between atoms: C_19  and  C_14 
REMARK    6  A    between atoms: O_18  and  C_19 
ROOT
ATOM      1  C   UNL d   1     -46.301  12.857  22.745  0.00  0.00     0.105 A 
ATOM      2  C   UNL d   1     -47.896  12.522  23.069  0.00  0.00     0.000 A 
ATOM      3  C   UNL d   1     -46.538  12.684  23.515  0.00  0.00     0.013 A 
ATOM      4  C   UNL d   1     -46.857  12.864  22.135  0.00  0.00     0.013 A 
ATOM      5  C   UNL d   1     -47.659  12.695  22.298  0.00  0.00     0.001 A 
ATOM      6  C   UNL d   1     -47.341  12.515  23.679  0.00  0.00     0.001 A 
ENDROOT
BRANCH   1   7
ATOM      7  S   UNL d   1     -45.509  13.024  22.580  0.00  0.00     0.285 S 
ATOM      8  O   UNL d   1     -44.725  13.195  22.414  0.00  0.00    -0.198 OA
ATOM      9  O   UNL d   1     -45.714  13.787  22.347  0.00  0.00    -0.198 OA
BRANCH   7  10
ATOM     10  N   UNL d   1     -45.300  12.268  22.809  0.00  0.00    -0.155 NA
BRANCH  10  11
ATOM     11  C   UNL d   1     -44.509  12.017  22.752  0.00  0.00     0.138 C 
BRANCH  11  12
ATOM     12  C   UNL d   1     -44.329  11.221  22.829  0.00  0.00     0.138 C 
BRANCH  12  13
ATOM     13  O   UNL d   1     -43.896  10.951  23.486  0.00  0.00    -0.325 OA
ATOM     14  C   UNL d   1     -43.640  10.172  23.527  0.00  0.00     0.182 C 
ENDBRANCH  12  13
ENDBRANCH  11  12
ENDBRANCH  10  11
ENDBRANCH   7  10
ENDBRANCH   1   7
BRANCH   2  15
ATOM     15  C   UNL d   1     -48.682  12.358  23.225  0.00  0.00     0.000 A 
ATOM     16  C   UNL d   1     -48.895  11.619  23.525  0.00  0.00     0.000 A 
ATOM     17  C   UNL d   1     -49.687  11.445  23.684  0.00  0.00     0.000 A 
ATOM     18  C   UNL d   1     -50.272  12.026  23.539  0.00  0.00     0.000 A 
ATOM     19  C   UNL d   1     -50.059  12.765  23.240  0.00  0.00     0.000 A 
ATOM     20  C   UNL d   1     -51.064  11.856  23.698  0.00  0.00     0.000 C 
ATOM     21  C   UNL d   1     -49.266  12.934  23.081  0.00  0.00     0.000 A 
ENDBRANCH   2  15
TORSDOF 6
ENDMDL
MODEL 4
REMARK VINA RESULT:      -5.7      7.921      9.042
REMARK  6 active torsions:
REMARK  status: ('A' for Active; 'I' for Inactive)
REMARK    1  A    between atoms: C_2  and  S_1 
REMARK    2  A    between atoms: N_5  and  S_1 
REMARK    3  A    between atoms: C_14  and  N_5 
REMARK    4  A    between atoms: C_7  and  C_6 
REMARK    5  A    between atoms: C_19  and  C_14 
REMARK    6  A    between atoms: O_18  and  C_19 
ROOT
ATOM      1  C   UNL d   1     -40.259  14.480  18.935  0.00  0.00     0.105 A 
ATOM      2  C   UNL d   1     -39.734  14.817  20.475  0.00  0.00     0.000 A 
ATOM      3  C   UNL d   1     -40.627  15.071  19.377  0.00  0.00     0.013 A 
ATOM      4  C   UNL d   1     -39.630  14.056  19.259  0.00  0.00     0.013 A 
ATOM      5  C   UNL d   1     -39.365  14.226  20.033  0.00  0.00     0.001 A 
ATOM      6  C   UNL d   1     -40.363  15.241  20.152  0.00  0.00     0.001 A 
ENDROOT
BRANCH   1   7
ATOM      7  S   UNL d   1     -40.518  14.309  18.169  0.00  0.00     0.285 S 
ATOM      8  O   UNL d   1     -40.777  14.137  17.412  0.00  0.00    -0.198 OA
ATOM      9  O   UNL d   1     -41.067  13.775  18.469  0.00  0.00    -0.198 OA
BRANCH   7  10
ATOM     10  N   UNL d   1     -39.973  14.839  17.866  0.00  0.00    -0.155 NA
BRANCH  10  11
ATOM     11  C   UNL d   1     -39.846  14.884  17.046  0.00  0.00     0.138 C 
BRANCH  11  12
ATOM     12  C   UNL d   1     -39.338  15.452  16.744  0.00  0.00     0.138 C 
BRANCH  12  13
ATOM     13  O   UNL d   1     -38.860  15.281  16.086  0.00  0.00    -0.325 OA
ATOM     14  C   UNL d   1     -38.365  15.854  15.767  0.00  0.00     0.182 C 
ENDBRANCH  12  13
ENDBRANCH  11  12
ENDBRANCH  10  11
ENDBRANCH   7  10
ENDBRANCH   1   7
BRANCH   2  15
ATOM     15  C   UNL d   1     -39.472  14.980  21.233  0.00  0.00     0.000 A 
ATOM     16  C   UNL d   1     -39.408  14.370  21.785  0.00  0.00     0.000 A 
ATOM     17  C   UNL d   1     -39.145  14.527  22.552  0.00  0.00     0.000 A 
ATOM     18  C   UNL d   1     -38.943  15.311  22.765  0.00  0.00     0.000 A 
ATOM     19  C   UNL d   1     -39.007  15.921  22.212  0.00  0.00     0.000 A 
ATOM     20  C   UNL d   1     -38.679  15.472  23.531  0.00  0.00     0.000 C 
ATOM     21  C   UNL d   1     -39.270  15.760  21.446  0.00  0.00     0.000 A 
ENDBRANCH   2  15
TORSDOF 6
ENDMDL
MODEL 5
REMARK VINA RESULT:      -5.5      7.830      9.518
REMARK  6 active torsions:
REMARK  status: ('A' for Active; 'I' for Inactive)
REMARK    1  A    between atoms: C_2  and  S_1 
REMARK    2  A    between atoms: N_5  and  S_1 
REMARK    3  A    between atoms: C_14  and  N_5 
REMARK    4  A    between atoms: C_7  and  C_6 
REMARK    5  A    between atoms: C_19  and  C_14 
REMARK    6  A    between atoms: O_18  and  C_19 
ROOT
ATOM      1  C   UNL d   1     -40.032  14.824  19.416  0.00  0.00     0.105 A 
ATOM      2  C   UNL d   1     -39.334  14.429  17.960  0.00  0.00     0.000 A 
ATOM      3  C   UNL d   1     -40.349  14.217  18.957  0.00  0.00     0.013 A 
ATOM      4  C   UNL d   1     -39.367  15.235  19.151  0.00  0.00     0.013 A 
ATOM      5  C   UNL d   1     -39.016  15.036  18.419  0.00  0.00     0.001 A 
ATOM      6  C   UNL d   1     -39.999  14.018  18.224  0.00  0.00     0.001 A 
ENDROOT
BRANCH   1   7
ATOM      7  S   UNL d   1     -40.375  15.024  20.140  0.00  0.00     0.285 S 
ATOM      8  O   UNL d   1     -40.719  15.225  20.855  0.00  0.00    -0.198 OA
ATOM      9  O   UNL d   1     -40.876  15.556  19.760  0.00  0.00    -0.198 OA
BRANCH   7  10
ATOM     10  N   UNL d   1     -39.880  14.496  20.521  0.00  0.00    -0.155 NA
BRANCH  10  11
ATOM     11  C   UNL d   1     -39.871  14.458  21.352  0.00  0.00     0.138 C 
BRANCH  11  12
ATOM     12  C   UNL d   1     -39.402  13.901  21.728  0.00  0.00     0.138 C 
BRANCH  12  13
ATOM     13  O   UNL d   1     -39.220  13.982  22.535  0.00  0.00    -0.325 OA
ATOM     14  C   UNL d   1     -38.761  13.419  22.919  0.00  0.00     0.182 C 
ENDBRANCH  12  13
ENDBRANCH  11  12
ENDBRANCH  10  11
ENDBRANCH   7  10
ENDBRANCH   1   7
BRANCH   2  15
ATOM     15  C   UNL d   1     -38.988  14.237  17.244  0.00  0.00     0.000 A 
ATOM     16  C   UNL d   1     -39.061  14.751  16.602  0.00  0.00     0.000 A 
ATOM     17  C   UNL d   1     -38.715  14.564  15.876  0.00  0.00     0.000 A 
ATOM     18  C   UNL d   1     -38.288  13.849  15.796  0.00  0.00     0.000 A 
ATOM     19  C   UNL d   1     -38.215  13.335  16.438  0.00  0.00     0.000 A 
ATOM     20  C   UNL d   1     -37.940  13.659  15.072  0.00  0.00     0.000 C 
ATOM     21  C   UNL d   1     -38.563  13.526  17.163  0.00  0.00     0.000 A 
ENDBRANCH   2  15
TORSDOF 6
ENDMDL
MODEL 6
REMARK VINA RESULT:      -4.7      1.461      2.049
REMARK  6 active torsions:
REMARK  status: ('A' for Active; 'I' for Inactive)
REMARK    1  A    between atoms: C_2  and  S_1 
REMARK    2  A    between atoms: N_5  and  S_1 
REMARK    3  A    between atoms: C_14  and  N_5 
REMARK    4  A    between atoms: C_7  and  C_6 
REMARK    5  A    between atoms: C_19  and  C_14 
REMARK    6  A    between atoms: O_18  and  C_19 
ROOT
ATOM      1  C   UNL d   1     -45.492  12.601  22.636  0.00  0.00     0.105 A 
ATOM      2  C   UNL d   1     -46.875  13.523  22.628  0.00  0.00     0.000 A 
ATOM      3  C   UNL d   1     -45.719  13.000  21.950  0.00  0.00     0.013 A 
ATOM      4  C   UNL d   1     -45.953  12.660  23.317  0.00  0.00     0.013 A 
ATOM      5  C   UNL d   1     -46.649  13.124  23.313  0.00  0.00     0.001 A 
ATOM      6  C   UNL d   1     -46.415  13.463  21.946  0.00  0.00     0.001 A 
ENDROOT
BRANCH   1   7
ATOM      7  S   UNL d   1     -44.806  12.142  22.643  0.00  0.00     0.285 S 
ATOM      8  O   UNL d   1     -44.127  11.684  22.655  0.00  0.00    -0.198 OA
ATOM      9  O   UNL d   1     -45.108  11.694  23.264  0.00  0.00    -0.198 OA
BRANCH   7  10
ATOM     10  N   UNL d   1     -44.502  12.584  22.026  0.00  0.00    -0.155 NA
BRANCH  10  11
ATOM     11  C   UNL d   1     -43.694  12.532  21.834  0.00  0.00     0.138 C 
BRANCH  11  12
ATOM     12  C   UNL d   1     -43.344  13.126  21.390  0.00  0.00     0.138 C 
BRANCH  12  13
ATOM     13  O   UNL d   1     -42.587  13.015  21.065  0.00  0.00    -0.325 OA
ATOM     14  C   UNL d   1     -42.096  13.657  20.919  0.00  0.00     0.182 C 
ENDBRANCH  12  13
ENDBRANCH  11  12
ENDBRANCH  10  11
ENDBRANCH   7  10
ENDBRANCH   1   7
BRANCH   2  15
ATOM     15  C   UNL d   1     -47.557  13.976  22.628  0.00  0.00     0.000 A 
ATOM     16  C   UNL d   1     -48.294  13.608  22.572  0.00  0.00     0.000 A 
ATOM     17  C   UNL d   1     -48.986  14.059  22.571  0.00  0.00     0.000 A 
ATOM     18  C   UNL d   1     -48.934  14.892  22.628  0.00  0.00     0.000 A 
ATOM     19  C   UNL d   1     -48.197  15.259  22.683  0.00  0.00     0.000 A 
ATOM     20  C   UNL d   1     -49.624  15.346  22.627  0.00  0.00     0.000 C 
ATOM     21  C   UNL d   1     -47.506  14.805  22.684  0.00  0.00     0.000 A 
ENDBRANCH   2  15
TORSDOF 6
ENDMDL
MODEL 7
REMARK VINA RESULT:      -4.4      1.872      4.695
REMARK  6 active torsions:
REMARK  status: ('A' for Active; 'I' for Inactive)
REMARK    1  A    between atoms: C_2  and  S_1 
REMARK    2  A    between atoms: N_5  and  S_1 
REMARK    3  A    between atoms: C_14  and  N_5 
REMARK    4  A    between atoms: C_7  and  C_6 
REMARK    5  A    between atoms: C_19  and  C_14 
REMARK    6  A    between atoms: O_18  and  C_19 
ROOT
ATOM      1  C   UNL d   1     -47.198  13.781  22.723  0.00  0.00     0.105 A 
ATOM      2  C   UNL d   1     -46.214  12.475  23.021  0.00  0.00     0.000 A 
ATOM      3  C   UNL d   1     -46.965  13.607  23.495  0.00  0.00     0.013 A 
ATOM      4  C   UNL d   1     -46.942  13.306  22.100  0.00  0.00     0.013 A 
ATOM      5  C   UNL d   1     -46.447  12.649  22.250  0.00  0.00     0.001 A 
ATOM      6  C   UNL d   1     -46.470  12.950  23.645  0.00  0.00     0.001 A 
ENDROOT
BRANCH   1   7
ATOM      7  S   UNL d   1     -47.687  14.429  22.571  0.00  0.00     0.285 S 
ATOM      8  O   UNL d   1     -48.167  15.075  22.421  0.00  0.00    -0.198 OA
ATOM      9  O   UNL d   1     -47.043  14.937  22.646  0.00  0.00    -0.198 OA
BRANCH   7  10
ATOM     10  N   UNL d   1     -48.329  13.929  22.496  0.00  0.00    -0.155 NA
BRANCH  10  11
ATOM     11  C   UNL d   1     -49.081  14.238  22.319  0.00  0.00     0.138 C 
BRANCH  11  12
ATOM     12  C   UNL d   1     -49.686  13.731  22.096  0.00  0.00     0.138 C 
BRANCH  12  13
ATOM     13  O   UNL d   1     -50.461  14.018  22.007  0.00  0.00    -0.325 OA
ATOM     14  C   UNL d   1     -50.971  13.681  21.458  0.00  0.00     0.182 C 
ENDBRANCH  12  13
ENDBRANCH  11  12
ENDBRANCH  10  11
ENDBRANCH   7  10
ENDBRANCH   1   7
BRANCH   2  15
ATOM     15  C   UNL d   1     -45.730  11.831  23.164  0.00  0.00     0.000 A 
ATOM     16  C   UNL d   1     -44.942  11.848  22.919  0.00  0.00     0.000 A 
ATOM     17  C   UNL d   1     -44.447  11.202  23.060  0.00  0.00     0.000 A 
ATOM     18  C   UNL d   1     -44.752  10.529  23.453  0.00  0.00     0.000 A 
ATOM     19  C   UNL d   1     -45.540  10.513  23.698  0.00  0.00     0.000 A 
ATOM     20  C   UNL d   1     -44.260   9.881  23.596  0.00  0.00     0.000 C 
ATOM     21  C   UNL d   1     -46.032  11.161  23.556  0.00  0.00     0.000 A 
ENDBRANCH   2  15
TORSDOF 6
ENDMDL
MODEL 8
REMARK VINA RESULT:      -4.1      8.223      9.180
REMARK  6 active torsions:
REMARK  status: ('A' for Active; 'I' for Inactive)
REMARK    1  A    between atoms: C_2  and  S_1 
REMARK    2  A    between atoms: N_5  and  S_1 
REMARK    3  A    between atoms: C_14  and  N_5 
REMARK    4  A    between atoms: C_7  and  C_6 
REMARK    5  A    between atoms: C_19  and  C_14 
REMARK    6  A    between atoms: O_18  and  C_19 
ROOT
ATOM      1  C   UNL d   1     -38.794  13.649  17.985  0.00  0.00     0.105 A 
ATOM      2  C   UNL d   1     -39.322  14.409  19.365  0.00  0.00     0.000 A 
ATOM      3  C   UNL d   1     -39.602  13.716  18.136  0.00  0.00     0.013 A 
ATOM      4  C   UNL d   1     -38.248  13.960  18.520  0.00  0.00     0.013 A 
ATOM      5  C   UNL d   1     -38.514  14.342  19.214  0.00  0.00     0.001 A 
ATOM      6  C   UNL d   1     -39.868  14.098  18.830  0.00  0.00     0.001 A 
ENDROOT
BRANCH   1   7
ATOM      7  S   UNL d   1     -38.527  13.272  17.300  0.00  0.00     0.285 S 
ATOM      8  O   UNL d   1     -38.263  12.903  16.618  0.00  0.00    -0.198 OA
ATOM      9  O   UNL d   1     -38.554  13.986  16.891  0.00  0.00    -0.198 OA
BRANCH   7  10
ATOM     10  N   UNL d   1     -38.499  12.560  17.701  0.00  0.00    -0.155 NA
BRANCH  10  11
ATOM     11  C   UNL d   1     -38.245  11.871  17.311  0.00  0.00     0.138 C 
BRANCH  11  12
ATOM     12  C   UNL d   1     -38.071  11.198  17.747  0.00  0.00     0.138 C 
BRANCH  12  13
ATOM     13  O   UNL d   1     -38.270  10.446  17.455  0.00  0.00    -0.325 OA
ATOM     14  C   UNL d   1     -37.940   9.769  17.782  0.00  0.00     0.182 C 
ENDBRANCH  12  13
ENDBRANCH  11  12
ENDBRANCH  10  11
ENDBRANCH   7  10
ENDBRANCH   1   7
BRANCH   2  15
ATOM     15  C   UNL d   1     -39.579  14.783  20.046  0.00  0.00     0.000 A 
ATOM     16  C   UNL d   1     -40.176  15.351  20.002  0.00  0.00     0.000 A 
ATOM     17  C   UNL d   1     -40.440  15.733  20.684  0.00  0.00     0.000 A 
ATOM     18  C   UNL d   1     -40.096  15.540  21.422  0.00  0.00     0.000 A 
ATOM     19  C   UNL d   1     -39.499  14.973  21.466  0.00  0.00     0.000 A 
ATOM     20  C   UNL d   1     -40.358  15.921  22.107  0.00  0.00     0.000 C 
ATOM     21  C   UNL d   1     -39.237  14.593  20.781  0.00  0.00     0.000 A 
ENDBRANCH   2  15
TORSDOF 6
ENDMDL
