MODEL 1
REMARK VINA RESULT:      76.9      0.000      0.000
REMARK  6 active torsions:
REMARK  status: ('A' for Active; 'I' for Inactive)
REMARK    1  A    between atoms: C_15  and  N_1 
REMARK    2  A    between atoms: S_12  and  C_3 
REMARK    3  A    between atoms: C_4  and  N_11 
REMARK    4  A    between atoms: C_14  and  C_8 
REMARK       I    between atoms: N_11  and  C_13 
REMARK    5  A    between atoms: C_17  and  S_12 
REMARK    6  A    between atoms: C_13  and  C_17 
ROOT
ATOM      1  N   UNL d   1      61.086  48.842  51.933  0.00  0.00    -0.018 NA
ATOM      2  C   UNL d   1      60.341  49.136  52.105  0.00  0.00     0.302 C 
ATOM      3  O   UNL d   1      60.203  49.516  52.831  0.00  0.00    -0.264 OA
ENDROOT
BRANCH   2   4
ATOM      4  C   UNL d   1      59.729  49.053  51.559  0.00  0.00     0.101 C 
BRANCH   4   5
ATOM      5  S   UNL d   1      59.204  49.683  51.422  0.00  0.00    -0.041 SA
BRANCH   5   6
ATOM      6  C   UNL d   1      58.460  49.686  51.776  0.00  0.00     0.219 A 
ATOM      7  N   UNL d   1      57.783  49.680  51.298  0.00  0.00    -0.186 N 
ATOM      8  N   UNL d   1      57.122  49.684  51.796  0.00  0.00    -0.038 NA
ATOM      9  N   UNL d   1      57.389  49.692  52.571  0.00  0.00    -0.022 NA
ATOM     10  N   UNL d   1      58.215  49.693  52.556  0.00  0.00    -0.101 NA
BRANCH   7  11
ATOM     11  C   UNL d   1      57.728  49.673  50.480  0.00  0.00     0.087 A 
ATOM     12  C   UNL d   1      58.415  49.707  50.025  0.00  0.00     0.019 A 
ATOM     13  C   UNL d   1      58.363  49.699  49.203  0.00  0.00     0.002 A 
ATOM     14  C   UNL d   1      57.639  49.658  48.828  0.00  0.00     0.000 A 
ATOM     15  C   UNL d   1      56.938  49.624  49.284  0.00  0.00     0.002 A 
ATOM     16  C   UNL d   1      56.987  49.631  50.115  0.00  0.00     0.019 A 
ENDBRANCH   7  11
ENDBRANCH   5   6
ENDBRANCH   4   5
ENDBRANCH   2   4
BRANCH   1  17
ATOM     17  C   UNL d   1      61.225  48.461  51.206  0.00  0.00     0.760 A 
ATOM     18  N   UNL d   1      61.429  47.679  51.093  0.00  0.00    -0.051 NA
ATOM     19  C   UNL d   1      61.506  47.555  50.290  0.00  0.00     0.147 A 
ATOM     20  S   UNL d   1      61.352  48.254  49.913  0.00  0.00     0.052 SA
ATOM     21  N   UNL d   1      61.178  48.811  50.490  0.00  0.00    -0.019 NA
BRANCH  19  22
ATOM     22  C   UNL d   1      61.710  46.822  49.956  0.00  0.00     0.026 A 
ATOM     23  C   UNL d   1      61.125  46.360  49.603  0.00  0.00     0.003 A 
ATOM     24  C   UNL d   1      61.331  45.635  49.274  0.00  0.00     0.011 A 
ATOM     25  C   UNL d   1      62.116  45.376  49.298  0.00  0.00     0.058 A 
ATOM     26  C   UNL d   1      62.688  45.834  49.646  0.00  0.00     0.011 A 
ATOM     27 CL   UNL d   1      62.334  44.656  48.974  0.00  0.00    -0.082 Cl
ATOM     28  C   UNL d   1      62.488  46.563  49.979  0.00  0.00     0.003 A 
ENDBRANCH  19  22
ENDBRANCH   1  17
TORSDOF 6
ENDMDL
