MODEL 1
REMARK VINA RESULT:      80.4      0.000      0.000
REMARK  3 active torsions:
REMARK  status: ('A' for Active; 'I' for Inactive)
REMARK    1  A    between atoms: C_13  and  N_2 
REMARK    2  A    between atoms: N_5  and  C_14 
REMARK    3  A    between atoms: C_14  and  C_13 
ROOT
ATOM      1  C   UNL d   1     -51.452  24.962  33.309  0.00  0.00     0.166 A 
ATOM      2  N   UNL d   1     -50.719  25.366  33.308  0.00  0.00    -0.288 N 
ATOM      3  C   UNL d   1     -51.300  24.147  33.310  0.00  0.00     0.117 A 
ATOM      4  N   UNL d   1     -52.232  25.254  33.309  0.00  0.00    -0.225 NA
ATOM      5  N   UNL d   1     -51.928  23.619  33.311  0.00  0.00    -0.241 NA
ATOM      6  C   UNL d   1     -50.469  24.044  33.310  0.00  0.00     0.037 A 
ATOM      7  C   UNL d   1     -50.126  24.792  33.309  0.00  0.00     0.067 A 
ATOM      8  C   UNL d   1     -52.867  24.727  33.310  0.00  0.00     0.101 A 
ATOM      9  C   UNL d   1     -52.715  23.911  33.311  0.00  0.00     0.099 A 
ATOM     10  C   UNL d   1     -49.999  23.343  33.310  0.00  0.00     0.003 A 
ATOM     11  C   UNL d   1     -49.281  24.854  33.308  0.00  0.00     0.018 A 
ATOM     12  C   UNL d   1     -53.656  25.013  33.310  0.00  0.00     0.021 A 
ATOM     13  C   UNL d   1     -53.348  23.411  33.312  0.00  0.00     0.021 A 
ATOM     14  C   UNL d   1     -49.184  23.403  33.310  0.00  0.00     0.000 A 
ATOM     15  C   UNL d   1     -48.834  24.151  33.309  0.00  0.00     0.002 A 
ATOM     16  C   UNL d   1     -54.134  23.672  33.312  0.00  0.00     0.002 A 
ATOM     17  C   UNL d   1     -54.286  24.489  33.311  0.00  0.00     0.002 A 
ENDROOT
BRANCH   2  18
ATOM     18  C   UNL d   1     -50.244  26.045  33.307  0.00  0.00     0.101 C 
BRANCH  18  19
ATOM     19  C   UNL d   1     -50.425  26.678  33.804  0.00  0.00     0.104 C 
BRANCH  19  20
ATOM     20  N   UNL d   1     -49.824  27.031  34.245  0.00  0.00    -0.250 N 
ATOM     21  C   UNL d   1     -49.193  27.223  34.124  0.00  0.00     0.378 A 
ATOM     22  O   UNL d   1     -48.946  27.487  34.689  0.00  0.00    -0.258 OA
ATOM     23  O   UNL d   1     -48.867  27.163  33.544  0.00  0.00    -0.237 OA
ATOM     24  C   UNL d   1     -49.426  27.457  35.158  0.00  0.00     0.121 A 
ATOM     25  C   UNL d   1     -49.969  27.175  34.883  0.00  0.00     0.092 A 
ATOM     26  C   UNL d   1     -49.442  27.649  35.803  0.00  0.00     0.026 A 
ATOM     27  C   UNL d   1     -50.526  27.084  35.244  0.00  0.00     0.020 A 
ATOM     28  C   UNL d   1     -50.538  27.278  35.889  0.00  0.00     0.002 A 
ATOM     29  C   UNL d   1     -49.999  27.558  36.164  0.00  0.00     0.002 A 
ENDBRANCH  19  20
ENDBRANCH  18  19
ENDBRANCH   2  18
TORSDOF 3
ENDMDL
