MODEL 1
REMARK VINA RESULT:      -3.0      0.000      0.000
REMARK  4 active torsions:
REMARK  status: ('A' for Active; 'I' for Inactive)
REMARK    1  A    between atoms: C_2  and  C_1 
REMARK       I    between atoms: N_7  and  C_2 
REMARK    2  A    between atoms: C_9  and  N_7 
REMARK    3  A    between atoms: O_16  and  C_10 
REMARK    4  A    between atoms: C_18  and  O_16 
ROOT
ATOM      1  C   UNL d   1      60.184   0.097  28.904  0.00  0.00     0.280 C 
ATOM      2  N   UNL d   1      59.899   0.682  29.409  0.00  0.00    -0.208 NA
ATOM      3  O   UNL d   1      60.882   0.229  28.483  0.00  0.00    -0.265 OA
ENDROOT
BRANCH   1   4
ATOM      4  C   UNL d   1      59.774  -0.614  28.821  0.00  0.00     0.065 A 
ATOM      5  C   UNL d   1      60.079  -1.367  28.972  0.00  0.00     0.011 A 
ATOM      6  C   UNL d   1      59.482  -1.908  28.816  0.00  0.00     0.030 A 
ATOM      7  C   UNL d   1      60.820  -1.628  29.231  0.00  0.00     0.001 A 
ATOM      8  C   UNL d   1      59.620  -2.719  28.918  0.00  0.00     0.006 A 
ATOM      9  S   UNL d   1      58.812  -1.494  28.570  0.00  0.00    -0.086 SA
ATOM     10  C   UNL d   1      60.342  -2.973  29.170  0.00  0.00     0.001 A 
ATOM     11  C   UNL d   1      60.948  -2.432  29.329  0.00  0.00     0.000 A 
ATOM     12  C   UNL d   1      59.003  -0.689  28.576  0.00  0.00     0.040 A 
ENDBRANCH   1   4
BRANCH   2  13
ATOM     13  C   UNL d   1      59.194   0.551  29.836  0.00  0.00     0.085 A 
ATOM     14  C   UNL d   1      59.233   0.293  30.617  0.00  0.00     0.021 A 
ATOM     15  C   UNL d   1      58.538   0.164  31.040  0.00  0.00     0.026 A 
ATOM     16  C   UNL d   1      57.798   0.292  30.683  0.00  0.00     0.100 A 
ATOM     17  C   UNL d   1      57.768   0.550  29.901  0.00  0.00     0.026 A 
ATOM     18  C   UNL d   1      58.468   0.681  29.475  0.00  0.00     0.021 A 
BRANCH  16  19
ATOM     19  O   UNL d   1      57.090   0.166  31.097  0.00  0.00    -0.305 OA
BRANCH  19  20
ATOM     20  C   UNL d   1      57.062  -0.377  31.717  0.00  0.00     0.123 C 
ATOM     21  C   UNL d   1      56.366  -0.473  32.156  0.00  0.00     0.029 C 
ENDBRANCH  19  20
ENDBRANCH  16  19
ENDBRANCH   2  13
TORSDOF 4
ENDMDL
MODEL 2
REMARK VINA RESULT:      -2.1      1.352      3.683
REMARK  4 active torsions:
REMARK  status: ('A' for Active; 'I' for Inactive)
REMARK    1  A    between atoms: C_2  and  C_1 
REMARK       I    between atoms: N_7  and  C_2 
REMARK    2  A    between atoms: C_9  and  N_7 
REMARK    3  A    between atoms: O_16  and  C_10 
REMARK    4  A    between atoms: C_18  and  O_16 
ROOT
ATOM      1  C   UNL d   1      58.096   0.152  29.304  0.00  0.00     0.280 C 
ATOM      2  N   UNL d   1      58.137  -0.533  28.849  0.00  0.00    -0.208 NA
ATOM      3  O   UNL d   1      57.472   0.681  29.184  0.00  0.00    -0.265 OA
ENDROOT
BRANCH   1   4
ATOM      4  C   UNL d   1      58.671   0.307  29.874  0.00  0.00     0.065 A 
ATOM      5  C   UNL d   1      58.535   0.411  30.681  0.00  0.00     0.011 A 
ATOM      6  C   UNL d   1      59.262   0.552  31.035  0.00  0.00     0.030 A 
ATOM      7  C   UNL d   1      57.846   0.395  31.139  0.00  0.00     0.001 A 
ATOM      8  C   UNL d   1      59.308   0.679  31.853  0.00  0.00     0.006 A 
ATOM      9  S   UNL d   1      59.844   0.536  30.452  0.00  0.00    -0.086 SA
ATOM     10  C   UNL d   1      58.636   0.664  32.298  0.00  0.00     0.001 A 
ATOM     11  C   UNL d   1      57.900   0.522  31.947  0.00  0.00     0.000 A 
ATOM     12  C   UNL d   1      59.468   0.383  29.731  0.00  0.00     0.040 A 
ENDBRANCH   1   4
BRANCH   2  13
ATOM     13  C   UNL d   1      58.765  -1.070  28.967  0.00  0.00     0.085 A 
ATOM     14  C   UNL d   1      58.648  -1.735  29.440  0.00  0.00     0.021 A 
ATOM     15  C   UNL d   1      59.267  -2.266  29.557  0.00  0.00     0.026 A 
ATOM     16  C   UNL d   1      60.009  -2.134  29.203  0.00  0.00     0.100 A 
ATOM     17  C   UNL d   1      60.116  -1.466  28.732  0.00  0.00     0.026 A 
ATOM     18  C   UNL d   1      59.493  -0.932  28.614  0.00  0.00     0.021 A 
BRANCH  16  19
ATOM     19  O   UNL d   1      60.641  -2.661  29.313  0.00  0.00    -0.305 OA
BRANCH  19  20
ATOM     20  C   UNL d   1      60.547  -3.463  29.150  0.00  0.00     0.123 C 
ATOM     21  C   UNL d   1      61.133  -4.004  29.370  0.00  0.00     0.029 C 
ENDBRANCH  19  20
ENDBRANCH  16  19
ENDBRANCH   2  13
TORSDOF 4
ENDMDL
MODEL 3
REMARK VINA RESULT:      -1.4      1.457      2.142
REMARK  4 active torsions:
REMARK  status: ('A' for Active; 'I' for Inactive)
REMARK    1  A    between atoms: C_2  and  C_1 
REMARK       I    between atoms: N_7  and  C_2 
REMARK    2  A    between atoms: C_9  and  N_7 
REMARK    3  A    between atoms: O_16  and  C_10 
REMARK    4  A    between atoms: C_18  and  O_16 
ROOT
ATOM      1  C   UNL d   1      58.193  -0.076  29.281  0.00  0.00     0.280 C 
ATOM      2  N   UNL d   1      57.464  -0.199  29.645  0.00  0.00    -0.208 NA
ATOM      3  O   UNL d   1      58.249  -0.129  28.458  0.00  0.00    -0.265 OA
ENDROOT
BRANCH   1   4
ATOM      4  C   UNL d   1      58.858   0.098  29.735  0.00  0.00     0.065 A 
ATOM      5  C   UNL d   1      59.586  -0.290  29.693  0.00  0.00     0.011 A 
ATOM      6  C   UNL d   1      60.084   0.065  30.241  0.00  0.00     0.030 A 
ATOM      7  C   UNL d   1      59.859  -0.917  29.229  0.00  0.00     0.001 A 
ATOM      8  C   UNL d   1      60.862  -0.206  30.330  0.00  0.00     0.006 A 
ATOM      9  S   UNL d   1      59.668   0.668  30.620  0.00  0.00    -0.086 SA
ATOM     10  C   UNL d   1      61.128  -0.818  29.877  0.00  0.00     0.001 A 
ATOM     11  C   UNL d   1      60.630  -1.179  29.323  0.00  0.00     0.000 A 
ATOM     12  C   UNL d   1      58.905   0.682  30.299  0.00  0.00     0.040 A 
ENDBRANCH   1   4
BRANCH   2  13
ATOM     13  C   UNL d   1      57.403  -0.147  30.475  0.00  0.00     0.085 A 
ATOM     14  C   UNL d   1      57.316   0.591  30.831  0.00  0.00     0.021 A 
ATOM     15  C   UNL d   1      57.256   0.645  31.651  0.00  0.00     0.026 A 
ATOM     16  C   UNL d   1      57.283  -0.041  32.121  0.00  0.00     0.100 A 
ATOM     17  C   UNL d   1      57.370  -0.776  31.757  0.00  0.00     0.026 A 
ATOM     18  C   UNL d   1      57.431  -0.829  30.931  0.00  0.00     0.021 A 
BRANCH  16  19
ATOM     19  O   UNL d   1      57.224  -0.002  32.948  0.00  0.00    -0.305 OA
BRANCH  19  20
ATOM     20  C   UNL d   1      56.710   0.537  33.303  0.00  0.00     0.123 C 
ATOM     21  C   UNL d   1      56.441   0.409  34.075  0.00  0.00     0.029 C 
ENDBRANCH  19  20
ENDBRANCH  16  19
ENDBRANCH   2  13
TORSDOF 4
ENDMDL
