MODEL 1
REMARK VINA RESULT:      27.7      0.000      0.000
REMARK  6 active torsions:
REMARK  status: ('A' for Active; 'I' for Inactive)
REMARK    1  A    between atoms: C_6  and  S_1 
REMARK    2  A    between atoms: N_7  and  S_1 
REMARK    3  A    between atoms: N_2  and  C_3 
REMARK       I    between atoms: C_4  and  N_2 
REMARK    4  A    between atoms: C_3  and  N_11 
REMARK    5  A    between atoms: C_5  and  C_4 
REMARK    6  A    between atoms: N_11  and  C_19 
ROOT
ATOM      1  C   UNL d   1      13.348  12.370  -3.519  0.00  0.00     0.104 A 
ATOM      2  C   UNL d   1      14.042  11.966  -3.316  0.00  0.00     0.014 A 
ATOM      3  C   UNL d   1      12.803  12.587  -2.945  0.00  0.00     0.014 A 
ATOM      4  C   UNL d   1      13.630  11.998  -1.934  0.00  0.00     0.084 A 
ATOM      5  C   UNL d   1      12.939  12.402  -2.146  0.00  0.00     0.020 A 
ATOM      6  C   UNL d   1      14.182  11.779  -2.513  0.00  0.00     0.020 A 
ENDROOT
BRANCH   4   7
ATOM      7  N   UNL d   1      13.762  11.814  -1.126  0.00  0.00    -0.217 NA
BRANCH   7   8
ATOM      8  C   UNL d   1      13.998  12.364  -0.644  0.00  0.00     0.224 C 
ATOM      9  S   UNL d   1      13.484  12.838  -0.297  0.00  0.00    -0.037 SA
BRANCH   8  10
ATOM     10  N   UNL d   1      15.376  12.430  -0.457  0.00  0.00    -0.178 NA
ATOM     11  C   UNL d   1      15.707  13.116  -0.266  0.00  0.00     0.287 C 
ATOM     12  O   UNL d   1      16.497  13.150  -0.160  0.00  0.00    -0.265 OA
BRANCH  11  13
ATOM     13  C   UNL d   1      15.263  13.751  -0.184  0.00  0.00     0.087 A 
ATOM     14  S   UNL d   1      14.488  13.786  -0.060  0.00  0.00    -0.082 SA
ATOM     15  C   UNL d   1      14.288  14.539  -0.014  0.00  0.00     0.036 A 
ATOM     16  C   UNL d   1      14.914  14.966  -0.106  0.00  0.00     0.008 A 
ATOM     17  C   UNL d   1      15.524  14.498  -0.212  0.00  0.00     0.012 A 
ENDBRANCH  11  13
ENDBRANCH   8  10
ENDBRANCH   7   8
ENDBRANCH   4   7
BRANCH   1  18
ATOM     18  S   UNL d   1      13.199  12.561  -4.314  0.00  0.00     0.271 S 
ATOM     19  O   UNL d   1      12.803  13.248  -4.093  0.00  0.00    -0.200 OA
ATOM     20  O   UNL d   1      13.601  11.863  -4.554  0.00  0.00    -0.200 OA
BRANCH  18  21
ATOM     21  N   UNL d   1      13.059  12.734  -5.143  0.00  0.00    -0.226 N 
ATOM     22  C   UNL d   1      13.138  12.142  -5.732  0.00  0.00     0.111 C 
ATOM     23  C   UNL d   1      12.841  13.515  -5.346  0.00  0.00     0.111 C 
ENDBRANCH  18  21
ENDBRANCH   1  18
TORSDOF 6
ENDMDL
