MODEL 1
REMARK VINA RESULT:      47.2      0.000      0.000
REMARK  4 active torsions:
REMARK  status: ('A' for Active; 'I' for Inactive)
REMARK    1  A    between atoms: N_15  and  C_2 
REMARK    2  A    between atoms: C_3  and  C_9 
REMARK    3  A    between atoms: C_11  and  C_7 
REMARK       I    between atoms: C_9  and  N_14 
REMARK    4  A    between atoms: N_14  and  N_15 
ROOT
ATOM      1  C   UNL d   1      14.620  12.469  -1.980  0.00  0.00     0.062 A 
ATOM      2  N   UNL d   1      13.048  12.130  -2.341  0.00  0.00    -0.245 NA
ATOM      3  C   UNL d   1      13.572  12.362  -2.945  0.00  0.00     0.087 A 
ATOM      4  C   UNL d   1      14.359  12.530  -2.752  0.00  0.00     0.025 A 
ATOM      5  C   UNL d   1      14.084  12.236  -1.388  0.00  0.00     0.022 A 
ATOM      6  C   UNL d   1      13.309  12.069  -1.568  0.00  0.00     0.082 A 
ATOM      7  C   UNL d   1      14.360  12.178  -0.612  0.00  0.00     0.002 A 
ATOM      8  C   UNL d   1      12.792  11.841  -0.983  0.00  0.00     0.019 A 
ATOM      9  C   UNL d   1      13.834  11.946  -0.015  0.00  0.00     0.000 A 
ATOM     10  C   UNL d   1      13.056  11.779  -0.202  0.00  0.00     0.002 A 
ENDROOT
BRANCH   1  11
ATOM     11  C   UNL d   1      15.404  12.639  -1.802  0.00  0.00     0.297 C 
ATOM     12  N   UNL d   1      15.521  13.383  -1.486  0.00  0.00    -0.104 NA
ATOM     13  O   UNL d   1      15.917  12.009  -1.984  0.00  0.00    -0.264 OA
BRANCH  12  14
ATOM     14  N   UNL d   1      14.880  13.881  -1.374  0.00  0.00    -0.118 NA
BRANCH  14  15
ATOM     15  C   UNL d   1      14.990  14.705  -1.332  0.00  0.00     0.215 A 
ATOM     16  N   UNL d   1      14.916  15.234  -1.953  0.00  0.00    -0.219 NA
ATOM     17  C   UNL d   1      15.070  15.990  -1.679  0.00  0.00     0.090 A 
ATOM     18  C   UNL d   1      15.243  15.925  -0.868  0.00  0.00     0.050 A 
ATOM     19  C   UNL d   1      15.079  16.725  -2.043  0.00  0.00     0.018 A 
ATOM     20  C   UNL d   1      15.425  16.595  -0.422  0.00  0.00     0.008 A 
ATOM     21  S   UNL d   1      15.193  15.133  -0.660  0.00  0.00    -0.045 SA
ATOM     22  C   UNL d   1      15.430  17.334  -0.803  0.00  0.00     0.001 A 
ATOM     23  C   UNL d   1      15.259  17.399  -1.604  0.00  0.00     0.002 A 
ATOM     24  C   UNL d   1      14.906  16.786  -2.851  0.00  0.00     0.002 C 
ENDBRANCH  14  15
ENDBRANCH  12  14
ENDBRANCH   1  11
BRANCH   3  25
ATOM     25  C   UNL d   1      13.306  12.424  -3.730  0.00  0.00     0.047 A 
ATOM     26  S   UNL d   1      13.375  11.780  -4.241  0.00  0.00    -0.085 SA
ATOM     27  C   UNL d   1      13.071  11.995  -4.979  0.00  0.00     0.035 A 
ATOM     28  C   UNL d   1      12.821  12.758  -4.918  0.00  0.00     0.007 A 
ATOM     29  C   UNL d   1      12.960  13.041  -4.148  0.00  0.00     0.009 A 
ENDBRANCH   3  25
TORSDOF 4
ENDMDL
