MODEL 1
REMARK VINA RESULT:     122.0      0.000      0.000
REMARK  6 active torsions:
REMARK  status: ('A' for Active; 'I' for Inactive)
REMARK       I    between atoms: C_6  and  N_1 
REMARK    1  A    between atoms: C_7  and  C_3 
REMARK    2  A    between atoms: C_14  and  C_4 
REMARK    3  A    between atoms: C_20  and  C_6 
REMARK    4  A    between atoms: C_11  and  C_22 
REMARK    5  A    between atoms: C_21  and  C_20 
REMARK    6  A    between atoms: C_22  and  C_21 
ROOT
ATOM      1  N   UNL d   1     -55.767-100.082 -43.696  0.00  0.00    -0.195 N 
ATOM      2  N   UNL d   1     -55.222-100.553 -43.261  0.00  0.00    -0.163 NA
ATOM      3  C   UNL d   1     -56.506-100.200 -43.378  0.00  0.00     0.088 A 
ATOM      4  C   UNL d   1     -55.652-100.953 -42.677  0.00  0.00     0.103 A 
ATOM      5  C   UNL d   1     -56.454-100.721 -42.763  0.00  0.00     0.040 A 
ATOM      6  C   UNL d   1     -55.545 -99.576 -44.358  0.00  0.00     0.280 C 
ATOM      7  O   UNL d   1     -54.745 -99.536 -44.598  0.00  0.00    -0.265 OA
ENDROOT
BRANCH   3   8
ATOM      8  C   UNL d   1     -57.202 -99.840 -43.644  0.00  0.00     0.019 A 
ATOM      9  C   UNL d   1     -57.537-100.052 -44.341  0.00  0.00     0.022 A 
ATOM     10  C   UNL d   1     -58.233 -99.692 -44.607  0.00  0.00     0.099 A 
ATOM     11  N   UNL d   1     -58.543 -99.919 -45.299  0.00  0.00    -0.241 NA
ATOM     12  C   UNL d   1     -58.594 -99.103 -44.151  0.00  0.00     0.099 A 
ATOM     13  C   UNL d   1     -59.264 -99.546 -45.575  0.00  0.00     0.120 A 
ATOM     14  C   UNL d   1     -59.625 -98.972 -45.139  0.00  0.00     0.120 A 
ATOM     15  N   UNL d   1     -59.266 -98.756 -44.408  0.00  0.00    -0.241 NA
ATOM     16  C   UNL d   1     -58.235 -98.903 -43.443  0.00  0.00     0.021 A 
ATOM     17  C   UNL d   1     -57.564 -99.251 -43.186  0.00  0.00     0.003 A 
ENDBRANCH   3   8
BRANCH   6  18
ATOM     18  C   UNL d   1     -56.131 -99.150 -44.730  0.00  0.00     0.063 C 
BRANCH  18  19
ATOM     19  C   UNL d   1     -55.975 -98.809 -45.474  0.00  0.00     0.011 C 
BRANCH  19  20
ATOM     20  C   UNL d   1     -55.377 -99.142 -45.930  0.00  0.00     0.070 C 
BRANCH  20  21
ATOM     21  C   UNL d   1     -55.416 -99.156 -46.749  0.00  0.00     0.211 C 
ATOM     22  O   UNL d   1     -54.713 -99.092 -47.187  0.00  0.00    -0.644 OA
ATOM     23  O   UNL d   1     -56.132 -99.231 -47.144  0.00  0.00    -0.644 OA
ENDBRANCH  20  21
ENDBRANCH  19  20
ENDBRANCH  18  19
ENDBRANCH   6  18
BRANCH   4  24
ATOM     24  C   UNL d   1     -55.331-101.491 -42.107  0.00  0.00     0.019 A 
ATOM     25  C   UNL d   1     -55.260-102.269 -42.288  0.00  0.00     0.002 A 
ATOM     26  C   UNL d   1     -54.949-102.805 -41.742  0.00  0.00     0.000 A 
ATOM     27  C   UNL d   1     -54.712-102.533 -41.009  0.00  0.00     0.000 A 
ATOM     28  C   UNL d   1     -54.787-101.731 -40.826  0.00  0.00     0.000 A 
ATOM     29  C   UNL d   1     -55.097-101.196 -41.371  0.00  0.00     0.002 A 
ENDBRANCH   4  24
TORSDOF 6
ENDMDL
