MODEL 1
REMARK VINA RESULT:      -5.0      0.000      0.000
REMARK  3 active torsions:
REMARK  status: ('A' for Active; 'I' for Inactive)
REMARK    1  A    between atoms: C_7  and  C_1 
REMARK    2  A    between atoms: C_13  and  C_7 
REMARK    3  A    between atoms: N_12  and  C_11 
ROOT
ATOM      1  C   UNL d   1     -41.123-122.459 -53.051  0.00  0.00     0.010 C 
ENDROOT
BRANCH   1   2
ATOM      2  C   UNL d   1     -41.642-122.429 -53.662  0.00  0.00     0.116 A 
ATOM      3  C   UNL d   1     -42.027-121.726 -53.854  0.00  0.00     0.288 A 
ATOM      4  N   UNL d   1     -42.561-121.684 -54.478  0.00  0.00    -0.152 NA
ATOM      5  O   UNL d   1     -41.873-121.047 -53.407  0.00  0.00    -0.265 OA
ATOM      6  C   UNL d   1     -42.712-122.351 -54.917  0.00  0.00     0.374 A 
ATOM      7  N   UNL d   1     -42.343-123.064 -54.748  0.00  0.00    -0.152 NA
ATOM      8  O   UNL d   1     -43.258-122.303 -55.553  0.00  0.00    -0.242 OA
ATOM      9  C   UNL d   1     -41.811-123.097 -54.122  0.00  0.00     0.288 A 
ATOM     10  O   UNL d   1     -41.432-123.817 -53.945  0.00  0.00    -0.265 OA
ENDBRANCH   1   2
BRANCH   1  11
ATOM     11  C   UNL d   1     -41.394-122.610 -52.284  0.00  0.00     0.000 A 
ATOM     12  C   UNL d   1     -41.498-123.366 -52.035  0.00  0.00     0.002 A 
ATOM     13  C   UNL d   1     -41.762-123.536 -51.290  0.00  0.00     0.018 A 
ATOM     14  C   UNL d   1     -41.925-122.906 -50.782  0.00  0.00     0.064 A 
ATOM     15  C   UNL d   1     -41.819-122.124 -51.033  0.00  0.00     0.018 A 
ATOM     16  C   UNL d   1     -41.555-121.976 -51.782  0.00  0.00     0.002 A 
BRANCH  14  17
ATOM     17  N   UNL d   1     -42.195-123.073 -50.017  0.00  0.00    -0.301 N 
ATOM     18  C   UNL d   1     -41.777-123.590 -49.545  0.00  0.00     0.100 C 
ATOM     19  C   UNL d   1     -42.889-122.706 -49.752  0.00  0.00     0.100 C 
ENDBRANCH  14  17
ENDBRANCH   1  11
TORSDOF 3
ENDMDL
MODEL 2
REMARK VINA RESULT:      -3.2      2.142      3.155
REMARK  3 active torsions:
REMARK  status: ('A' for Active; 'I' for Inactive)
REMARK    1  A    between atoms: C_7  and  C_1 
REMARK    2  A    between atoms: C_13  and  C_7 
REMARK    3  A    between atoms: N_12  and  C_11 
ROOT
ATOM      1  C   UNL d   1     -42.628-123.318 -50.384  0.00  0.00     0.010 C 
ENDROOT
BRANCH   1   2
ATOM      2  C   UNL d   1     -42.255-122.771 -50.837  0.00  0.00     0.116 A 
ATOM      3  C   UNL d   1     -42.568-122.014 -50.926  0.00  0.00     0.288 A 
ATOM      4  N   UNL d   1     -42.195-121.446 -51.389  0.00  0.00    -0.152 NA
ATOM      5  O   UNL d   1     -43.274-121.821 -50.542  0.00  0.00    -0.265 OA
ATOM      6  C   UNL d   1     -41.500-121.635 -51.767  0.00  0.00     0.374 A 
ATOM      7  N   UNL d   1     -41.167-122.381 -51.695  0.00  0.00    -0.152 NA
ATOM      8  O   UNL d   1     -41.123-121.051 -52.238  0.00  0.00    -0.242 OA
ATOM      9  C   UNL d   1     -41.547-122.943 -51.231  0.00  0.00     0.288 A 
ATOM     10  O   UNL d   1     -41.214-123.703 -51.154  0.00  0.00    -0.265 OA
ENDBRANCH   1   2
BRANCH   1  11
ATOM     11  C   UNL d   1     -42.485-123.348 -49.570  0.00  0.00     0.000 A 
ATOM     12  C   UNL d   1     -43.086-123.232 -49.050  0.00  0.00     0.002 A 
ATOM     13  C   UNL d   1     -42.968-123.258 -48.251  0.00  0.00     0.018 A 
ATOM     14  C   UNL d   1     -42.205-123.408 -47.974  0.00  0.00     0.064 A 
ATOM     15  C   UNL d   1     -41.580-123.529 -48.505  0.00  0.00     0.018 A 
ATOM     16  C   UNL d   1     -41.720-123.499 -49.300  0.00  0.00     0.002 A 
BRANCH  14  17
ATOM     17  N   UNL d   1     -42.077-123.435 -47.156  0.00  0.00    -0.301 N 
ATOM     18  C   UNL d   1     -42.616-123.816 -46.677  0.00  0.00     0.100 C 
ATOM     19  C   UNL d   1     -41.400-123.071 -46.848  0.00  0.00     0.100 C 
ENDBRANCH  14  17
ENDBRANCH   1  11
TORSDOF 3
ENDMDL
