MODEL 1
REMARK VINA RESULT:      -6.6      0.000      0.000
REMARK  9 active torsions:
REMARK  status: ('A' for Active; 'I' for Inactive)
REMARK    1  A    between atoms: C_5  and  C_1 
REMARK    2  A    between atoms: N_6  and  C_2 
REMARK    3  A    between atoms: C_7  and  C_5 
REMARK    4  A    between atoms: C_8  and  C_5 
REMARK    5  A    between atoms: O_13  and  C_7 
REMARK    6  A    between atoms: C_17  and  N_12 
REMARK    7  A    between atoms: C_20  and  O_13 
REMARK    8  A    between atoms: C_21  and  C_17 
REMARK    9  A    between atoms: C_24  and  C_20 
ROOT
ATOM      1  C   UNL d   1      52.418  33.019  52.908  0.00  0.00     0.117 A 
ATOM      2  C   UNL d   1      51.666  32.736  53.080  0.00  0.00     0.145 A 
ATOM      3  N   UNL d   1      51.543  31.927  53.210  0.00  0.00    -0.230 NA
ATOM      4  N   UNL d   1      53.056  32.493  52.864  0.00  0.00    -0.241 NA
ATOM      5  C   UNL d   1      52.181  31.400  53.166  0.00  0.00     0.100 A 
ATOM      6  C   UNL d   1      52.941  31.692  52.991  0.00  0.00     0.099 A 
ATOM      7  C   UNL d   1      52.063  30.591  53.295  0.00  0.00     0.021 A 
ATOM      8  C   UNL d   1      53.571  31.170  52.949  0.00  0.00     0.021 A 
ATOM      9  C   UNL d   1      52.700  30.077  53.250  0.00  0.00     0.002 A 
ATOM     10  C   UNL d   1      53.461  30.360  53.076  0.00  0.00     0.002 A 
ENDROOT
BRANCH   2  11
ATOM     11  N   UNL d   1      51.144  33.378  53.087  0.00  0.00    -0.189 NA
ATOM     12  C   UNL d   1      50.628  33.793  53.178  0.00  0.00     0.076 A 
ATOM     13  C   UNL d   1      50.471  34.775  52.883  0.00  0.00     0.093 A 
ATOM     14  N   UNL d   1      49.661  34.828  53.250  0.00  0.00    -0.301 N 
ATOM     15  C   UNL d   1      50.196  34.441  53.140  0.00  0.00     0.093 A 
ATOM     16  C   UNL d   1      50.396  33.396  53.439  0.00  0.00     0.076 A 
BRANCH  14  17
ATOM     17  C   UNL d   1      48.919  35.098  53.503  0.00  0.00     0.080 C 
BRANCH  17  18
ATOM     18  C   UNL d   1      48.443  35.529  52.986  0.00  0.00     0.018 A 
ATOM     19  C   UNL d   1      48.247  35.213  52.253  0.00  0.00     0.002 A 
ATOM     20  C   UNL d   1      47.770  35.648  51.739  0.00  0.00     0.000 A 
ATOM     21  C   UNL d   1      47.493  36.394  51.959  0.00  0.00     0.000 A 
ATOM     22  C   UNL d   1      47.694  36.704  52.696  0.00  0.00     0.000 A 
ATOM     23  C   UNL d   1      48.170  36.270  53.210  0.00  0.00     0.002 A 
ENDBRANCH  17  18
ENDBRANCH  14  17
ENDBRANCH   2  11
BRANCH   1  24
ATOM     24  C   UNL d   1      52.366  33.839  52.808  0.00  0.00     0.104 C 
BRANCH  24  25
ATOM     25  C   UNL d   1      52.702  34.415  53.311  0.00  0.00     0.303 C 
ATOM     26  O   UNL d   1      52.700  35.208  53.086  0.00  0.00    -0.259 OA
BRANCH  25  27
ATOM     27  O   UNL d   1      53.035  34.185  54.033  0.00  0.00    -0.271 OA
BRANCH  27  28
ATOM     28  C   UNL d   1      53.568  34.680  54.421  0.00  0.00     0.126 C 
BRANCH  28  29
ATOM     29  C   UNL d   1      53.895  34.455  55.143  0.00  0.00     0.025 C 
ATOM     30  C   UNL d   1      54.637  34.102  55.165  0.00  0.00     0.002 C 
ATOM     31  C   UNL d   1      53.477  34.584  55.844  0.00  0.00     0.002 C 
ENDBRANCH  28  29
ENDBRANCH  27  28
ENDBRANCH  25  27
ENDBRANCH  24  25
BRANCH  24  32
ATOM     32  C   UNL d   1      51.928  33.990  52.128  0.00  0.00     0.129 C 
ATOM     33  N   UNL d   1      52.212  34.320  51.420  0.00  0.00    -0.146 N 
ENDBRANCH  24  32
ENDBRANCH   1  24
TORSDOF 9
ENDMDL
MODEL 2
REMARK VINA RESULT:      -6.4      1.073      2.658
REMARK  9 active torsions:
REMARK  status: ('A' for Active; 'I' for Inactive)
REMARK    1  A    between atoms: C_5  and  C_1 
REMARK    2  A    between atoms: N_6  and  C_2 
REMARK    3  A    between atoms: C_7  and  C_5 
REMARK    4  A    between atoms: C_8  and  C_5 
REMARK    5  A    between atoms: O_13  and  C_7 
REMARK    6  A    between atoms: C_17  and  N_12 
REMARK    7  A    between atoms: C_20  and  O_13 
REMARK    8  A    between atoms: C_21  and  C_17 
REMARK    9  A    between atoms: C_24  and  C_20 
ROOT
ATOM      1  C   UNL d   1      53.091  33.616  53.457  0.00  0.00     0.117 A 
ATOM      2  C   UNL d   1      52.646  34.057  53.988  0.00  0.00     0.145 A 
ATOM      3  N   UNL d   1      52.971  34.292  54.714  0.00  0.00    -0.230 NA
ATOM      4  N   UNL d   1      53.869  33.404  53.649  0.00  0.00    -0.241 NA
ATOM      5  C   UNL d   1      53.748  34.080  54.906  0.00  0.00     0.100 A 
ATOM      6  C   UNL d   1      54.196  33.632  54.365  0.00  0.00     0.099 A 
ATOM      7  C   UNL d   1      54.077  34.311  55.630  0.00  0.00     0.021 A 
ATOM      8  C   UNL d   1      54.964  33.423  54.556  0.00  0.00     0.021 A 
ATOM      9  C   UNL d   1      54.847  34.097  55.811  0.00  0.00     0.002 A 
ATOM     10  C   UNL d   1      55.300  33.651  55.278  0.00  0.00     0.002 A 
ENDROOT
BRANCH   2  11
ATOM     11  N   UNL d   1      51.900  34.186  53.654  0.00  0.00    -0.189 NA
ATOM     12  C   UNL d   1      51.266  34.357  53.530  0.00  0.00     0.076 A 
ATOM     13  C   UNL d   1      50.670  34.239  52.689  0.00  0.00     0.093 A 
ATOM     14  N   UNL d   1      49.956  34.625  53.056  0.00  0.00    -0.301 N 
ATOM     15  C   UNL d   1      50.594  34.440  53.144  0.00  0.00     0.093 A 
ATOM     16  C   UNL d   1      51.255  34.549  54.023  0.00  0.00     0.076 A 
BRANCH  14  17
ATOM     17  C   UNL d   1      49.198  34.936  53.185  0.00  0.00     0.080 C 
BRANCH  17  18
ATOM     18  C   UNL d   1      48.718  35.121  52.540  0.00  0.00     0.018 A 
ATOM     19  C   UNL d   1      48.723  34.639  51.875  0.00  0.00     0.002 A 
ATOM     20  C   UNL d   1      48.242  34.829  51.233  0.00  0.00     0.000 A 
ATOM     21  C   UNL d   1      47.758  35.498  51.259  0.00  0.00     0.000 A 
ATOM     22  C   UNL d   1      47.758  35.977  51.931  0.00  0.00     0.000 A 
ATOM     23  C   UNL d   1      48.239  35.787  52.572  0.00  0.00     0.002 A 
ENDBRANCH  17  18
ENDBRANCH  14  17
ENDBRANCH   2  11
BRANCH   1  24
ATOM     24  C   UNL d   1      52.624  33.468  52.791  0.00  0.00     0.104 C 
BRANCH  24  25
ATOM     25  C   UNL d   1      52.323  32.724  52.560  0.00  0.00     0.303 C 
ATOM     26  O   UNL d   1      51.819  32.668  51.910  0.00  0.00    -0.259 OA
BRANCH  25  27
ATOM     27  O   UNL d   1      52.533  32.046  52.986  0.00  0.00    -0.271 OA
BRANCH  27  28
ATOM     28  C   UNL d   1      52.434  31.298  52.654  0.00  0.00     0.126 C 
BRANCH  28  29
ATOM     29  C   UNL d   1      52.592  30.622  53.096  0.00  0.00     0.025 C 
ATOM     30  C   UNL d   1      52.014  30.310  53.590  0.00  0.00     0.002 C 
ATOM     31  C   UNL d   1      53.332  30.257  53.042  0.00  0.00     0.002 C 
ENDBRANCH  28  29
ENDBRANCH  27  28
ENDBRANCH  25  27
ENDBRANCH  24  25
BRANCH  24  32
ATOM     32  C   UNL d   1      52.506  34.179  52.394  0.00  0.00     0.129 C 
ATOM     33  N   UNL d   1      52.903  34.435  51.710  0.00  0.00    -0.146 N 
ENDBRANCH  24  32
ENDBRANCH   1  24
TORSDOF 9
ENDMDL
MODEL 3
REMARK VINA RESULT:      -5.3      0.949      4.785
REMARK  9 active torsions:
REMARK  status: ('A' for Active; 'I' for Inactive)
REMARK    1  A    between atoms: C_5  and  C_1 
REMARK    2  A    between atoms: N_6  and  C_2 
REMARK    3  A    between atoms: C_7  and  C_5 
REMARK    4  A    between atoms: C_8  and  C_5 
REMARK    5  A    between atoms: O_13  and  C_7 
REMARK    6  A    between atoms: C_17  and  N_12 
REMARK    7  A    between atoms: C_20  and  O_13 
REMARK    8  A    between atoms: C_21  and  C_17 
REMARK    9  A    between atoms: C_24  and  C_20 
ROOT
ATOM      1  C   UNL d   1      51.428  34.270  53.250  0.00  0.00     0.117 A 
ATOM      2  C   UNL d   1      51.061  33.611  52.926  0.00  0.00     0.145 A 
ATOM      3  N   UNL d   1      50.262  33.642  52.705  0.00  0.00    -0.230 NA
ATOM      4  N   UNL d   1      50.997  34.970  53.356  0.00  0.00    -0.241 NA
ATOM      5  C   UNL d   1      49.831  34.341  52.812  0.00  0.00     0.100 A 
ATOM      6  C   UNL d   1      50.208  35.007  53.140  0.00  0.00     0.099 A 
ATOM      7  C   UNL d   1      49.034  34.377  52.593  0.00  0.00     0.021 A 
ATOM      8  C   UNL d   1      49.780  35.698  53.245  0.00  0.00     0.021 A 
ATOM      9  C   UNL d   1      48.616  35.074  52.701  0.00  0.00     0.002 A 
ATOM     10  C   UNL d   1      48.983  35.742  53.028  0.00  0.00     0.002 A 
ENDROOT
BRANCH   2  11
ATOM     11  N   UNL d   1      51.618  33.000  52.885  0.00  0.00    -0.189 NA
ATOM     12  C   UNL d   1      51.935  32.414  52.826  0.00  0.00     0.076 A 
ATOM     13  C   UNL d   1      52.939  32.164  52.885  0.00  0.00     0.093 A 
ATOM     14  N   UNL d   1      52.802  31.296  52.737  0.00  0.00    -0.301 N 
ATOM     15  C   UNL d   1      52.520  31.900  52.803  0.00  0.00     0.093 A 
ATOM     16  C   UNL d   1      51.457  32.200  52.746  0.00  0.00     0.076 A 
BRANCH  14  17
ATOM     17  C   UNL d   1      52.912  30.482  52.621  0.00  0.00     0.080 C 
BRANCH  17  18
ATOM     18  C   UNL d   1      53.120  30.004  53.260  0.00  0.00     0.018 A 
ATOM     19  C   UNL d   1      53.871  30.062  53.587  0.00  0.00     0.002 A 
ATOM     20  C   UNL d   1      54.074  29.581  54.225  0.00  0.00     0.000 A 
ATOM     21  C   UNL d   1      53.526  29.045  54.533  0.00  0.00     0.000 A 
ATOM     22  C   UNL d   1      52.774  28.992  54.200  0.00  0.00     0.000 A 
ATOM     23  C   UNL d   1      52.571  29.472  53.562  0.00  0.00     0.002 A 
ENDBRANCH  17  18
ENDBRANCH  14  17
ENDBRANCH   2  11
BRANCH   1  24
ATOM     24  C   UNL d   1      52.214  34.073  53.412  0.00  0.00     0.104 C 
BRANCH  24  25
ATOM     25  C   UNL d   1      52.538  33.937  54.170  0.00  0.00     0.303 C 
ATOM     26  O   UNL d   1      52.040  33.772  54.806  0.00  0.00    -0.259 OA
BRANCH  25  27
ATOM     27  O   UNL d   1      53.358  33.968  54.278  0.00  0.00    -0.271 OA
BRANCH  27  28
ATOM     28  C   UNL d   1      53.674  34.094  55.029  0.00  0.00     0.126 C 
BRANCH  28  29
ATOM     29  C   UNL d   1      54.428  33.818  55.214  0.00  0.00     0.025 C 
ATOM     30  C   UNL d   1      54.518  33.094  55.593  0.00  0.00     0.002 C 
ATOM     31  C   UNL d   1      55.092  34.269  55.019  0.00  0.00     0.002 C 
ENDBRANCH  28  29
ENDBRANCH  27  28
ENDBRANCH  25  27
ENDBRANCH  24  25
BRANCH  24  32
ATOM     32  C   UNL d   1      52.624  34.033  52.700  0.00  0.00     0.129 C 
ATOM     33  N   UNL d   1      53.027  34.656  52.326  0.00  0.00    -0.146 N 
ENDBRANCH  24  32
ENDBRANCH   1  24
TORSDOF 9
ENDMDL
MODEL 4
REMARK VINA RESULT:      -4.5      1.207      2.119
REMARK  9 active torsions:
REMARK  status: ('A' for Active; 'I' for Inactive)
REMARK    1  A    between atoms: C_5  and  C_1 
REMARK    2  A    between atoms: N_6  and  C_2 
REMARK    3  A    between atoms: C_7  and  C_5 
REMARK    4  A    between atoms: C_8  and  C_5 
REMARK    5  A    between atoms: O_13  and  C_7 
REMARK    6  A    between atoms: C_17  and  N_12 
REMARK    7  A    between atoms: C_20  and  O_13 
REMARK    8  A    between atoms: C_21  and  C_17 
REMARK    9  A    between atoms: C_24  and  C_20 
ROOT
ATOM      1  C   UNL d   1      53.411  31.474  53.730  0.00  0.00     0.117 A 
ATOM      2  C   UNL d   1      52.694  31.362  53.345  0.00  0.00     0.145 A 
ATOM      3  N   UNL d   1      52.375  30.601  53.268  0.00  0.00    -0.230 NA
ATOM      4  N   UNL d   1      53.817  30.823  54.042  0.00  0.00    -0.241 NA
ATOM      5  C   UNL d   1      52.780  29.950  53.580  0.00  0.00     0.100 A 
ATOM      6  C   UNL d   1      53.507  30.068  53.969  0.00  0.00     0.099 A 
ATOM      7  C   UNL d   1      52.465  29.188  53.505  0.00  0.00     0.021 A 
ATOM      8  C   UNL d   1      53.907  29.423  54.276  0.00  0.00     0.021 A 
ATOM      9  C   UNL d   1      52.873  28.549  53.816  0.00  0.00     0.002 A 
ATOM     10  C   UNL d   1      53.598  28.658  54.205  0.00  0.00     0.002 A 
ENDROOT
BRANCH   2  11
ATOM     11  N   UNL d   1      52.418  32.102  53.094  0.00  0.00    -0.189 NA
ATOM     12  C   UNL d   1      52.092  32.607  52.804  0.00  0.00     0.076 A 
ATOM     13  C   UNL d   1      52.202  33.635  52.880  0.00  0.00     0.093 A 
ATOM     14  N   UNL d   1      51.544  33.818  52.309  0.00  0.00    -0.301 N 
ATOM     15  C   UNL d   1      51.893  33.338  52.619  0.00  0.00     0.093 A 
ATOM     16  C   UNL d   1      51.802  32.237  52.560  0.00  0.00     0.076 A 
BRANCH  14  17
ATOM     17  C   UNL d   1      50.994  34.211  51.829  0.00  0.00     0.080 C 
BRANCH  17  18
ATOM     18  C   UNL d   1      50.299  34.506  52.160  0.00  0.00     0.018 A 
ATOM     19  C   UNL d   1      50.315  34.845  52.908  0.00  0.00     0.002 A 
ATOM     20  C   UNL d   1      49.618  35.139  53.236  0.00  0.00     0.000 A 
ATOM     21  C   UNL d   1      48.909  35.093  52.815  0.00  0.00     0.000 A 
ATOM     22  C   UNL d   1      48.900  34.751  52.064  0.00  0.00     0.000 A 
ATOM     23  C   UNL d   1      49.597  34.458  51.737  0.00  0.00     0.002 A 
ENDBRANCH  17  18
ENDBRANCH  14  17
ENDBRANCH   2  11
BRANCH   1  24
ATOM     24  C   UNL d   1      53.585  32.283  53.720  0.00  0.00     0.104 C 
BRANCH  24  25
ATOM     25  C   UNL d   1      53.551  32.798  54.376  0.00  0.00     0.303 C 
ATOM     26  O   UNL d   1      52.915  32.757  54.899  0.00  0.00    -0.259 OA
BRANCH  25  27
ATOM     27  O   UNL d   1      54.158  33.348  54.497  0.00  0.00    -0.271 OA
BRANCH  27  28
ATOM     28  C   UNL d   1      54.340  33.606  55.259  0.00  0.00     0.126 C 
BRANCH  28  29
ATOM     29  C   UNL d   1      54.898  34.201  55.375  0.00  0.00     0.025 C 
ATOM     30  C   UNL d   1      54.671  34.990  55.336  0.00  0.00     0.002 C 
ATOM     31  C   UNL d   1      55.685  34.004  55.530  0.00  0.00     0.002 C 
ENDBRANCH  28  29
ENDBRANCH  27  28
ENDBRANCH  25  27
ENDBRANCH  24  25
BRANCH  24  32
ATOM     32  C   UNL d   1      53.796  32.493  52.953  0.00  0.00     0.129 C 
ATOM     33  N   UNL d   1      54.567  32.611  52.667  0.00  0.00    -0.146 N 
ENDBRANCH  24  32
ENDBRANCH   1  24
TORSDOF 9
ENDMDL
MODEL 5
REMARK VINA RESULT:      -4.2      1.220      4.920
REMARK  9 active torsions:
REMARK  status: ('A' for Active; 'I' for Inactive)
REMARK    1  A    between atoms: C_5  and  C_1 
REMARK    2  A    between atoms: N_6  and  C_2 
REMARK    3  A    between atoms: C_7  and  C_5 
REMARK    4  A    between atoms: C_8  and  C_5 
REMARK    5  A    between atoms: O_13  and  C_7 
REMARK    6  A    between atoms: C_17  and  N_12 
REMARK    7  A    between atoms: C_20  and  O_13 
REMARK    8  A    between atoms: C_21  and  C_17 
REMARK    9  A    between atoms: C_24  and  C_20 
ROOT
ATOM      1  C   UNL d   1      50.310  34.253  52.523  0.00  0.00     0.117 A 
ATOM      2  C   UNL d   1      50.433  34.905  53.007  0.00  0.00     0.145 A 
ATOM      3  N   UNL d   1      49.829  35.461  53.122  0.00  0.00    -0.230 NA
ATOM      4  N   UNL d   1      49.578  34.151  52.149  0.00  0.00    -0.241 NA
ATOM      5  C   UNL d   1      49.097  35.359  52.748  0.00  0.00     0.100 A 
ATOM      6  C   UNL d   1      48.976  34.696  52.259  0.00  0.00     0.099 A 
ATOM      7  C   UNL d   1      48.490  35.911  52.861  0.00  0.00     0.021 A 
ATOM      8  C   UNL d   1      48.252  34.597  51.890  0.00  0.00     0.021 A 
ATOM      9  C   UNL d   1      47.769  35.802  52.487  0.00  0.00     0.002 A 
ATOM     10  C   UNL d   1      47.641  35.145  51.997  0.00  0.00     0.002 A 
ENDROOT
BRANCH   2  11
ATOM     11  N   UNL d   1      51.205  34.864  53.303  0.00  0.00    -0.189 NA
ATOM     12  C   UNL d   1      51.757  34.884  53.679  0.00  0.00     0.076 A 
ATOM     13  C   UNL d   1      52.745  34.656  53.467  0.00  0.00     0.093 A 
ATOM     14  N   UNL d   1      53.038  34.850  54.286  0.00  0.00    -0.301 N 
ATOM     15  C   UNL d   1      52.507  34.818  53.879  0.00  0.00     0.093 A 
ATOM     16  C   UNL d   1      51.444  35.053  54.072  0.00  0.00     0.076 A 
BRANCH  14  17
ATOM     17  C   UNL d   1      53.518  34.968  54.952  0.00  0.00     0.080 C 
BRANCH  17  18
ATOM     18  C   UNL d   1      54.142  34.450  55.103  0.00  0.00     0.018 A 
ATOM     19  C   UNL d   1      54.041  33.832  55.634  0.00  0.00     0.002 A 
ATOM     20  C   UNL d   1      54.668  33.317  55.781  0.00  0.00     0.000 A 
ATOM     21  C   UNL d   1      55.391  33.422  55.397  0.00  0.00     0.000 A 
ATOM     22  C   UNL d   1      55.485  34.045  54.865  0.00  0.00     0.000 A 
ATOM     23  C   UNL d   1      54.859  34.560  54.718  0.00  0.00     0.002 A 
ENDBRANCH  17  18
ENDBRANCH  14  17
ENDBRANCH   2  11
BRANCH   1  24
ATOM     24  C   UNL d   1      51.004  33.804  52.516  0.00  0.00     0.104 C 
BRANCH  24  25
ATOM     25  C   UNL d   1      51.113  33.067  52.893  0.00  0.00     0.303 C 
ATOM     26  O   UNL d   1      50.581  32.818  53.471  0.00  0.00    -0.259 OA
BRANCH  25  27
ATOM     27  O   UNL d   1      51.757  32.590  52.683  0.00  0.00    -0.271 OA
BRANCH  27  28
ATOM     28  C   UNL d   1      51.777  31.797  52.908  0.00  0.00     0.126 C 
BRANCH  28  29
ATOM     29  C   UNL d   1      52.492  31.387  52.922  0.00  0.00     0.025 C 
ATOM     30  C   UNL d   1      52.844  31.154  52.217  0.00  0.00     0.002 C 
ATOM     31  C   UNL d   1      52.853  31.210  53.644  0.00  0.00     0.002 C 
ENDBRANCH  28  29
ENDBRANCH  27  28
ENDBRANCH  25  27
ENDBRANCH  24  25
BRANCH  24  32
ATOM     32  C   UNL d   1      51.569  34.207  52.074  0.00  0.00     0.129 C 
ATOM     33  N   UNL d   1      51.666  34.175  51.249  0.00  0.00    -0.146 N 
ENDBRANCH  24  32
ENDBRANCH   1  24
TORSDOF 9
ENDMDL
MODEL 6
REMARK VINA RESULT:      -3.7      1.391      5.279
REMARK  9 active torsions:
REMARK  status: ('A' for Active; 'I' for Inactive)
REMARK    1  A    between atoms: C_5  and  C_1 
REMARK    2  A    between atoms: N_6  and  C_2 
REMARK    3  A    between atoms: C_7  and  C_5 
REMARK    4  A    between atoms: C_8  and  C_5 
REMARK    5  A    between atoms: O_13  and  C_7 
REMARK    6  A    between atoms: C_17  and  N_12 
REMARK    7  A    between atoms: C_20  and  O_13 
REMARK    8  A    between atoms: C_21  and  C_17 
REMARK    9  A    between atoms: C_24  and  C_20 
ROOT
ATOM      1  C   UNL d   1      52.096  34.387  53.558  0.00  0.00     0.117 A 
ATOM      2  C   UNL d   1      52.786  33.971  53.719  0.00  0.00     0.145 A 
ATOM      3  N   UNL d   1      53.408  34.335  54.129  0.00  0.00    -0.230 NA
ATOM      4  N   UNL d   1      52.022  35.173  53.807  0.00  0.00    -0.241 NA
ATOM      5  C   UNL d   1      53.334  35.121  54.378  0.00  0.00     0.100 A 
ATOM      6  C   UNL d   1      52.633  35.539  54.213  0.00  0.00     0.099 A 
ATOM      7  C   UNL d   1      53.953  35.489  54.788  0.00  0.00     0.021 A 
ATOM      8  C   UNL d   1      52.562  36.316  54.459  0.00  0.00     0.021 A 
ATOM      9  C   UNL d   1      53.871  36.267  55.030  0.00  0.00     0.002 A 
ATOM     10  C   UNL d   1      53.175  36.690  54.869  0.00  0.00     0.002 A 
ENDROOT
BRANCH   2  11
ATOM     11  N   UNL d   1      52.706  33.208  53.409  0.00  0.00    -0.189 NA
ATOM     12  C   UNL d   1      52.795  32.576  53.211  0.00  0.00     0.076 A 
ATOM     13  C   UNL d   1      52.166  31.908  52.728  0.00  0.00     0.093 A 
ATOM     14  N   UNL d   1      52.764  31.248  52.714  0.00  0.00    -0.301 N 
ATOM     15  C   UNL d   1      52.638  31.880  52.897  0.00  0.00     0.093 A 
ATOM     16  C   UNL d   1      53.283  32.616  53.411  0.00  0.00     0.076 A 
BRANCH  14  17
ATOM     17  C   UNL d   1      53.143  30.520  52.591  0.00  0.00     0.080 C 
BRANCH  17  18
ATOM     18  C   UNL d   1      53.109  29.939  53.175  0.00  0.00     0.018 A 
ATOM     19  C   UNL d   1      52.429  29.486  53.261  0.00  0.00     0.002 A 
ATOM     20  C   UNL d   1      52.400  28.905  53.846  0.00  0.00     0.000 A 
ATOM     21  C   UNL d   1      53.049  28.781  54.341  0.00  0.00     0.000 A 
ATOM     22  C   UNL d   1      53.728  29.240  54.249  0.00  0.00     0.000 A 
ATOM     23  C   UNL d   1      53.757  29.820  53.664  0.00  0.00     0.002 A 
ENDBRANCH  17  18
ENDBRANCH  14  17
ENDBRANCH   2  11
BRANCH   1  24
ATOM     24  C   UNL d   1      51.584  33.884  53.147  0.00  0.00     0.104 C 
BRANCH  24  25
ATOM     25  C   UNL d   1      51.324  33.987  52.360  0.00  0.00     0.303 C 
ATOM     26  O   UNL d   1      51.873  33.999  51.745  0.00  0.00    -0.259 OA
BRANCH  25  27
ATOM     27  O   UNL d   1      50.516  34.076  52.203  0.00  0.00    -0.271 OA
BRANCH  27  28
ATOM     28  C   UNL d   1      50.266  34.435  51.504  0.00  0.00     0.126 C 
BRANCH  28  29
ATOM     29  C   UNL d   1      49.462  34.504  51.337  0.00  0.00     0.025 C 
ATOM     30  C   UNL d   1      48.977  34.946  51.832  0.00  0.00     0.002 C 
ATOM     31  C   UNL d   1      49.145  34.130  50.672  0.00  0.00     0.002 C 
ENDBRANCH  28  29
ENDBRANCH  27  28
ENDBRANCH  25  27
ENDBRANCH  24  25
BRANCH  24  32
ATOM     32  C   UNL d   1      51.374  33.264  53.647  0.00  0.00     0.129 C 
ATOM     33  N   UNL d   1      50.642  33.164  54.029  0.00  0.00    -0.146 N 
ENDBRANCH  24  32
ENDBRANCH   1  24
TORSDOF 9
ENDMDL
