MODEL 1
REMARK VINA RESULT:      13.6      0.000      0.000
REMARK  2 active torsions:
REMARK  status: ('A' for Active; 'I' for Inactive)
REMARK       I    between atoms: N_2  and  C_1 
REMARK    1  A    between atoms: C_6  and  C_1 
REMARK    2  A    between atoms: C_4  and  N_2 
ROOT
ATOM      1  C   UNL d   1      58.784  49.691  50.394  0.00  0.00     0.279 C 
ATOM      2  N   UNL d   1      58.048  49.691  50.761  0.00  0.00    -0.204 NA
ATOM      3  O   UNL d   1      58.832  49.692  49.564  0.00  0.00    -0.265 OA
ENDROOT
BRANCH   1   4
ATOM      4  C   UNL d   1      59.475  49.690  50.844  0.00  0.00     0.058 A 
ATOM      5  C   UNL d   1      59.440  49.701  51.655  0.00  0.00     0.006 A 
ATOM      6  C   UNL d   1      60.131  49.700  52.105  0.00  0.00     0.012 A 
ATOM      7  C   UNL d   1      60.866  49.689  51.749  0.00  0.00     0.058 A 
ATOM      8  C   UNL d   1      60.911  49.678  50.907  0.00  0.00     0.012 A 
ATOM      9 CL   UNL d   1      61.538  49.688  52.187  0.00  0.00    -0.082 Cl
ATOM     10  C   UNL d   1      60.220  49.679  50.457  0.00  0.00     0.006 A 
ENDBRANCH   1   4
BRANCH   2  11
ATOM     11  C   UNL d   1      57.357  49.692  50.299  0.00  0.00     0.130 A 
ATOM     12  C   UNL d   1      56.586  49.677  50.570  0.00  0.00     0.243 A 
ATOM     13  S   UNL d   1      56.084  49.684  49.918  0.00  0.00    -0.044 SA
ATOM     14  O   UNL d   1      56.354  49.659  51.369  0.00  0.00    -0.278 OA
ATOM     15  C   UNL d   1      56.553  49.703  49.234  0.00  0.00     0.040 A 
ATOM     16  C   UNL d   1      57.342  49.708  49.468  0.00  0.00     0.030 A 
ENDBRANCH   2  11
TORSDOF 2
ENDMDL
