MODEL 1
REMARK VINA RESULT:      51.3      0.000      0.000
REMARK  5 active torsions:
REMARK  status: ('A' for Active; 'I' for Inactive)
REMARK    1  A    between atoms: C_11  and  C_3 
REMARK    2  A    between atoms: C_14  and  C_7 
REMARK    3  A    between atoms: O_18  and  C_11 
REMARK    4  A    between atoms: C_16  and  C_20 
REMARK    5  A    between atoms: C_20  and  O_18 
ROOT
ATOM      1  C   UNL d   1     -52.125  25.245  33.472  0.00  0.00     0.172 A 
ATOM      2  C   UNL d   1     -51.420  24.828  33.524  0.00  0.00     0.094 A 
ATOM      3  C   UNL d   1     -50.688  26.044  33.611  0.00  0.00     0.081 A 
ATOM      4  C   UNL d   1     -51.435  23.999  33.506  0.00  0.00     0.286 A 
ATOM      5  N   UNL d   1     -52.840  24.851  33.403  0.00  0.00    -0.172 NA
ATOM      6  N   UNL d   1     -52.154  23.607  33.437  0.00  0.00    -0.152 NA
ATOM      7  C   UNL d   1     -50.702  25.225  33.593  0.00  0.00     0.014 A 
ATOM      8  C   UNL d   1     -51.395  26.473  33.559  0.00  0.00     0.088 A 
ATOM      9  N   UNL d   1     -52.117  26.068  33.489  0.00  0.00    -0.226 NA
ATOM     10  C   UNL d   1     -52.855  24.032  33.386  0.00  0.00     0.373 A 
ATOM     11  O   UNL d   1     -50.728  23.569  33.558  0.00  0.00    -0.265 OA
ATOM     12  O   UNL d   1     -53.578  23.639  33.316  0.00  0.00    -0.242 OA
ATOM     13  C   UNL d   1     -51.384  27.294  33.576  0.00  0.00     0.021 C 
ENDROOT
BRANCH   3  14
ATOM     14  C   UNL d   1     -49.975  26.448  33.680  0.00  0.00     0.302 C 
ATOM     15  O   UNL d   1     -49.297  26.150  33.308  0.00  0.00    -0.259 OA
BRANCH  14  16
ATOM     16  O   UNL d   1     -49.931  27.147  34.115  0.00  0.00    -0.271 OA
BRANCH  16  17
ATOM     17  C   UNL d   1     -49.304  27.270  34.640  0.00  0.00     0.126 C 
BRANCH  17  18
ATOM     18  C   UNL d   1     -49.371  27.838  35.236  0.00  0.00     0.027 C 
ATOM     19  C   UNL d   1     -48.707  28.080  35.657  0.00  0.00     0.002 C 
ENDBRANCH  17  18
ENDBRANCH  16  17
ENDBRANCH  14  16
ENDBRANCH   3  14
BRANCH   7  20
ATOM     20  C   UNL d   1     -49.998  24.797  33.645  0.00  0.00     0.001 A 
ATOM     21  C   UNL d   1     -50.021  23.988  33.809  0.00  0.00     0.000 A 
ATOM     22  C   UNL d   1     -49.315  23.555  33.861  0.00  0.00     0.000 A 
ATOM     23  C   UNL d   1     -48.595  23.936  33.749  0.00  0.00     0.000 A 
ATOM     24  C   UNL d   1     -48.572  24.745  33.585  0.00  0.00     0.000 A 
ATOM     25  C   UNL d   1     -49.280  25.175  33.533  0.00  0.00     0.000 A 
ENDBRANCH   7  20
TORSDOF 5
ENDMDL
