MODEL 1
REMARK VINA RESULT:      -8.0      0.000      0.000
REMARK  6 active torsions:
REMARK  status: ('A' for Active; 'I' for Inactive)
REMARK    1  A    between atoms: S_6  and  C_2 
REMARK    2  A    between atoms: C_9  and  S_6 
REMARK    3  A    between atoms: C_7  and  C_9 
REMARK    4  A    between atoms: C_8  and  C_7 
REMARK    5  A    between atoms: O_12  and  C_15 
REMARK    6  A    between atoms: C_18  and  O_12 
ROOT
ATOM      1  C   UNL d   1      50.848  34.121  52.922  0.00  0.00     0.040 A 
ATOM      2  C   UNL d   1      50.802  33.400  53.313  0.00  0.00     0.005 A 
ATOM      3  C   UNL d   1      51.559  34.331  52.527  0.00  0.00     0.005 A 
ATOM      4  C   UNL d   1      52.145  33.089  52.934  0.00  0.00     0.100 A 
ATOM      5  C   UNL d   1      51.442  32.885  53.322  0.00  0.00     0.025 A 
ATOM      6  C   UNL d   1      52.197  33.813  52.538  0.00  0.00     0.025 A 
ENDROOT
BRANCH   1   7
ATOM      7  C   UNL d   1      50.211  34.633  52.913  0.00  0.00     0.202 C 
ATOM      8  O   UNL d   1      50.151  35.219  53.496  0.00  0.00    -0.286 OA
BRANCH   7   9
ATOM      9  C   UNL d   1      49.633  34.567  52.329  0.00  0.00     0.080 C 
BRANCH   9  10
ATOM     10  S   UNL d   1      49.046  35.151  52.262  0.00  0.00    -0.043 SA
BRANCH  10  11
ATOM     11  C   UNL d   1      48.426  35.056  51.720  0.00  0.00     0.233 A 
ATOM     12  N   UNL d   1      47.687  35.412  51.759  0.00  0.00    -0.029 NA
ATOM     13  C   UNL d   1      47.244  35.165  51.110  0.00  0.00     0.788 A 
ATOM     14  N   UNL d   1      47.712  34.656  50.672  0.00  0.00     0.050 NA
ATOM     15  N   UNL d   1      46.470  35.394  50.942  0.00  0.00     0.064 N 
ATOM     16  N   UNL d   1      48.441  34.583  51.039  0.00  0.00    -0.105 NA
ENDBRANCH  10  11
ENDBRANCH   9  10
ENDBRANCH   7   9
ENDBRANCH   1   7
BRANCH   4  17
ATOM     17  O   UNL d   1      52.790  32.578  52.938  0.00  0.00    -0.307 OA
BRANCH  17  18
ATOM     18  C   UNL d   1      53.394  32.682  53.494  0.00  0.00     0.100 A 
ATOM     19  C   UNL d   1      53.293  32.434  54.266  0.00  0.00     0.025 A 
ATOM     20  C   UNL d   1      53.891  32.538  54.813  0.00  0.00     0.002 A 
ATOM     21  C   UNL d   1      54.604  32.896  54.588  0.00  0.00     0.000 A 
ATOM     22  C   UNL d   1      54.708  33.148  53.808  0.00  0.00     0.002 A 
ATOM     23  C   UNL d   1      54.103  33.042  53.257  0.00  0.00     0.025 A 
ENDBRANCH  17  18
ENDBRANCH   4  17
TORSDOF 6
ENDMDL
MODEL 2
REMARK VINA RESULT:      -6.9      3.511      5.567
REMARK  6 active torsions:
REMARK  status: ('A' for Active; 'I' for Inactive)
REMARK    1  A    between atoms: S_6  and  C_2 
REMARK    2  A    between atoms: C_9  and  S_6 
REMARK    3  A    between atoms: C_7  and  C_9 
REMARK    4  A    between atoms: C_8  and  C_7 
REMARK    5  A    between atoms: O_12  and  C_15 
REMARK    6  A    between atoms: C_18  and  O_12 
ROOT
ATOM      1  C   UNL d   1      52.138  33.077  52.987  0.00  0.00     0.040 A 
ATOM      2  C   UNL d   1      51.406  32.921  53.325  0.00  0.00     0.005 A 
ATOM      3  C   UNL d   1      52.261  33.807  52.590  0.00  0.00     0.005 A 
ATOM      4  C   UNL d   1      50.914  34.191  52.889  0.00  0.00     0.100 A 
ATOM      5  C   UNL d   1      50.796  33.470  53.279  0.00  0.00     0.025 A 
ATOM      6  C   UNL d   1      51.649  34.354  52.546  0.00  0.00     0.025 A 
ENDROOT
BRANCH   1   7
ATOM      7  C   UNL d   1      52.745  32.531  53.033  0.00  0.00     0.202 C 
ATOM      8  O   UNL d   1      53.528  32.784  52.932  0.00  0.00    -0.286 OA
BRANCH   7   9
ATOM      9  C   UNL d   1      52.578  31.737  53.177  0.00  0.00     0.080 C 
BRANCH   9  10
ATOM     10  S   UNL d   1      53.180  31.169  53.099  0.00  0.00    -0.043 SA
BRANCH  10  11
ATOM     11  C   UNL d   1      53.072  30.406  53.402  0.00  0.00     0.233 A 
ATOM     12  N   UNL d   1      53.454  30.082  54.054  0.00  0.00    -0.029 NA
ATOM     13  C   UNL d   1      53.182  29.313  54.160  0.00  0.00     0.788 A 
ATOM     14  N   UNL d   1      52.632  29.162  53.572  0.00  0.00     0.050 NA
ATOM     15  N   UNL d   1      53.425  28.795  54.754  0.00  0.00     0.064 N 
ATOM     16  N   UNL d   1      52.558  29.828  53.101  0.00  0.00    -0.105 NA
ENDBRANCH  10  11
ENDBRANCH   9  10
ENDBRANCH   7   9
ENDBRANCH   1   7
BRANCH   4  17
ATOM     17  O   UNL d   1      50.308  34.745  52.839  0.00  0.00    -0.307 OA
BRANCH  17  18
ATOM     18  C   UNL d   1      49.742  34.684  52.239  0.00  0.00     0.100 A 
ATOM     19  C   UNL d   1      49.964  34.473  51.481  0.00  0.00     0.025 A 
ATOM     20  C   UNL d   1      49.403  34.413  50.891  0.00  0.00     0.002 A 
ATOM     21  C   UNL d   1      48.606  34.565  51.056  0.00  0.00     0.000 A 
ATOM     22  C   UNL d   1      48.378  34.778  51.821  0.00  0.00     0.002 A 
ATOM     23  C   UNL d   1      48.946  34.838  52.417  0.00  0.00     0.025 A 
ENDBRANCH  17  18
ENDBRANCH   4  17
TORSDOF 6
ENDMDL
MODEL 3
REMARK VINA RESULT:      -6.9      1.391      1.921
REMARK  6 active torsions:
REMARK  status: ('A' for Active; 'I' for Inactive)
REMARK    1  A    between atoms: S_6  and  C_2 
REMARK    2  A    between atoms: C_9  and  S_6 
REMARK    3  A    between atoms: C_7  and  C_9 
REMARK    4  A    between atoms: C_8  and  C_7 
REMARK    5  A    between atoms: O_12  and  C_15 
REMARK    6  A    between atoms: C_18  and  O_12 
ROOT
ATOM      1  C   UNL d   1      52.023  33.748  53.218  0.00  0.00     0.040 A 
ATOM      2  C   UNL d   1      52.235  33.320  52.550  0.00  0.00     0.005 A 
ATOM      3  C   UNL d   1      52.379  33.564  53.956  0.00  0.00     0.005 A 
ATOM      4  C   UNL d   1      53.145  32.532  53.323  0.00  0.00     0.100 A 
ATOM      5  C   UNL d   1      52.791  32.716  52.597  0.00  0.00     0.025 A 
ATOM      6  C   UNL d   1      52.934  32.959  53.999  0.00  0.00     0.025 A 
ENDROOT
BRANCH   1   7
ATOM      7  C   UNL d   1      51.470  34.348  53.172  0.00  0.00     0.202 C 
ATOM      8  O   UNL d   1      51.607  35.060  53.574  0.00  0.00    -0.286 OA
BRANCH   7   9
ATOM      9  C   UNL d   1      50.782  34.246  52.728  0.00  0.00     0.080 C 
BRANCH   9  10
ATOM     10  S   UNL d   1      50.113  34.710  52.894  0.00  0.00    -0.043 SA
BRANCH  10  11
ATOM     11  C   UNL d   1      49.504  34.772  52.336  0.00  0.00     0.233 A 
ATOM     12  N   UNL d   1      48.816  35.215  52.414  0.00  0.00    -0.029 NA
ATOM     13  C   UNL d   1      48.366  35.119  51.731  0.00  0.00     0.788 A 
ATOM     14  N   UNL d   1      48.776  34.615  51.233  0.00  0.00     0.050 NA
ATOM     15  N   UNL d   1      47.634  35.471  51.586  0.00  0.00     0.064 N 
ATOM     16  N   UNL d   1      49.478  34.396  51.596  0.00  0.00    -0.105 NA
ENDBRANCH  10  11
ENDBRANCH   9  10
ENDBRANCH   7   9
ENDBRANCH   1   7
BRANCH   4  17
ATOM     17  O   UNL d   1      53.702  31.929  53.377  0.00  0.00    -0.307 OA
BRANCH  17  18
ATOM     18  C   UNL d   1      53.453  31.144  53.462  0.00  0.00     0.100 A 
ATOM     19  C   UNL d   1      53.154  30.734  52.821  0.00  0.00     0.025 A 
ATOM     20  C   UNL d   1      52.909  29.960  52.907  0.00  0.00     0.002 A 
ATOM     21  C   UNL d   1      52.962  29.585  53.644  0.00  0.00     0.000 A 
ATOM     22  C   UNL d   1      53.264  29.997  54.293  0.00  0.00     0.002 A 
ATOM     23  C   UNL d   1      53.512  30.780  54.205  0.00  0.00     0.025 A 
ENDBRANCH  17  18
ENDBRANCH   4  17
TORSDOF 6
ENDMDL
MODEL 4
REMARK VINA RESULT:      -6.2      3.188      5.538
REMARK  6 active torsions:
REMARK  status: ('A' for Active; 'I' for Inactive)
REMARK    1  A    between atoms: S_6  and  C_2 
REMARK    2  A    between atoms: C_9  and  S_6 
REMARK    3  A    between atoms: C_7  and  C_9 
REMARK    4  A    between atoms: C_8  and  C_7 
REMARK    5  A    between atoms: O_12  and  C_15 
REMARK    6  A    between atoms: C_18  and  O_12 
ROOT
ATOM      1  C   UNL d   1      51.223  34.277  52.723  0.00  0.00     0.040 A 
ATOM      2  C   UNL d   1      50.677  34.276  53.336  0.00  0.00     0.005 A 
ATOM      3  C   UNL d   1      50.955  34.371  51.932  0.00  0.00     0.005 A 
ATOM      4  C   UNL d   1      49.606  34.457  52.406  0.00  0.00     0.100 A 
ATOM      5  C   UNL d   1      49.874  34.365  53.183  0.00  0.00     0.025 A 
ATOM      6  C   UNL d   1      50.152  34.460  51.784  0.00  0.00     0.025 A 
ENDROOT
BRANCH   1   7
ATOM      7  C   UNL d   1      52.021  34.189  52.874  0.00  0.00     0.202 C 
ATOM      8  O   UNL d   1      52.537  34.821  52.724  0.00  0.00    -0.286 OA
BRANCH   7   9
ATOM      9  C   UNL d   1      52.311  33.477  53.173  0.00  0.00     0.080 C 
BRANCH   9  10
ATOM     10  S   UNL d   1      53.131  33.365  53.248  0.00  0.00    -0.043 SA
BRANCH  10  11
ATOM     11  C   UNL d   1      53.426  32.658  53.564  0.00  0.00     0.233 A 
ATOM     12  N   UNL d   1      53.294  31.902  53.271  0.00  0.00    -0.029 NA
ATOM     13  C   UNL d   1      53.689  31.363  53.753  0.00  0.00     0.788 A 
ATOM     14  N   UNL d   1      54.064  31.789  54.343  0.00  0.00     0.050 NA
ATOM     15  N   UNL d   1      53.699  30.545  53.650  0.00  0.00     0.064 N 
ATOM     16  N   UNL d   1      53.908  32.586  54.236  0.00  0.00    -0.105 NA
ENDBRANCH  10  11
ENDBRANCH   9  10
ENDBRANCH   7   9
ENDBRANCH   1   7
BRANCH   4  17
ATOM     17  O   UNL d   1      48.804  34.547  52.245  0.00  0.00    -0.307 OA
BRANCH  17  18
ATOM     18  C   UNL d   1      48.432  35.270  52.396  0.00  0.00     0.100 A 
ATOM     19  C   UNL d   1      48.430  35.585  53.150  0.00  0.00     0.025 A 
ATOM     20  C   UNL d   1      48.062  36.299  53.297  0.00  0.00     0.002 A 
ATOM     21  C   UNL d   1      47.689  36.709  52.683  0.00  0.00     0.000 A 
ATOM     22  C   UNL d   1      47.689  36.394  51.919  0.00  0.00     0.002 A 
ATOM     23  C   UNL d   1      48.061  35.672  51.772  0.00  0.00     0.025 A 
ENDBRANCH  17  18
ENDBRANCH   4  17
TORSDOF 6
ENDMDL
