MODEL 1
REMARK VINA RESULT:      -8.6      0.000      0.000
REMARK  5 active torsions:
REMARK  status: ('A' for Active; 'I' for Inactive)
REMARK    1  A    between atoms: N_3  and  C_1 
REMARK    2  A    between atoms: C_12  and  N_2 
REMARK       I    between atoms: C_6  and  N_3 
REMARK    3  A    between atoms: C_8  and  C_6 
REMARK    4  A    between atoms: C_16  and  C_12 
REMARK    5  A    between atoms: O_22  and  C_16 
ROOT
ATOM      1  C   UNL d   1      52.869  32.250  53.412  0.00  0.00     0.183 A 
ATOM      2  N   UNL d   1      53.131  33.005  53.604  0.00  0.00    -0.280 N 
ATOM      3  S   UNL d   1      52.204  32.327  52.930  0.00  0.00    -0.048 SA
ATOM      4  C   UNL d   1      52.055  33.135  52.824  0.00  0.00     0.051 A 
ATOM      5  C   UNL d   1      52.630  33.556  53.242  0.00  0.00     0.072 A 
ATOM      6  C   UNL d   1      51.472  33.540  52.402  0.00  0.00     0.038 A 
ATOM      7  C   UNL d   1      52.623  34.381  53.239  0.00  0.00     0.020 A 
ATOM      8  C   UNL d   1      51.465  34.365  52.399  0.00  0.00     0.141 A 
ATOM      9  C   UNL d   1      52.041  34.785  52.818  0.00  0.00     0.031 A 
ATOM     10  F   UNL d   1      50.886  34.762  51.980  0.00  0.00    -0.204 F 
ENDROOT
BRANCH   1  11
ATOM     11  N   UNL d   1      53.216  31.542  53.662  0.00  0.00    -0.183 NA
ATOM     12  C   UNL d   1      52.827  30.828  53.523  0.00  0.00     0.287 C 
ATOM     13  O   UNL d   1      52.098  30.825  53.138  0.00  0.00    -0.265 OA
BRANCH  12  14
ATOM     14  C   UNL d   1      53.162  30.128  53.766  0.00  0.00     0.088 A 
ATOM     15  S   UNL d   1      52.985  29.711  54.462  0.00  0.00    -0.071 SA
ATOM     16  C   UNL d   1      53.448  29.043  54.485  0.00  0.00     0.087 A 
ATOM     17 CL   UNL d   1      53.463  28.467  55.067  0.00  0.00    -0.075 Cl
ATOM     18  C   UNL d   1      53.909  29.041  53.812  0.00  0.00     0.019 A 
ATOM     19  C   UNL d   1      53.731  29.706  53.375  0.00  0.00     0.013 A 
ENDBRANCH  12  14
ENDBRANCH   1  11
BRANCH   2  20
ATOM     20  C   UNL d   1      53.649  33.520  53.982  0.00  0.00     0.151 C 
BRANCH  20  21
ATOM     21  C   UNL d   1      54.343  33.232  54.304  0.00  0.00     0.314 C 
ATOM     22  O   UNL d   1      54.954  33.007  53.808  0.00  0.00    -0.257 OA
BRANCH  21  23
ATOM     23  O   UNL d   1      54.427  33.170  55.109  0.00  0.00    -0.295 OA
ATOM     24  C   UNL d   1      55.035  33.555  55.488  0.00  0.00     0.185 C 
ENDBRANCH  21  23
ENDBRANCH  20  21
ENDBRANCH   2  20
TORSDOF 5
ENDMDL
MODEL 2
REMARK VINA RESULT:      -8.5      2.640      4.327
REMARK  5 active torsions:
REMARK  status: ('A' for Active; 'I' for Inactive)
REMARK    1  A    between atoms: N_3  and  C_1 
REMARK    2  A    between atoms: C_12  and  N_2 
REMARK       I    between atoms: C_6  and  N_3 
REMARK    3  A    between atoms: C_8  and  C_6 
REMARK    4  A    between atoms: C_16  and  C_12 
REMARK    5  A    between atoms: O_22  and  C_16 
ROOT
ATOM      1  C   UNL d   1      52.623  33.493  53.586  0.00  0.00     0.183 A 
ATOM      2  N   UNL d   1      53.108  32.836  53.669  0.00  0.00    -0.280 N 
ATOM      3  S   UNL d   1      52.937  34.102  54.046  0.00  0.00    -0.048 SA
ATOM      4  C   UNL d   1      53.621  33.817  54.417  0.00  0.00     0.051 A 
ATOM      5  C   UNL d   1      53.727  33.031  54.183  0.00  0.00     0.072 A 
ATOM      6  C   UNL d   1      54.158  34.170  54.934  0.00  0.00     0.038 A 
ATOM      7  C   UNL d   1      54.370  32.599  54.466  0.00  0.00     0.020 A 
ATOM      8  C   UNL d   1      54.801  33.738  55.218  0.00  0.00     0.141 A 
ATOM      9  C   UNL d   1      54.907  32.952  54.984  0.00  0.00     0.031 A 
ATOM     10  F   UNL d   1      55.331  34.091  55.730  0.00  0.00    -0.204 F 
ENDROOT
BRANCH   1  11
ATOM     11  N   UNL d   1      51.940  33.532  53.120  0.00  0.00    -0.183 NA
ATOM     12  C   UNL d   1      51.566  34.258  53.006  0.00  0.00     0.287 C 
ATOM     13  O   UNL d   1      51.874  34.938  53.356  0.00  0.00    -0.265 OA
BRANCH  12  14
ATOM     14  C   UNL d   1      50.895  34.303  52.549  0.00  0.00     0.088 A 
ATOM     15  S   UNL d   1      50.130  34.490  52.813  0.00  0.00    -0.071 SA
ATOM     16  C   UNL d   1      49.628  34.473  52.172  0.00  0.00     0.087 A 
ATOM     17 CL   UNL d   1      48.822  34.621  52.168  0.00  0.00    -0.075 Cl
ATOM     18  C   UNL d   1      50.072  34.277  51.517  0.00  0.00     0.019 A 
ATOM     19  C   UNL d   1      50.847  34.174  51.752  0.00  0.00     0.013 A 
ENDBRANCH  12  14
ENDBRANCH   1  11
BRANCH   2  20
ATOM     20  C   UNL d   1      53.309  32.055  53.504  0.00  0.00     0.151 C 
BRANCH  20  21
ATOM     21  C   UNL d   1      52.828  31.607  53.019  0.00  0.00     0.314 C 
ATOM     22  O   UNL d   1      52.870  31.706  52.209  0.00  0.00    -0.257 OA
BRANCH  21  23
ATOM     23  O   UNL d   1      52.313  31.067  53.339  0.00  0.00    -0.295 OA
ATOM     24  C   UNL d   1      52.341  30.287  53.107  0.00  0.00     0.185 C 
ENDBRANCH  21  23
ENDBRANCH  20  21
ENDBRANCH   2  20
TORSDOF 5
ENDMDL
MODEL 3
REMARK VINA RESULT:      -7.3      2.736      4.296
REMARK  5 active torsions:
REMARK  status: ('A' for Active; 'I' for Inactive)
REMARK    1  A    between atoms: N_3  and  C_1 
REMARK    2  A    between atoms: C_12  and  N_2 
REMARK       I    between atoms: C_6  and  N_3 
REMARK    3  A    between atoms: C_8  and  C_6 
REMARK    4  A    between atoms: C_16  and  C_12 
REMARK    5  A    between atoms: O_22  and  C_16 
ROOT
ATOM      1  C   UNL d   1      52.057  33.447  53.161  0.00  0.00     0.183 A 
ATOM      2  N   UNL d   1      52.732  33.597  53.605  0.00  0.00    -0.280 N 
ATOM      3  S   UNL d   1      52.074  32.655  52.931  0.00  0.00    -0.048 SA
ATOM      4  C   UNL d   1      52.765  32.314  53.236  0.00  0.00     0.051 A 
ATOM      5  C   UNL d   1      53.174  32.899  53.654  0.00  0.00     0.072 A 
ATOM      6  C   UNL d   1      53.073  31.550  53.186  0.00  0.00     0.038 A 
ATOM      7  C   UNL d   1      53.890  32.719  54.022  0.00  0.00     0.020 A 
ATOM      8  C   UNL d   1      53.789  31.371  53.554  0.00  0.00     0.141 A 
ATOM      9  C   UNL d   1      54.198  31.956  53.972  0.00  0.00     0.031 A 
ATOM     10  F   UNL d   1      54.092  30.613  53.502  0.00  0.00    -0.204 F 
ENDROOT
BRANCH   1  11
ATOM     11  N   UNL d   1      51.468  33.999  52.981  0.00  0.00    -0.183 NA
ATOM     12  C   UNL d   1      50.680  33.756  52.949  0.00  0.00     0.287 C 
ATOM     13  O   UNL d   1      50.487  32.968  53.096  0.00  0.00    -0.265 OA
BRANCH  12  14
ATOM     14  C   UNL d   1      50.095  34.294  52.772  0.00  0.00     0.088 A 
ATOM     15  S   UNL d   1      49.666  34.752  53.315  0.00  0.00    -0.071 SA
ATOM     16  C   UNL d   1      49.139  35.212  52.900  0.00  0.00     0.087 A 
ATOM     17 CL   UNL d   1      48.601  35.751  53.204  0.00  0.00    -0.075 Cl
ATOM     18  C   UNL d   1      49.236  35.044  52.108  0.00  0.00     0.019 A 
ATOM     19  C   UNL d   1      49.823  34.481  52.034  0.00  0.00     0.013 A 
ENDBRANCH  12  14
ENDBRANCH   1  11
BRANCH   2  20
ATOM     20  C   UNL d   1      53.218  34.096  54.043  0.00  0.00     0.151 C 
BRANCH  20  21
ATOM     21  C   UNL d   1      53.135  34.906  53.974  0.00  0.00     0.314 C 
ATOM     22  O   UNL d   1      53.304  35.268  53.260  0.00  0.00    -0.257 OA
BRANCH  21  23
ATOM     23  O   UNL d   1      52.887  35.348  54.608  0.00  0.00    -0.295 OA
ATOM     24  C   UNL d   1      53.211  36.082  54.746  0.00  0.00     0.185 C 
ENDBRANCH  21  23
ENDBRANCH  20  21
ENDBRANCH   2  20
TORSDOF 5
ENDMDL
MODEL 4
REMARK VINA RESULT:      -7.1      2.336      4.033
REMARK  5 active torsions:
REMARK  status: ('A' for Active; 'I' for Inactive)
REMARK    1  A    between atoms: N_3  and  C_1 
REMARK    2  A    between atoms: C_12  and  N_2 
REMARK       I    between atoms: C_6  and  N_3 
REMARK    3  A    between atoms: C_8  and  C_6 
REMARK    4  A    between atoms: C_16  and  C_12 
REMARK    5  A    between atoms: O_22  and  C_16 
ROOT
ATOM      1  C   UNL d   1      52.616  31.896  53.243  0.00  0.00     0.183 A 
ATOM      2  N   UNL d   1      53.290  31.749  53.689  0.00  0.00    -0.280 N 
ATOM      3  S   UNL d   1      52.294  31.169  53.022  0.00  0.00    -0.048 SA
ATOM      4  C   UNL d   1      52.773  30.570  53.334  0.00  0.00     0.051 A 
ATOM      5  C   UNL d   1      53.391  30.930  53.749  0.00  0.00     0.072 A 
ATOM      6  C   UNL d   1      52.726  29.747  53.295  0.00  0.00     0.038 A 
ATOM      7  C   UNL d   1      53.962  30.467  54.123  0.00  0.00     0.020 A 
ATOM      8  C   UNL d   1      53.297  29.284  53.670  0.00  0.00     0.141 A 
ATOM      9  C   UNL d   1      53.915  29.644  54.084  0.00  0.00     0.031 A 
ATOM     10  F   UNL d   1      53.246  28.469  53.628  0.00  0.00    -0.204 F 
ENDROOT
BRANCH   1  11
ATOM     11  N   UNL d   1      52.319  32.644  53.053  0.00  0.00    -0.183 NA
ATOM     12  C   UNL d   1      51.503  32.761  53.021  0.00  0.00     0.287 C 
ATOM     13  O   UNL d   1      50.991  32.133  53.179  0.00  0.00    -0.265 OA
BRANCH  12  14
ATOM     14  C   UNL d   1      51.203  33.494  52.835  0.00  0.00     0.088 A 
ATOM     15  S   UNL d   1      50.537  33.855  53.174  0.00  0.00    -0.071 SA
ATOM     16  C   UNL d   1      50.436  34.583  52.825  0.00  0.00     0.087 A 
ATOM     17 CL   UNL d   1      49.851  35.135  52.984  0.00  0.00    -0.075 Cl
ATOM     18  C   UNL d   1      51.031  34.677  52.275  0.00  0.00     0.019 A 
ATOM     19  C   UNL d   1      51.498  34.008  52.284  0.00  0.00     0.013 A 
ENDBRANCH  12  14
ENDBRANCH   1  11
BRANCH   2  20
ATOM     20  C   UNL d   1      53.942  31.998  54.125  0.00  0.00     0.151 C 
BRANCH  20  21
ATOM     21  C   UNL d   1      54.217  32.763  54.041  0.00  0.00     0.314 C 
ATOM     22  O   UNL d   1      54.611  32.976  53.356  0.00  0.00    -0.257 OA
BRANCH  21  23
ATOM     23  O   UNL d   1      54.101  33.308  54.631  0.00  0.00    -0.295 OA
ATOM     24  C   UNL d   1      54.733  33.721  54.937  0.00  0.00     0.185 C 
ENDBRANCH  21  23
ENDBRANCH  20  21
ENDBRANCH   2  20
TORSDOF 5
ENDMDL
MODEL 5
REMARK VINA RESULT:      -6.3      1.710      2.707
REMARK  5 active torsions:
REMARK  status: ('A' for Active; 'I' for Inactive)
REMARK    1  A    between atoms: N_3  and  C_1 
REMARK    2  A    between atoms: C_12  and  N_2 
REMARK       I    between atoms: C_6  and  N_3 
REMARK    3  A    between atoms: C_8  and  C_6 
REMARK    4  A    between atoms: C_16  and  C_12 
REMARK    5  A    between atoms: O_22  and  C_16 
ROOT
ATOM      1  C   UNL d   1      52.815  33.135  53.823  0.00  0.00     0.183 A 
ATOM      2  N   UNL d   1      52.400  33.785  53.540  0.00  0.00    -0.280 N 
ATOM      3  S   UNL d   1      53.371  33.406  54.370  0.00  0.00    -0.048 SA
ATOM      4  C   UNL d   1      53.298  34.230  54.423  0.00  0.00     0.051 A 
ATOM      5  C   UNL d   1      52.696  34.465  53.908  0.00  0.00     0.072 A 
ATOM      6  C   UNL d   1      53.701  34.792  54.872  0.00  0.00     0.038 A 
ATOM      7  C   UNL d   1      52.497  35.263  53.843  0.00  0.00     0.020 A 
ATOM      8  C   UNL d   1      53.502  35.590  54.807  0.00  0.00     0.141 A 
ATOM      9  C   UNL d   1      52.900  35.826  54.292  0.00  0.00     0.031 A 
ATOM     10  F   UNL d   1      53.904  36.145  55.254  0.00  0.00    -0.204 F 
ENDROOT
BRANCH   1  11
ATOM     11  N   UNL d   1      52.691  32.350  53.596  0.00  0.00    -0.183 NA
ATOM     12  C   UNL d   1      53.304  31.803  53.673  0.00  0.00     0.287 C 
ATOM     13  O   UNL d   1      54.033  32.043  53.974  0.00  0.00    -0.265 OA
BRANCH  12  14
ATOM     14  C   UNL d   1      53.189  31.028  53.451  0.00  0.00     0.088 A 
ATOM     15  S   UNL d   1      53.237  30.362  53.944  0.00  0.00    -0.071 SA
ATOM     16  C   UNL d   1      53.083  29.701  53.495  0.00  0.00     0.087 A 
ATOM     17 CL   UNL d   1      53.069  28.921  53.746  0.00  0.00    -0.075 Cl
ATOM     18  C   UNL d   1      52.942  29.950  52.732  0.00  0.00     0.019 A 
ATOM     19  C   UNL d   1      53.007  30.763  52.709  0.00  0.00     0.013 A 
ENDBRANCH  12  14
ENDBRANCH   1  11
BRANCH   2  20
ATOM     20  C   UNL d   1      51.824  34.129  53.065  0.00  0.00     0.151 C 
BRANCH  20  21
ATOM     21  C   UNL d   1      51.166  33.695  52.848  0.00  0.00     0.314 C 
ATOM     22  O   UNL d   1      50.691  33.368  53.428  0.00  0.00    -0.257 OA
BRANCH  21  23
ATOM     23  O   UNL d   1      50.984  33.589  52.064  0.00  0.00    -0.295 OA
ATOM     24  C   UNL d   1      50.308  33.918  51.753  0.00  0.00     0.185 C 
ENDBRANCH  21  23
ENDBRANCH  20  21
ENDBRANCH   2  20
TORSDOF 5
ENDMDL
MODEL 6
REMARK VINA RESULT:      -6.1      2.114      3.361
REMARK  5 active torsions:
REMARK  status: ('A' for Active; 'I' for Inactive)
REMARK    1  A    between atoms: N_3  and  C_1 
REMARK    2  A    between atoms: C_12  and  N_2 
REMARK       I    between atoms: C_6  and  N_3 
REMARK    3  A    between atoms: C_8  and  C_6 
REMARK    4  A    between atoms: C_16  and  C_12 
REMARK    5  A    between atoms: O_22  and  C_16 
ROOT
ATOM      1  C   UNL d   1      52.137  33.668  53.529  0.00  0.00     0.183 A 
ATOM      2  N   UNL d   1      51.699  33.147  53.069  0.00  0.00    -0.280 N 
ATOM      3  S   UNL d   1      51.738  34.390  53.546  0.00  0.00    -0.048 SA
ATOM      4  C   UNL d   1      51.048  34.313  53.093  0.00  0.00     0.051 A 
ATOM      5  C   UNL d   1      51.024  33.541  52.797  0.00  0.00     0.072 A 
ATOM      6  C   UNL d   1      50.442  34.843  52.914  0.00  0.00     0.038 A 
ATOM      7  C   UNL d   1      50.395  33.300  52.321  0.00  0.00     0.020 A 
ATOM      8  C   UNL d   1      49.812  34.602  52.438  0.00  0.00     0.141 A 
ATOM      9  C   UNL d   1      49.789  33.830  52.142  0.00  0.00     0.031 A 
ATOM     10  F   UNL d   1      49.213  35.131  52.262  0.00  0.00    -0.204 F 
ENDROOT
BRANCH   1  11
ATOM     11  N   UNL d   1      52.852  33.493  53.906  0.00  0.00    -0.183 NA
ATOM     12  C   UNL d   1      53.158  34.020  54.462  0.00  0.00     0.287 C 
ATOM     13  O   UNL d   1      52.749  34.715  54.639  0.00  0.00    -0.265 OA
BRANCH  12  14
ATOM     14  C   UNL d   1      53.861  33.854  54.837  0.00  0.00     0.088 A 
ATOM     15  S   UNL d   1      54.589  34.231  54.708  0.00  0.00    -0.071 SA
ATOM     16  C   UNL d   1      55.142  33.893  55.199  0.00  0.00     0.087 A 
ATOM     17 CL   UNL d   1      55.936  34.086  55.263  0.00  0.00    -0.075 Cl
ATOM     18  C   UNL d   1      54.766  33.312  55.630  0.00  0.00     0.019 A 
ATOM     19  C   UNL d   1      53.981  33.292  55.405  0.00  0.00     0.013 A 
ENDBRANCH  12  14
ENDBRANCH   1  11
BRANCH   2  20
ATOM     20  C   UNL d   1      51.575  32.411  52.724  0.00  0.00     0.151 C 
BRANCH  20  21
ATOM     21  C   UNL d   1      52.173  31.855  52.729  0.00  0.00     0.314 C 
ATOM     22  O   UNL d   1      52.824  31.958  52.245  0.00  0.00    -0.257 OA
BRANCH  21  23
ATOM     23  O   UNL d   1      52.124  31.203  53.212  0.00  0.00    -0.295 OA
ATOM     24  C   UNL d   1      52.555  30.534  53.042  0.00  0.00     0.185 C 
ENDBRANCH  21  23
ENDBRANCH  20  21
ENDBRANCH   2  20
TORSDOF 5
ENDMDL
