MODEL 1
REMARK VINA RESULT:     105.5      0.000      0.000
REMARK  8 active torsions:
REMARK  status: ('A' for Active; 'I' for Inactive)
REMARK    1  A    between atoms: C_7  and  C_1 
REMARK    2  A    between atoms: N_5  and  C_2 
REMARK       I    between atoms: C_8  and  N_5 
REMARK    3  A    between atoms: N_9  and  C_7 
REMARK    4  A    between atoms: C_12  and  C_7 
REMARK    5  A    between atoms: C_10  and  C_8 
REMARK    6  A    between atoms: C_11  and  C_14 
REMARK    7  A    between atoms: O_25  and  C_11 
REMARK    8  A    between atoms: C_31  and  O_25 
ROOT
ATOM      1  C   UNL d   1     -55.574-100.430 -44.152  0.00  0.00     0.068 C 
ENDROOT
BRANCH   1   2
ATOM      2  C   UNL d   1     -55.764 -99.810 -44.671  0.00  0.00     0.041 A 
ATOM      3  C   UNL d   1     -56.335 -99.221 -44.625  0.00  0.00     0.115 A 
ATOM      4  S   UNL d   1     -56.266 -98.756 -45.304  0.00  0.00    -0.068 SA
ATOM      5  C   UNL d   1     -55.655 -99.064 -45.760  0.00  0.00     0.031 A 
ATOM      6  C   UNL d   1     -55.334 -99.729 -45.366  0.00  0.00     0.009 A 
ATOM      7  C   UNL d   1     -55.402 -98.756 -46.497  0.00  0.00     0.007 C 
ATOM      8  C   UNL d   1     -54.712-100.203 -45.628  0.00  0.00     0.001 C 
BRANCH   3   9
ATOM      9  N   UNL d   1     -56.896 -99.099 -44.004  0.00  0.00    -0.200 NA
ATOM     10  C   UNL d   1     -57.713 -99.247 -44.143  0.00  0.00     0.302 C 
ATOM     11  O   UNL d   1     -57.948 -99.504 -44.873  0.00  0.00    -0.263 OA
BRANCH  10  12
ATOM     12  C   UNL d   1     -58.255 -99.123 -43.522  0.00  0.00     0.158 A 
ATOM     13  O   UNL d   1     -58.176 -99.246 -42.708  0.00  0.00    -0.300 OA
ATOM     14  C   UNL d   1     -58.898 -99.026 -42.360  0.00  0.00     0.123 A 
ATOM     15  C   UNL d   1     -59.409 -98.768 -42.992  0.00  0.00     0.029 A 
ATOM     16  C   UNL d   1     -58.987 -98.839 -43.694  0.00  0.00     0.032 A 
ENDBRANCH  10  12
ENDBRANCH   3   9
ENDBRANCH   1   2
BRANCH   1  17
ATOM     17  N   UNL d   1     -55.412-100.288 -43.336  0.00  0.00    -0.304 N 
ATOM     18  C   UNL d   1     -54.969 -99.637 -43.084  0.00  0.00     0.080 A 
ATOM     19  C   UNL d   1     -54.830 -99.528 -42.284  0.00  0.00     0.024 A 
ATOM     20  C   UNL d   1     -55.123-100.053 -41.739  0.00  0.00     0.067 A 
ATOM     21  C   UNL d   1     -55.567-100.708 -41.958  0.00  0.00     0.024 A 
ATOM     22  C   UNL d   1     -55.715-100.832 -42.766  0.00  0.00     0.080 A 
BRANCH  20  23
ATOM     23  C   UNL d   1     -54.963 -99.907 -40.959  0.00  0.00     0.300 C 
ATOM     24  O   UNL d   1     -55.035 -99.156 -40.633  0.00  0.00    -0.259 OA
BRANCH  23  25
ATOM     25  O   UNL d   1     -54.714-100.514 -40.442  0.00  0.00    -0.271 OA
BRANCH  25  26
ATOM     26  C   UNL d   1     -55.244-101.246 -40.619  0.00  0.00     0.126 C 
ATOM     27  C   UNL d   1     -55.283-101.722 -40.016  0.00  0.00     0.029 C 
ENDBRANCH  25  26
ENDBRANCH  23  25
ENDBRANCH  20  23
ENDBRANCH   1  17
BRANCH   1  28
ATOM     28  C   UNL d   1     -55.534-101.228 -44.417  0.00  0.00     0.035 A 
ATOM     29  C   UNL d   1     -56.223-101.677 -44.461  0.00  0.00     0.100 A 
ATOM     30  N   UNL d   1     -56.186-102.453 -44.719  0.00  0.00    -0.242 NA
ATOM     31  C   UNL d   1     -55.415-102.797 -44.945  0.00  0.00     0.099 A 
ATOM     32  C   UNL d   1     -54.739-102.302 -44.884  0.00  0.00     0.021 A 
ATOM     33  C   UNL d   1     -54.792-101.538 -44.628  0.00  0.00     0.005 A 
ENDBRANCH   1  28
TORSDOF 8
ENDMDL
