MODEL 1
REMARK VINA RESULT:       2.2      0.000      0.000
REMARK  5 active torsions:
REMARK  status: ('A' for Active; 'I' for Inactive)
REMARK    1  A    between atoms: C_10  and  N_2 
REMARK       I    between atoms: N_3  and  C_6 
REMARK    2  A    between atoms: C_6  and  C_14 
REMARK    3  A    between atoms: C_17  and  C_10 
REMARK    4  A    between atoms: O_13  and  C_12 
REMARK    5  A    between atoms: C_14  and  O_13 
ROOT
ATOM      1  C   UNL d   1      31.388  16.276 -23.928  0.00  0.00     0.265 A 
ATOM      2  N   UNL d   1      30.771  16.710 -24.283  0.00  0.00    -0.272 N 
ATOM      3  C   UNL d   1      32.006  16.692 -23.557  0.00  0.00     0.059 A 
ATOM      4  C   UNL d   1      32.006  17.521 -23.542  0.00  0.00     0.029 A 
ATOM      5  C   UNL d   1      31.393  17.942 -23.895  0.00  0.00     0.021 A 
ATOM      6  C   UNL d   1      30.772  17.539 -24.267  0.00  0.00     0.083 A 
ATOM      7  O   UNL d   1      31.387  15.455 -23.943  0.00  0.00    -0.267 OA
ATOM      8  C   UNL d   1      32.624  17.933 -23.172  0.00  0.00     0.100 A 
ATOM      9  C   UNL d   1      32.623  16.262 -23.203  0.00  0.00     0.005 A 
ATOM     10  C   UNL d   1      33.240  16.678 -22.832  0.00  0.00     0.002 A 
ATOM     11  C   UNL d   1      33.241  17.511 -22.817  0.00  0.00     0.025 A 
ENDROOT
BRANCH   8  12
ATOM     12  O   UNL d   1      32.625  18.757 -23.156  0.00  0.00    -0.300 OA
BRANCH  12  13
ATOM     13  C   UNL d   1      33.004  19.176 -22.483  0.00  0.00     0.184 C 
BRANCH  13  14
ATOM     14  C   UNL d   1      33.057  20.071 -22.691  0.00  0.00     0.290 C 
ATOM     15  N   UNL d   1      32.948  20.625 -22.114  0.00  0.00    -0.272 N 
ATOM     16  C   UNL d   1      32.996  21.408 -22.300  0.00  0.00     0.067 A 
ATOM     17  C   UNL d   1      32.793  20.394 -21.361  0.00  0.00     0.083 A 
ATOM     18  C   UNL d   1      32.887  21.983 -21.723  0.00  0.00     0.016 A 
ATOM     19  C   UNL d   1      33.151  21.653 -23.054  0.00  0.00     0.018 A 
ATOM     20  C   UNL d   1      32.932  22.768 -21.898  0.00  0.00     0.001 A 
ATOM     21  C   UNL d   1      32.730  21.731 -20.961  0.00  0.00     0.003 A 
ATOM     22  C   UNL d   1      33.089  22.990 -22.662  0.00  0.00     0.000 A 
ATOM     23  C   UNL d   1      33.200  22.432 -23.252  0.00  0.00     0.002 A 
ATOM     24  C   UNL d   1      32.684  20.947 -20.782  0.00  0.00     0.019 A 
ATOM     25  O   UNL d   1      33.234  20.319 -23.552  0.00  0.00    -0.264 OA
ENDBRANCH  13  14
ENDBRANCH  12  13
ENDBRANCH   8  12
BRANCH   2  26
ATOM     26  C   UNL d   1      30.153  16.310 -24.653  0.00  0.00     0.083 C 
BRANCH  26  27
ATOM     27  C   UNL d   1      29.416  16.258 -24.287  0.00  0.00     0.018 A 
ATOM     28  C   UNL d   1      28.973  16.930 -24.181  0.00  0.00     0.002 A 
ATOM     29  C   UNL d   1      28.240  16.881 -23.818  0.00  0.00     0.007 A 
ATOM     30  C   UNL d   1      27.948  16.151 -23.560  0.00  0.00     0.035 A 
ATOM     31  C   UNL d   1      28.400  15.466 -23.668  0.00  0.00     0.007 A 
ATOM     32 BR   UNL d   1      27.211  16.093 -23.194  0.00  0.00    -0.049 Br
ATOM     33  C   UNL d   1      29.142  15.512 -24.035  0.00  0.00     0.002 A 
ENDBRANCH  26  27
ENDBRANCH   2  26
TORSDOF 5
ENDMDL
MODEL 2
REMARK VINA RESULT:       2.2      2.099      6.070
REMARK  5 active torsions:
REMARK  status: ('A' for Active; 'I' for Inactive)
REMARK    1  A    between atoms: C_10  and  N_2 
REMARK       I    between atoms: N_3  and  C_6 
REMARK    2  A    between atoms: C_6  and  C_14 
REMARK    3  A    between atoms: C_17  and  C_10 
REMARK    4  A    between atoms: O_13  and  C_12 
REMARK    5  A    between atoms: C_14  and  O_13 
ROOT
ATOM      1  C   UNL d   1      33.096  22.533 -23.178  0.00  0.00     0.265 A 
ATOM      2  N   UNL d   1      33.183  22.344 -22.370  0.00  0.00    -0.272 N 
ATOM      3  C   UNL d   1      33.069  21.913 -23.731  0.00  0.00     0.059 A 
ATOM      4  C   UNL d   1      33.126  21.124 -23.483  0.00  0.00     0.029 A 
ATOM      5  C   UNL d   1      33.212  20.946 -22.684  0.00  0.00     0.021 A 
ATOM      6  C   UNL d   1      33.241  21.555 -22.123  0.00  0.00     0.083 A 
ATOM      7  O   UNL d   1      33.039  23.314 -23.423  0.00  0.00    -0.267 OA
ATOM      8  C   UNL d   1      33.099  20.507 -24.038  0.00  0.00     0.100 A 
ATOM      9  C   UNL d   1      32.982  22.098 -24.537  0.00  0.00     0.005 A 
ATOM     10  C   UNL d   1      32.955  21.478 -25.091  0.00  0.00     0.002 A 
ATOM     11  C   UNL d   1      33.013  20.685 -24.842  0.00  0.00     0.025 A 
ENDROOT
BRANCH   8  12
ATOM     12  O   UNL d   1      33.156  19.722 -23.792  0.00  0.00    -0.300 OA
BRANCH  12  13
ATOM     13  C   UNL d   1      33.171  19.082 -24.393  0.00  0.00     0.184 C 
BRANCH  13  14
ATOM     14  C   UNL d   1      32.787  18.329 -24.025  0.00  0.00     0.290 C 
ATOM     15  N   UNL d   1      32.059  18.086 -24.275  0.00  0.00    -0.272 N 
ATOM     16  C   UNL d   1      31.727  17.427 -23.950  0.00  0.00     0.067 A 
ATOM     17  C   UNL d   1      31.671  18.501 -24.843  0.00  0.00     0.083 A 
ATOM     18  C   UNL d   1      30.986  17.168 -24.195  0.00  0.00     0.016 A 
ATOM     19  C   UNL d   1      32.107  17.003 -23.378  0.00  0.00     0.018 A 
ATOM     20  C   UNL d   1      30.645  16.511 -23.877  0.00  0.00     0.001 A 
ATOM     21  C   UNL d   1      30.605  17.601 -24.774  0.00  0.00     0.003 A 
ATOM     22  C   UNL d   1      31.046  16.101 -23.303  0.00  0.00     0.000 A 
ATOM     23  C   UNL d   1      31.786  16.343 -23.046  0.00  0.00     0.002 A 
ATOM     24  C   UNL d   1      30.942  18.258 -25.094  0.00  0.00     0.019 A 
ATOM     25  O   UNL d   1      33.240  17.869 -23.380  0.00  0.00    -0.264 OA
ENDBRANCH  13  14
ENDBRANCH  12  13
ENDBRANCH   8  12
BRANCH   2  26
ATOM     26  C   UNL d   1      33.212  22.949 -21.812  0.00  0.00     0.083 C 
BRANCH  26  27
ATOM     27  C   UNL d   1      32.853  22.851 -21.076  0.00  0.00     0.018 A 
ATOM     28  C   UNL d   1      33.206  22.375 -20.520  0.00  0.00     0.002 A 
ATOM     29  C   UNL d   1      32.853  22.275 -19.787  0.00  0.00     0.007 A 
ATOM     30  C   UNL d   1      32.140  22.656 -19.611  0.00  0.00     0.035 A 
ATOM     31  C   UNL d   1      31.781  23.140 -20.178  0.00  0.00     0.007 A 
ATOM     32 BR   UNL d   1      31.777  22.561 -18.875  0.00  0.00    -0.049 Br
ATOM     33  C   UNL d   1      32.135  23.244 -20.920  0.00  0.00     0.002 A 
ENDBRANCH  26  27
ENDBRANCH   2  26
TORSDOF 5
ENDMDL
