MODEL 1
REMARK VINA RESULT:      37.7      0.000      0.000
REMARK  4 active torsions:
REMARK  status: ('A' for Active; 'I' for Inactive)
REMARK    1  A    between atoms: C_5  and  N_1 
REMARK    2  A    between atoms: C_9  and  C_3 
REMARK    3  A    between atoms: C_7  and  C_4 
REMARK    4  A    between atoms: N_10  and  C_5 
ROOT
ATOM      1  N   UNL d   1      13.683  12.687  -3.635  0.00  0.00    -0.203 N 
ATOM      2  N   UNL d   1      13.819  12.223  -2.963  0.00  0.00    -0.163 NA
ATOM      3  C   UNL d   1      14.015  12.693  -2.337  0.00  0.00     0.103 A 
ATOM      4  C   UNL d   1      13.799  13.487  -3.426  0.00  0.00     0.087 A 
ATOM      5  C   UNL d   1      14.005  13.498  -2.624  0.00  0.00     0.040 A 
ENDROOT
BRANCH   4   6
ATOM      6  C   UNL d   1      13.730  14.161  -3.899  0.00  0.00     0.018 A 
ATOM      7  C   UNL d   1      14.105  14.862  -3.695  0.00  0.00     0.002 A 
ATOM      8  C   UNL d   1      14.035  15.532  -4.168  0.00  0.00     0.007 A 
ATOM      9  C   UNL d   1      13.584  15.500  -4.854  0.00  0.00     0.035 A 
ATOM     10  C   UNL d   1      13.212  14.820  -5.065  0.00  0.00     0.007 A 
ATOM     11 BR   UNL d   1      13.527  16.195  -5.322  0.00  0.00    -0.049 Br
ATOM     12  C   UNL d   1      13.281  14.146  -4.591  0.00  0.00     0.002 A 
ENDBRANCH   4   6
BRANCH   1  13
ATOM     13  C   UNL d   1      13.466  12.410  -4.400  0.00  0.00     0.222 C 
ATOM     14  S   UNL d   1      12.770  12.722  -4.768  0.00  0.00    -0.037 SA
BRANCH  13  15
ATOM     15  N   UNL d   1      13.927  11.828  -4.807  0.00  0.00    -0.214 NA
ATOM     16  C   UNL d   1      13.910  11.791  -5.638  0.00  0.00     0.122 C 
ENDBRANCH  13  15
ENDBRANCH   1  13
BRANCH   3  17
ATOM     17  C   UNL d   1      14.191  12.422  -1.569  0.00  0.00     0.019 A 
ATOM     18  C   UNL d   1      14.944  12.518  -1.249  0.00  0.00     0.002 A 
ATOM     19  C   UNL d   1      15.099  12.239  -0.476  0.00  0.00     0.000 A 
ATOM     20  C   UNL d   1      14.507  11.876  -0.044  0.00  0.00     0.000 A 
ATOM     21  C   UNL d   1      13.759  11.789  -0.381  0.00  0.00     0.000 A 
ATOM     22  C   UNL d   1      13.602  12.056  -1.129  0.00  0.00     0.002 A 
ENDBRANCH   3  17
TORSDOF 4
ENDMDL
