MODEL 1
REMARK VINA RESULT:      -8.0      0.000      0.000
REMARK  3 active torsions:
REMARK  status: ('A' for Active; 'I' for Inactive)
REMARK    1  A    between atoms: N_2  and  S_1 
REMARK    2  A    between atoms: C_5  and  S_1 
REMARK    3  A    between atoms: C_3  and  N_4 
ROOT
ATOM      1  N   UNL d   1     -47.041  12.952  23.058  0.00  0.00    -0.226 N 
ATOM      2  N   UNL d   1     -45.801  11.877  23.199  0.00  0.00    -0.134 N 
ATOM      3  C   UNL d   1     -47.124  12.290  23.543  0.00  0.00     0.111 A 
ATOM      4  C   UNL d   1     -46.337  13.075  22.645  0.00  0.00     0.111 A 
ATOM      5  C   UNL d   1     -45.718  12.538  22.716  0.00  0.00     0.118 A 
ATOM      6  C   UNL d   1     -46.504  11.754  23.613  0.00  0.00     0.118 A 
ENDROOT
BRANCH   1   7
ATOM      7  S   UNL d   1     -47.673  13.491  22.992  0.00  0.00     0.271 S 
ATOM      8  O   UNL d   1     -48.146  12.893  22.663  0.00  0.00    -0.200 OA
ATOM      9  O   UNL d   1     -47.191  14.086  23.324  0.00  0.00    -0.200 OA
BRANCH   7  10
ATOM     10  C   UNL d   1     -48.299  14.035  22.930  0.00  0.00     0.104 A 
ATOM     11  C   UNL d   1     -49.036  13.842  23.278  0.00  0.00     0.015 A 
ATOM     12  C   UNL d   1     -49.670  14.385  23.220  0.00  0.00     0.030 A 
ATOM     13  C   UNL d   1     -49.561  15.107  22.816  0.00  0.00     0.140 A 
ATOM     14  C   UNL d   1     -48.822  15.293  22.470  0.00  0.00     0.030 A 
ATOM     15  F   UNL d   1     -50.188  15.644  22.758  0.00  0.00    -0.204 F 
ATOM     16  C   UNL d   1     -48.194  14.745  22.534  0.00  0.00     0.015 A 
ENDBRANCH   7  10
ENDBRANCH   1   7
BRANCH   2  17
ATOM     17  C   UNL d   1     -45.186  11.350  23.265  0.00  0.00     0.735 A 
ATOM     18  N   UNL d   1     -44.439  11.540  22.970  0.00  0.00    -0.059 NA
ATOM     19  C   UNL d   1     -43.820  11.005  23.038  0.00  0.00     0.120 A 
ATOM     20  C   UNL d   1     -43.948  10.278  23.403  0.00  0.00     0.043 A 
ATOM     21  C   UNL d   1     -44.695  10.089  23.698  0.00  0.00     0.120 A 
ATOM     22  N   UNL d   1     -45.305  10.625  23.627  0.00  0.00    -0.059 NA
ENDBRANCH   2  17
TORSDOF 3
ENDMDL
MODEL 2
REMARK VINA RESULT:      -7.5      2.253      5.020
REMARK  3 active torsions:
REMARK  status: ('A' for Active; 'I' for Inactive)
REMARK    1  A    between atoms: N_2  and  S_1 
REMARK    2  A    between atoms: C_5  and  S_1 
REMARK    3  A    between atoms: C_3  and  N_4 
ROOT
ATOM      1  N   UNL d   1     -47.443  13.737  22.778  0.00  0.00    -0.226 N 
ATOM      2  N   UNL d   1     -48.895  14.481  22.998  0.00  0.00    -0.134 N 
ATOM      3  C   UNL d   1     -47.511  14.548  22.653  0.00  0.00     0.111 A 
ATOM      4  C   UNL d   1     -48.101  13.298  23.013  0.00  0.00     0.111 A 
ATOM      5  C   UNL d   1     -48.827  13.670  23.122  0.00  0.00     0.118 A 
ATOM      6  C   UNL d   1     -48.237  14.919  22.763  0.00  0.00     0.118 A 
ENDROOT
BRANCH   1   7
ATOM      7  S   UNL d   1     -46.704  13.368  22.664  0.00  0.00     0.271 S 
ATOM      8  O   UNL d   1     -47.014  12.951  22.017  0.00  0.00    -0.200 OA
ATOM      9  O   UNL d   1     -46.400  13.790  23.316  0.00  0.00    -0.200 OA
BRANCH   7  10
ATOM     10  C   UNL d   1     -45.964  13.004  22.557  0.00  0.00     0.104 A 
ATOM     11  C   UNL d   1     -45.793  12.306  22.987  0.00  0.00     0.015 A 
ATOM     12  C   UNL d   1     -45.050  11.934  22.885  0.00  0.00     0.030 A 
ATOM     13  C   UNL d   1     -44.492  12.262  22.358  0.00  0.00     0.140 A 
ATOM     14  C   UNL d   1     -44.670  12.960  21.931  0.00  0.00     0.030 A 
ATOM     15  F   UNL d   1     -43.757  11.895  22.257  0.00  0.00    -0.204 F 
ATOM     16  C   UNL d   1     -45.414  13.324  22.040  0.00  0.00     0.015 A 
ENDBRANCH   7  10
ENDBRANCH   1   7
BRANCH   2  17
ATOM     17  C   UNL d   1     -49.614  14.842  23.108  0.00  0.00     0.735 A 
ATOM     18  N   UNL d   1     -50.294  14.537  22.755  0.00  0.00    -0.059 NA
ATOM     19  C   UNL d   1     -51.019  14.905  22.868  0.00  0.00     0.120 A 
ATOM     20  C   UNL d   1     -51.064  15.581  23.336  0.00  0.00     0.043 A 
ATOM     21  C   UNL d   1     -50.383  15.886  23.689  0.00  0.00     0.120 A 
ATOM     22  N   UNL d   1     -49.667  15.516  23.572  0.00  0.00    -0.059 NA
ENDBRANCH   2  17
TORSDOF 3
ENDMDL
MODEL 3
REMARK VINA RESULT:      -6.3      7.826      8.382
REMARK  3 active torsions:
REMARK  status: ('A' for Active; 'I' for Inactive)
REMARK    1  A    between atoms: N_2  and  S_1 
REMARK    2  A    between atoms: C_5  and  S_1 
REMARK    3  A    between atoms: C_3  and  N_4 
ROOT
ATOM      1  N   UNL d   1     -39.872  14.738  19.891  0.00  0.00    -0.226 N 
ATOM      2  N   UNL d   1     -39.317  14.380  21.400  0.00  0.00    -0.134 N 
ATOM      3  C   UNL d   1     -40.399  14.693  20.523  0.00  0.00     0.111 A 
ATOM      4  C   UNL d   1     -39.067  14.604  20.015  0.00  0.00     0.111 A 
ATOM      5  C   UNL d   1     -38.790  14.425  20.769  0.00  0.00     0.118 A 
ATOM      6  C   UNL d   1     -40.121  14.514  21.276  0.00  0.00     0.118 A 
ENDROOT
BRANCH   1   7
ATOM      7  S   UNL d   1     -40.161  14.919  19.131  0.00  0.00     0.271 S 
ATOM      8  O   UNL d   1     -39.731  15.629  19.140  0.00  0.00    -0.200 OA
ATOM      9  O   UNL d   1     -40.589  14.203  19.130  0.00  0.00    -0.200 OA
BRANCH   7  10
ATOM     10  C   UNL d   1     -40.453  15.093  18.372  0.00  0.00     0.104 A 
ATOM     11  C   UNL d   1     -40.975  15.741  18.281  0.00  0.00     0.015 A 
ATOM     12  C   UNL d   1     -41.274  15.922  17.520  0.00  0.00     0.030 A 
ATOM     13  C   UNL d   1     -41.048  15.456  16.866  0.00  0.00     0.140 A 
ATOM     14  C   UNL d   1     -40.526  14.809  16.964  0.00  0.00     0.030 A 
ATOM     15  F   UNL d   1     -41.343  15.634  16.113  0.00  0.00    -0.204 F 
ATOM     16  C   UNL d   1     -40.233  14.636  17.728  0.00  0.00     0.015 A 
ENDBRANCH   7  10
ENDBRANCH   1   7
BRANCH   2  17
ATOM     17  C   UNL d   1     -39.037  14.203  22.142  0.00  0.00     0.735 A 
ATOM     18  N   UNL d   1     -38.903  13.420  22.363  0.00  0.00    -0.059 NA
ATOM     19  C   UNL d   1     -38.621  13.245  23.113  0.00  0.00     0.120 A 
ATOM     20  C   UNL d   1     -38.472  13.856  23.645  0.00  0.00     0.043 A 
ATOM     21  C   UNL d   1     -38.607  14.639  23.424  0.00  0.00     0.120 A 
ATOM     22  N   UNL d   1     -38.887  14.806  22.677  0.00  0.00    -0.059 NA
ENDBRANCH   2  17
TORSDOF 3
ENDMDL
MODEL 4
REMARK VINA RESULT:      -5.7      8.167      9.086
REMARK  3 active torsions:
REMARK  status: ('A' for Active; 'I' for Inactive)
REMARK    1  A    between atoms: N_2  and  S_1 
REMARK    2  A    between atoms: C_5  and  S_1 
REMARK    3  A    between atoms: C_3  and  N_4 
ROOT
ATOM      1  N   UNL d   1     -39.976  14.951  19.769  0.00  0.00    -0.226 N 
ATOM      2  N   UNL d   1     -40.519  15.332  18.262  0.00  0.00    -0.134 N 
ATOM      3  C   UNL d   1     -40.058  14.360  19.201  0.00  0.00     0.111 A 
ATOM      4  C   UNL d   1     -40.166  15.732  19.583  0.00  0.00     0.111 A 
ATOM      5  C   UNL d   1     -40.437  15.922  18.829  0.00  0.00     0.118 A 
ATOM      6  C   UNL d   1     -40.330  14.551  18.448  0.00  0.00     0.118 A 
ENDROOT
BRANCH   1   7
ATOM      7  S   UNL d   1     -39.701  14.750  20.529  0.00  0.00     0.271 S 
ATOM      8  O   UNL d   1     -38.928  14.697  20.233  0.00  0.00    -0.200 OA
ATOM      9  O   UNL d   1     -40.481  14.805  20.820  0.00  0.00    -0.200 OA
BRANCH   7  10
ATOM     10  C   UNL d   1     -39.434  14.550  21.291  0.00  0.00     0.104 A 
ATOM     11  C   UNL d   1     -39.320  15.162  21.851  0.00  0.00     0.015 A 
ATOM     12  C   UNL d   1     -39.052  14.968  22.620  0.00  0.00     0.030 A 
ATOM     13  C   UNL d   1     -38.902  14.171  22.817  0.00  0.00     0.140 A 
ATOM     14  C   UNL d   1     -39.018  13.564  22.252  0.00  0.00     0.030 A 
ATOM     15  F   UNL d   1     -38.636  13.979  23.577  0.00  0.00    -0.204 F 
ATOM     16  C   UNL d   1     -39.286  13.768  21.487  0.00  0.00     0.015 A 
ENDBRANCH   7  10
ENDBRANCH   1   7
BRANCH   2  17
ATOM     17  C   UNL d   1     -40.788  15.525  17.520  0.00  0.00     0.735 A 
ATOM     18  N   UNL d   1     -41.596  15.534  17.356  0.00  0.00    -0.059 NA
ATOM     19  C   UNL d   1     -41.864  15.730  16.606  0.00  0.00     0.120 A 
ATOM     20  C   UNL d   1     -41.321  15.918  16.016  0.00  0.00     0.043 A 
ATOM     21  C   UNL d   1     -40.512  15.910  16.180  0.00  0.00     0.120 A 
ATOM     22  N   UNL d   1     -40.254  15.714  16.927  0.00  0.00    -0.059 NA
ENDBRANCH   2  17
TORSDOF 3
ENDMDL
