MODEL 1
REMARK VINA RESULT:      36.8      0.000      0.000
REMARK  3 active torsions:
REMARK  status: ('A' for Active; 'I' for Inactive)
REMARK    1  A    between atoms: C_14  and  N_3 
REMARK    2  A    between atoms: O_17  and  C_12 
REMARK    3  A    between atoms: O_16  and  C_13 
ROOT
ATOM      1  C   UNL d   1      59.899  49.652  50.539  0.00  0.00     0.166 A 
ATOM      2  C   UNL d   1      59.767  49.674  51.376  0.00  0.00     0.117 A 
ATOM      3  N   UNL d   1      60.720  49.649  50.415  0.00  0.00    -0.289 N 
ATOM      4  N   UNL d   1      59.231  49.640  50.033  0.00  0.00    -0.225 NA
ATOM      5  N   UNL d   1      59.003  49.682  51.672  0.00  0.00    -0.241 NA
ATOM      6  C   UNL d   1      60.510  49.682  51.723  0.00  0.00     0.037 A 
ATOM      7  C   UNL d   1      61.092  49.667  51.138  0.00  0.00     0.067 A 
ATOM      8  C   UNL d   1      58.471  49.647  50.326  0.00  0.00     0.103 A 
ATOM      9  C   UNL d   1      58.356  49.669  51.145  0.00  0.00     0.101 A 
ATOM     10  C   UNL d   1      57.849  49.635  49.816  0.00  0.00     0.047 A 
ATOM     11  C   UNL d   1      57.595  49.677  51.443  0.00  0.00     0.047 A 
ATOM     12  C   UNL d   1      56.927  49.664  50.937  0.00  0.00     0.118 A 
ATOM     13  C   UNL d   1      57.081  49.643  50.117  0.00  0.00     0.118 A 
ATOM     14  C   UNL d   1      60.732  49.703  52.521  0.00  0.00     0.003 A 
ATOM     15  C   UNL d   1      61.877  49.673  51.368  0.00  0.00     0.018 A 
ATOM     16  C   UNL d   1      61.531  49.708  52.736  0.00  0.00     0.000 A 
ATOM     17  C   UNL d   1      62.112  49.693  52.151  0.00  0.00     0.002 A 
ENDROOT
BRANCH   3  18
ATOM     18  C   UNL d   1      61.086  49.630  49.693  0.00  0.00     0.082 C 
ATOM     19  C   UNL d   1      60.636  49.635  49.001  0.00  0.00     0.021 C 
ENDBRANCH   3  18
BRANCH  13  20
ATOM     20  O   UNL d   1      56.453  49.630  49.607  0.00  0.00    -0.326 OA
ATOM     21  C   UNL d   1      56.473  49.176  48.914  0.00  0.00     0.181 C 
ENDBRANCH  13  20
BRANCH  12  22
ATOM     22  O   UNL d   1      56.148  49.672  51.250  0.00  0.00    -0.326 OA
ATOM     23  C   UNL d   1      56.034  49.705  52.075  0.00  0.00     0.181 C 
ENDBRANCH  12  22
TORSDOF 3
ENDMDL
