MODEL 1
REMARK VINA RESULT:      51.7      0.000      0.000
REMARK  3 active torsions:
REMARK  status: ('A' for Active; 'I' for Inactive)
REMARK    1  A    between atoms: N_5  and  S_1 
REMARK    2  A    between atoms: C_6  and  S_1 
REMARK    3  A    between atoms: C_2  and  C_9 
ROOT
ATOM      1  C   UNL d   1     -51.707  24.369  33.700  0.00  0.00     0.104 A 
ATOM      2  C   UNL d   1     -50.949  25.559  33.486  0.00  0.00     0.025 A 
ATOM      3  C   UNL d   1     -51.662  25.195  33.665  0.00  0.00     0.015 A 
ATOM      4  C   UNL d   1     -51.030  23.912  33.553  0.00  0.00     0.013 A 
ATOM      5  C   UNL d   1     -50.273  25.102  33.339  0.00  0.00     0.002 A 
ATOM      6  C   UNL d   1     -50.315  24.274  33.373  0.00  0.00     0.001 A 
ENDROOT
BRANCH   2   7
ATOM      7  C   UNL d   1     -50.904  26.385  33.451  0.00  0.00     0.111 A 
ATOM      8  N   UNL d   1     -51.540  26.893  33.391  0.00  0.00    -0.239 NA
ATOM      9  C   UNL d   1     -51.246  27.661  33.373  0.00  0.00     0.088 A 
ATOM     10  C   UNL d   1     -51.613  28.390  33.319  0.00  0.00     0.020 A 
ATOM     11  C   UNL d   1     -50.423  27.622  33.423  0.00  0.00     0.049 A 
ATOM     12  C   UNL d   1     -51.171  29.079  33.314  0.00  0.00     0.002 A 
ATOM     13  C   UNL d   1     -50.348  29.040  33.363  0.00  0.00     0.001 A 
ATOM     14  C   UNL d   1     -49.977  28.303  33.418  0.00  0.00     0.008 A 
ATOM     15  S   UNL d   1     -50.212  26.828  33.471  0.00  0.00    -0.066 SA
ENDBRANCH   2   7
BRANCH   1  16
ATOM     16  S   UNL d   1     -52.422  24.002  33.880  0.00  0.00     0.271 S 
ATOM     17  O   UNL d   1     -52.869  24.639  33.709  0.00  0.00    -0.200 OA
ATOM     18  O   UNL d   1     -51.860  23.256  34.078  0.00  0.00    -0.200 OA
BRANCH  16  19
ATOM     19  N   UNL d   1     -53.189  23.752  34.026  0.00  0.00    -0.229 N 
ATOM     20  C   UNL d   1     -53.627  23.877  34.721  0.00  0.00     0.092 A 
ATOM     21  C   UNL d   1     -54.371  23.530  34.621  0.00  0.00     0.021 A 
ATOM     22  C   UNL d   1     -54.403  23.191  33.875  0.00  0.00     0.021 A 
ATOM     23  C   UNL d   1     -53.675  23.328  33.507  0.00  0.00     0.092 A 
ENDBRANCH  16  19
ENDBRANCH   1  16
TORSDOF 3
ENDMDL
