MODEL 1
REMARK VINA RESULT:      68.8      0.000      0.000
REMARK  4 active torsions:
REMARK  status: ('A' for Active; 'I' for Inactive)
REMARK    1  A    between atoms: C_11  and  N_3 
REMARK    2  A    between atoms: C_10  and  C_5 
REMARK    3  A    between atoms: C_21  and  C_11 
REMARK    4  A    between atoms: N_12  and  C_21 
ROOT
ATOM      1  C   UNL d   1     -51.208  25.826  33.401  0.00  0.00     0.085 A 
ATOM      2  C   UNL d   1     -51.755  26.458  33.423  0.00  0.00     0.161 A 
ATOM      3  N   UNL d   1     -50.516  26.970  33.442  0.00  0.00    -0.268 N 
ATOM      4  C   UNL d   1     -51.325  27.159  33.448  0.00  0.00     0.288 A 
ATOM      5  C   UNL d   1     -50.448  26.148  33.413  0.00  0.00     0.095 A 
ATOM      6  C   UNL d   1     -51.485  25.043  33.374  0.00  0.00     0.201 A 
ATOM      7  O   UNL d   1     -52.565  26.300  33.417  0.00  0.00    -0.302 OA
ATOM      8  C   UNL d   1     -52.300  24.898  33.368  0.00  0.00     0.063 A 
ATOM      9  C   UNL d   1     -52.844  25.525  33.389  0.00  0.00     0.103 A 
ATOM     10  O   UNL d   1     -51.641  27.925  33.474  0.00  0.00    -0.264 OA
ATOM     11  O   UNL d   1     -50.950  24.417  33.352  0.00  0.00    -0.286 OA
ATOM     12  C   UNL d   1     -52.571  24.119  33.341  0.00  0.00     0.017 A 
ATOM     13  C   UNL d   1     -53.649  25.362  33.383  0.00  0.00     0.026 A 
ATOM     14  C   UNL d   1     -53.378  23.965  33.335  0.00  0.00     0.058 A 
ATOM     15  C   UNL d   1     -53.917  24.586  33.356  0.00  0.00     0.013 A 
ATOM     16 CL   UNL d   1     -53.646  23.188  33.307  0.00  0.00    -0.082 Cl
ENDROOT
BRANCH   3  17
ATOM     17  C   UNL d   1     -49.894  27.508  33.461  0.00  0.00     0.102 C 
BRANCH  17  18
ATOM     18  C   UNL d   1     -49.894  28.131  34.003  0.00  0.00     0.100 C 
BRANCH  18  19
ATOM     19  N   UNL d   1     -49.190  28.496  34.221  0.00  0.00    -0.298 N 
ATOM     20  C   UNL d   1     -48.860  29.061  33.733  0.00  0.00     0.107 A 
ATOM     21  C   UNL d   1     -48.156  29.426  33.951  0.00  0.00     0.142 A 
ATOM     22  O   UNL d   1     -47.788  29.223  34.656  0.00  0.00    -0.300 OA
ATOM     23  C   UNL d   1     -48.125  28.654  35.143  0.00  0.00     0.142 A 
ATOM     24  C   UNL d   1     -48.830  28.288  34.925  0.00  0.00     0.107 A 
ENDBRANCH  18  19
ENDBRANCH  17  18
ENDBRANCH   3  17
BRANCH   5  25
ATOM     25  C   UNL d   1     -49.765  25.684  33.397  0.00  0.00     0.116 A 
ATOM     26  O   UNL d   1     -48.981  25.954  33.465  0.00  0.00    -0.304 OA
ATOM     27  C   UNL d   1     -48.479  25.301  33.420  0.00  0.00     0.123 A 
ATOM     28  C   UNL d   1     -48.942  24.624  33.325  0.00  0.00     0.029 A 
ATOM     29  C   UNL d   1     -49.738  24.859  33.311  0.00  0.00     0.028 A 
ENDBRANCH   5  25
TORSDOF 4
ENDMDL
