MODEL 1
REMARK VINA RESULT:      11.6      0.000      0.000
REMARK  2 active torsions:
REMARK  status: ('A' for Active; 'I' for Inactive)
REMARK       I    between atoms: N_2  and  C_1 
REMARK    1  A    between atoms: C_4  and  N_2 
REMARK    2  A    between atoms: O_8  and  C_7 
ROOT
ATOM      1  C   UNL d   1     -57.583 -98.756 -44.226  0.00  0.00     0.102 A 
ATOM      2  C   UNL d   1     -58.170 -98.756 -43.645  0.00  0.00     0.044 A 
ATOM      3  C   UNL d   1     -58.967 -98.756 -43.861  0.00  0.00     0.096 A 
ATOM      4  C   UNL d   1     -58.587 -98.756 -45.241  0.00  0.00     0.004 A 
ATOM      5  C   UNL d   1     -57.791 -98.756 -45.024  0.00  0.00     0.020 A 
ATOM      6  C   UNL d   1     -59.174 -98.756 -44.660  0.00  0.00     0.024 A 
ENDROOT
BRANCH   1   7
ATOM      7  N   UNL d   1     -56.784 -98.755 -44.012  0.00  0.00    -0.056 NA
ATOM      8  C   UNL d   1     -56.194 -98.812 -44.592  0.00  0.00     0.787 C 
ATOM      9  N   UNL d   1     -55.396 -98.812 -44.383  0.00  0.00     0.064 N 
ATOM     10  N   UNL d   1     -56.414 -98.868 -45.387  0.00  0.00     0.064 N 
ENDBRANCH   1   7
BRANCH   3  11
ATOM     11  O   UNL d   1     -59.554 -98.756 -43.280  0.00  0.00    -0.328 OA
ATOM     12  C   UNL d   1     -59.357 -98.900 -42.492  0.00  0.00     0.181 C 
ENDBRANCH   3  11
TORSDOF 2
ENDMDL
MODEL 2
REMARK VINA RESULT:      14.3      2.137      3.176
REMARK  2 active torsions:
REMARK  status: ('A' for Active; 'I' for Inactive)
REMARK       I    between atoms: N_2  and  C_1 
REMARK    1  A    between atoms: C_4  and  N_2 
REMARK    2  A    between atoms: O_8  and  C_7 
ROOT
ATOM      1  C   UNL d   1     -55.311-100.360 -44.697  0.00  0.00     0.102 A 
ATOM      2  C   UNL d   1     -56.066-100.113 -44.470  0.00  0.00     0.044 A 
ATOM      3  C   UNL d   1     -56.222 -99.310 -44.358  0.00  0.00     0.096 A 
ATOM      4  C   UNL d   1     -54.868 -99.002 -44.703  0.00  0.00     0.004 A 
ATOM      5  C   UNL d   1     -54.711 -99.805 -44.814  0.00  0.00     0.020 A 
ATOM      6  C   UNL d   1     -55.623 -98.755 -44.475  0.00  0.00     0.024 A 
ENDROOT
BRANCH   1   7
ATOM      7  N   UNL d   1     -55.150-101.164 -44.809  0.00  0.00    -0.056 NA
ATOM      8  C   UNL d   1     -54.873-101.628 -44.181  0.00  0.00     0.787 C 
ATOM      9  N   UNL d   1     -54.712-102.429 -44.289  0.00  0.00     0.064 N 
ATOM     10  N   UNL d   1     -54.758-101.278 -43.441  0.00  0.00     0.064 N 
ENDBRANCH   1   7
BRANCH   3  11
ATOM     11  O   UNL d   1     -56.977 -99.063 -44.131  0.00  0.00    -0.328 OA
ATOM     12  C   UNL d   1     -57.518 -98.809 -44.700  0.00  0.00     0.181 C 
ENDBRANCH   3  11
TORSDOF 2
ENDMDL
