MODEL 1
REMARK VINA RESULT:      51.1      0.000      0.000
REMARK  8 active torsions:
REMARK  status: ('A' for Active; 'I' for Inactive)
REMARK    1  A    between atoms: C_11  and  N_1 
REMARK    2  A    between atoms: S_7  and  C_2 
REMARK    3  A    between atoms: C_18  and  S_7 
REMARK    4  A    between atoms: C_8  and  C_10 
REMARK       I    between atoms: N_14  and  C_8 
REMARK    5  A    between atoms: C_13  and  C_11 
REMARK    6  A    between atoms: C_25  and  N_14 
REMARK    7  A    between atoms: C_19  and  C_18 
REMARK    8  A    between atoms: C_26  and  C_25 
ROOT
ATOM      1  N   UNL d   1      13.611  12.977  -2.976  0.00  0.00    -0.253 N 
ATOM      2  C   UNL d   1      14.072  13.620  -2.986  0.00  0.00     0.182 A 
ATOM      3  C   UNL d   1      13.627  12.449  -2.337  0.00  0.00     0.268 A 
ATOM      4  N   UNL d   1      14.586  13.788  -2.358  0.00  0.00    -0.222 NA
ATOM      5  C   UNL d   1      14.122  12.598  -1.715  0.00  0.00     0.074 A 
ATOM      6  C   UNL d   1      14.611  13.281  -1.726  0.00  0.00     0.088 A 
ATOM      7  O   UNL d   1      13.151  11.784  -2.326  0.00  0.00    -0.267 OA
ATOM      8  C   UNL d   1      14.154  12.092  -1.076  0.00  0.00     0.006 A 
ATOM      9  C   UNL d   1      15.112  13.431  -1.097  0.00  0.00     0.019 A 
ATOM     10  C   UNL d   1      14.666  12.262  -0.452  0.00  0.00     0.000 A 
ATOM     11  C   UNL d   1      15.126  12.905  -0.463  0.00  0.00     0.002 A 
ENDROOT
BRANCH   2  12
ATOM     12  S   UNL d   1      14.041  14.137  -3.637  0.00  0.00    -0.049 SA
BRANCH  12  13
ATOM     13  C   UNL d   1      14.390  14.888  -3.576  0.00  0.00     0.038 C 
BRANCH  13  14
ATOM     14  C   UNL d   1      14.241  15.479  -4.131  0.00  0.00     0.007 A 
ATOM     15  C   UNL d   1      14.373  16.278  -3.914  0.00  0.00     0.001 A 
ATOM     16  C   UNL d   1      14.231  16.871  -4.447  0.00  0.00     0.005 A 
ATOM     17  C   UNL d   1      13.955  16.689  -5.208  0.00  0.00     0.058 A 
ATOM     18  C   UNL d   1      13.829  15.907  -5.411  0.00  0.00     0.005 A 
ATOM     19  C   UNL d   1      13.975  15.315  -4.865  0.00  0.00     0.001 A 
BRANCH  17  20
ATOM     20  C   UNL d   1      13.800  17.286  -5.781  0.00  0.00     0.279 C 
ATOM     21  O   UNL d   1      13.230  17.145  -6.382  0.00  0.00    -0.265 OA
ATOM     22  N   UNL d   1      14.205  18.007  -5.755  0.00  0.00    -0.203 NA
BRANCH  22  23
ATOM     23  C   UNL d   1      14.045  18.610  -6.338  0.00  0.00     0.148 C 
BRANCH  23  24
ATOM     24  C   UNL d   1      14.201  19.389  -6.184  0.00  0.00     0.255 C 
ATOM     25  O   UNL d   1      13.598  19.897  -5.970  0.00  0.00    -0.281 OA
ENDBRANCH  23  24
ENDBRANCH  22  23
ENDBRANCH  17  20
ENDBRANCH  13  14
ENDBRANCH  12  13
ENDBRANCH   2  12
BRANCH   1  26
ATOM     26  C   UNL d   1      13.100  12.822  -3.616  0.00  0.00     0.085 C 
BRANCH  26  27
ATOM     27  C   UNL d   1      13.088  12.052  -3.940  0.00  0.00     0.019 C 
ATOM     28  C   UNL d   1      12.769  11.919  -4.693  0.00  0.00     0.002 C 
ENDBRANCH  26  27
ENDBRANCH   1  26
TORSDOF 8
ENDMDL
