MODEL 1
REMARK VINA RESULT:      33.6      0.000      0.000
REMARK  3 active torsions:
REMARK  status: ('A' for Active; 'I' for Inactive)
REMARK    1  A    between atoms: C_10  and  C_4 
REMARK    2  A    between atoms: C_11  and  C_7 
REMARK    3  A    between atoms: C_12  and  C_10 
ROOT
ATOM      1  N   UNL d   1      14.231  13.089  -1.747  0.00  0.00    -0.186 N 
ATOM      2  N   UNL d   1      14.388  13.896  -1.591  0.00  0.00    -0.162 NA
ATOM      3  C   UNL d   1      14.638  12.506  -1.313  0.00  0.00     0.217 A 
ATOM      4  C   UNL d   1      13.730  12.713  -2.269  0.00  0.00     0.187 A 
ATOM      5  N   UNL d   1      13.813  11.902  -2.172  0.00  0.00    -0.127 NA
ATOM      6  N   UNL d   1      14.369  11.779  -1.587  0.00  0.00    -0.120 NA
ATOM      7  C   UNL d   1      14.936  14.109  -1.018  0.00  0.00     0.108 A 
ATOM      8  S   UNL d   1      15.182  12.739  -0.744  0.00  0.00    -0.045 SA
ATOM      9  C   UNL d   1      15.344  13.526  -0.583  0.00  0.00     0.059 A 
ENDROOT
BRANCH   4  10
ATOM     10  C   UNL d   1      13.223  13.061  -2.805  0.00  0.00     0.041 C 
BRANCH  10  11
ATOM     11  C   UNL d   1      13.211  12.801  -3.573  0.00  0.00     0.003 A 
ATOM     12  C   UNL d   1      12.866  12.080  -3.767  0.00  0.00     0.000 A 
ATOM     13  C   UNL d   1      12.849  11.807  -4.545  0.00  0.00     0.000 A 
ATOM     14  C   UNL d   1      13.182  12.265  -5.131  0.00  0.00     0.000 A 
ATOM     15  C   UNL d   1      13.528  12.985  -4.942  0.00  0.00     0.000 A 
ATOM     16  C   UNL d   1      13.546  13.256  -4.175  0.00  0.00     0.000 A 
ENDBRANCH  10  11
ENDBRANCH   4  10
BRANCH   7  17
ATOM     17  C   UNL d   1      15.085  14.912  -0.871  0.00  0.00     0.020 A 
ATOM     18  C   UNL d   1      15.549  15.136  -0.219  0.00  0.00     0.002 A 
ATOM     19  C   UNL d   1      15.706  15.938  -0.062  0.00  0.00     0.000 A 
ATOM     20  C   UNL d   1      15.388  16.522  -0.570  0.00  0.00     0.000 A 
ATOM     21  C   UNL d   1      14.931  16.307  -1.212  0.00  0.00     0.000 A 
ATOM     22  C   UNL d   1      14.775  15.500  -1.369  0.00  0.00     0.002 A 
ENDBRANCH   7  17
TORSDOF 3
ENDMDL
MODEL 2
REMARK VINA RESULT:      36.1      1.933      3.114
REMARK  3 active torsions:
REMARK  status: ('A' for Active; 'I' for Inactive)
REMARK    1  A    between atoms: C_10  and  C_4 
REMARK    2  A    between atoms: C_11  and  C_7 
REMARK    3  A    between atoms: C_12  and  C_10 
ROOT
ATOM      1  N   UNL d   1      13.322  13.208  -3.495  0.00  0.00    -0.186 N 
ATOM      2  N   UNL d   1      13.635  13.207  -2.719  0.00  0.00    -0.162 NA
ATOM      3  C   UNL d   1      13.246  12.486  -3.904  0.00  0.00     0.217 A 
ATOM      4  C   UNL d   1      13.052  13.805  -3.983  0.00  0.00     0.187 A 
ATOM      5  N   UNL d   1      12.808  13.470  -4.692  0.00  0.00    -0.127 NA
ATOM      6  N   UNL d   1      12.927  12.665  -4.640  0.00  0.00    -0.120 NA
ATOM      7  C   UNL d   1      13.864  12.503  -2.365  0.00  0.00     0.108 A 
ATOM      8  S   UNL d   1      13.481  11.792  -3.532  0.00  0.00    -0.045 SA
ATOM      9  C   UNL d   1      13.788  11.779  -2.773  0.00  0.00     0.059 A 
ENDROOT
BRANCH   4  10
ATOM     10  C   UNL d   1      13.021  14.602  -3.818  0.00  0.00     0.041 C 
BRANCH  10  11
ATOM     11  C   UNL d   1      13.545  15.107  -4.175  0.00  0.00     0.003 A 
ATOM     12  C   UNL d   1      13.519  15.233  -4.987  0.00  0.00     0.000 A 
ATOM     13  C   UNL d   1      14.048  15.744  -5.360  0.00  0.00     0.000 A 
ATOM     14  C   UNL d   1      14.606  16.132  -4.910  0.00  0.00     0.000 A 
ATOM     15  C   UNL d   1      14.635  16.009  -4.099  0.00  0.00     0.000 A 
ATOM     16  C   UNL d   1      14.115  15.505  -3.729  0.00  0.00     0.000 A 
ENDBRANCH  10  11
ENDBRANCH   4  10
BRANCH   7  17
ATOM     17  C   UNL d   1      14.173  12.511  -1.595  0.00  0.00     0.020 A 
ATOM     18  C   UNL d   1      13.893  11.972  -1.029  0.00  0.00     0.002 A 
ATOM     19  C   UNL d   1      14.196  11.971  -0.254  0.00  0.00     0.000 A 
ATOM     20  C   UNL d   1      14.790  12.524  -0.048  0.00  0.00     0.000 A 
ATOM     21  C   UNL d   1      15.068  13.056  -0.602  0.00  0.00     0.000 A 
ATOM     22  C   UNL d   1      14.763  13.056  -1.382  0.00  0.00     0.002 A 
ENDBRANCH   7  17
TORSDOF 3
ENDMDL
