MODEL 1
REMARK VINA RESULT:      81.0      0.000      0.000
REMARK  3 active torsions:
REMARK  status: ('A' for Active; 'I' for Inactive)
REMARK    1  A    between atoms: C_8  and  N_1 
REMARK    2  A    between atoms: O_16  and  C_11 
REMARK    3  A    between atoms: C_19  and  O_16 
ROOT
ATOM      1  N   UNL d   1     -54.866-101.167 -43.115  0.00  0.00    -0.240 N 
ATOM      2  C   UNL d   1     -54.835-100.378 -42.911  0.00  0.00     0.267 A 
ATOM      3  C   UNL d   1     -54.863-101.824 -42.614  0.00  0.00     0.267 A 
ATOM      4  C   UNL d   1     -54.830-101.850 -41.788  0.00  0.00     0.057 A 
ATOM      5  C   UNL d   1     -54.795-100.040 -42.162  0.00  0.00     0.057 A 
ATOM      6  C   UNL d   1     -54.791-101.219 -41.266  0.00  0.00     0.005 A 
ATOM      7  C   UNL d   1     -54.775-100.410 -41.426  0.00  0.00     0.005 A 
ATOM      8  O   UNL d   1     -54.846 -99.843 -43.546  0.00  0.00    -0.267 OA
ATOM      9  O   UNL d   1     -54.899-102.556 -42.995  0.00  0.00    -0.267 OA
ATOM     10  C   UNL d   1     -54.840-102.618 -41.509  0.00  0.00     0.005 A 
ATOM     11  C   UNL d   1     -54.774 -99.227 -42.209  0.00  0.00     0.005 A 
ATOM     12  C   UNL d   1     -54.734 -99.965 -40.740  0.00  0.00     0.000 A 
ATOM     13  C   UNL d   1     -54.761-101.360 -40.448  0.00  0.00     0.000 A 
ATOM     14  C   UNL d   1     -54.771-102.137 -40.166  0.00  0.00     0.000 A 
ATOM     15  C   UNL d   1     -54.712 -99.143 -40.782  0.00  0.00     0.000 A 
ATOM     16  C   UNL d   1     -54.733 -98.771 -41.523  0.00  0.00     0.000 A 
ATOM     17  C   UNL d   1     -54.810-102.760 -40.692  0.00  0.00     0.000 A 
ENDROOT
BRANCH   1  18
ATOM     18  C   UNL d   1     -54.904-101.329 -43.927  0.00  0.00     0.092 A 
ATOM     19  C   UNL d   1     -55.065-100.720 -44.461  0.00  0.00     0.116 A 
ATOM     20  C   UNL d   1     -55.103-100.881 -45.273  0.00  0.00     0.026 A 
ATOM     21  C   UNL d   1     -54.978-101.659 -45.552  0.00  0.00     0.002 A 
ATOM     22  C   UNL d   1     -54.815-102.271 -45.007  0.00  0.00     0.002 A 
ATOM     23  C   UNL d   1     -54.778-102.106 -44.198  0.00  0.00     0.020 A 
BRANCH  19  24
ATOM     24  O   UNL d   1     -55.189 -99.951 -44.183  0.00  0.00    -0.304 OA
BRANCH  24  25
ATOM     25  C   UNL d   1     -55.310 -99.344 -44.719  0.00  0.00     0.123 C 
ATOM     26  C   UNL d   1     -56.064 -99.027 -44.805  0.00  0.00     0.029 C 
ENDBRANCH  24  25
ENDBRANCH  19  24
ENDBRANCH   1  18
TORSDOF 3
ENDMDL
