MODEL 1
REMARK VINA RESULT:      -3.8      0.000      0.000
REMARK  1 active torsions:
REMARK  status: ('A' for Active; 'I' for Inactive)
REMARK    1  A    between atoms: C_4  and  C_2 
ROOT
ATOM      1  C   UNL d   1     -41.711-122.460 -51.112  0.00  0.00     0.141 C 
ATOM      2  C   UNL d   1     -41.525-123.098 -51.590  0.00  0.00     0.112 C 
ATOM      3  C   UNL d   1     -41.438-121.696 -51.302  0.00  0.00     0.112 C 
ATOM      4  N   UNL d   1     -41.162-120.910 -51.491  0.00  0.00    -0.191 NA
ATOM      5  N   UNL d   1     -41.328-123.745 -52.087  0.00  0.00    -0.191 NA
ENDROOT
BRANCH   1   6
ATOM      6  C   UNL d   1     -42.177-122.589 -50.434  0.00  0.00     0.079 A 
ATOM      7  C   UNL d   1     -42.969-122.452 -50.394  0.00  0.00     0.281 A 
ATOM      8  N   UNL d   1     -43.226-122.643 -49.644  0.00  0.00    -0.208 NA
ATOM      9  O   UNL d   1     -43.424-122.162 -51.032  0.00  0.00    -0.265 OA
ATOM     10  C   UNL d   1     -42.587-122.899 -49.220  0.00  0.00     0.085 A 
ATOM     11  C   UNL d   1     -42.514-123.164 -48.435  0.00  0.00     0.019 A 
ATOM     12  C   UNL d   1     -41.919-122.870 -49.706  0.00  0.00     0.024 A 
ATOM     13  C   UNL d   1     -41.796-123.389 -48.154  0.00  0.00     0.002 A 
ATOM     14  C   UNL d   1     -41.127-123.355 -48.655  0.00  0.00     0.000 A 
ATOM     15  C   UNL d   1     -41.208-123.091 -49.433  0.00  0.00     0.002 A 
ENDBRANCH   1   6
TORSDOF 1
ENDMDL
MODEL 2
REMARK VINA RESULT:      -2.8      1.907      3.711
REMARK  1 active torsions:
REMARK  status: ('A' for Active; 'I' for Inactive)
REMARK    1  A    between atoms: C_4  and  C_2 
ROOT
ATOM      1  C   UNL d   1     -41.894-121.983 -51.691  0.00  0.00     0.141 C 
ATOM      2  C   UNL d   1     -42.510-122.185 -51.190  0.00  0.00     0.112 C 
ATOM      3  C   UNL d   1     -41.516-121.244 -51.619  0.00  0.00     0.112 C 
ATOM      4  N   UNL d   1     -41.124-120.489 -51.551  0.00  0.00    -0.191 NA
ATOM      5  N   UNL d   1     -43.139-122.381 -50.670  0.00  0.00    -0.191 NA
ENDROOT
BRANCH   1   6
ATOM      6  C   UNL d   1     -41.655-122.529 -52.273  0.00  0.00     0.079 A 
ATOM      7  C   UNL d   1     -41.299-123.233 -52.116  0.00  0.00     0.281 A 
ATOM      8  N   UNL d   1     -41.150-123.609 -52.824  0.00  0.00    -0.208 NA
ATOM      9  O   UNL d   1     -41.123-123.505 -51.346  0.00  0.00    -0.265 OA
ATOM     10  C   UNL d   1     -41.417-123.134 -53.420  0.00  0.00     0.085 A 
ATOM     11  C   UNL d   1     -41.415-123.228 -54.246  0.00  0.00     0.019 A 
ATOM     12  C   UNL d   1     -41.739-122.449 -53.087  0.00  0.00     0.024 A 
ATOM     13  C   UNL d   1     -41.724-122.653 -54.715  0.00  0.00     0.002 A 
ATOM     14  C   UNL d   1     -42.046-121.964 -54.366  0.00  0.00     0.000 A 
ATOM     15  C   UNL d   1     -42.045-121.879 -53.545  0.00  0.00     0.002 A 
ENDBRANCH   1   6
TORSDOF 1
ENDMDL
MODEL 3
REMARK VINA RESULT:      -1.9      1.411      2.320
REMARK  1 active torsions:
REMARK  status: ('A' for Active; 'I' for Inactive)
REMARK    1  A    between atoms: C_4  and  C_2 
ROOT
ATOM      1  C   UNL d   1     -42.844-122.961 -49.807  0.00  0.00     0.141 C 
ATOM      2  C   UNL d   1     -42.685-122.336 -50.312  0.00  0.00     0.112 C 
ATOM      3  C   UNL d   1     -43.600-123.311 -49.793  0.00  0.00     0.112 C 
ATOM      4  N   UNL d   1     -44.372-123.675 -49.774  0.00  0.00    -0.191 NA
ATOM      5  N   UNL d   1     -42.533-121.697 -50.834  0.00  0.00    -0.191 NA
ENDROOT
BRANCH   1   6
ATOM      6  C   UNL d   1     -42.238-123.239 -49.309  0.00  0.00     0.079 A 
ATOM      7  C   UNL d   1     -41.585-123.634 -49.564  0.00  0.00     0.281 A 
ATOM      8  N   UNL d   1     -41.123-123.813 -48.916  0.00  0.00    -0.208 NA
ATOM      9  O   UNL d   1     -41.434-123.815 -50.365  0.00  0.00    -0.265 OA
ATOM     10  C   UNL d   1     -41.494-123.526 -48.258  0.00  0.00     0.085 A 
ATOM     11  C   UNL d   1     -41.286-123.544 -47.454  0.00  0.00     0.019 A 
ATOM     12  C   UNL d   1     -42.198-123.161 -48.491  0.00  0.00     0.024 A 
ATOM     13  C   UNL d   1     -41.770-123.208 -46.907  0.00  0.00     0.002 A 
ATOM     14  C   UNL d   1     -42.480-122.842 -47.155  0.00  0.00     0.000 A 
ATOM     15  C   UNL d   1     -42.679-122.828 -47.956  0.00  0.00     0.002 A 
ENDBRANCH   1   6
TORSDOF 1
ENDMDL
MODEL 4
REMARK VINA RESULT:      -1.5      3.155      4.267
REMARK  1 active torsions:
REMARK  status: ('A' for Active; 'I' for Inactive)
REMARK    1  A    between atoms: C_4  and  C_2 
ROOT
ATOM      1  C   UNL d   1     -42.250-122.002 -55.182  0.00  0.00     0.141 C 
ATOM      2  C   UNL d   1     -42.944-122.334 -55.466  0.00  0.00     0.112 C 
ATOM      3  C   UNL d   1     -41.696-121.669 -55.708  0.00  0.00     0.112 C 
ATOM      4  N   UNL d   1     -41.123-121.326 -56.241  0.00  0.00    -0.191 NA
ATOM      5  N   UNL d   1     -43.650-122.671 -55.767  0.00  0.00    -0.191 NA
ENDROOT
BRANCH   1   6
ATOM      6  C   UNL d   1     -42.111-122.003 -54.362  0.00  0.00     0.079 A 
ATOM      7  C   UNL d   1     -42.306-121.400 -53.867  0.00  0.00     0.281 A 
ATOM      8  N   UNL d   1     -42.083-121.605 -53.110  0.00  0.00    -0.208 NA
ATOM      9  O   UNL d   1     -42.676-120.693 -54.116  0.00  0.00    -0.265 OA
ATOM     10  C   UNL d   1     -41.748-122.340 -53.139  0.00  0.00     0.085 A 
ATOM     11  C   UNL d   1     -41.424-122.825 -52.547  0.00  0.00     0.019 A 
ATOM     12  C   UNL d   1     -41.759-122.603 -53.924  0.00  0.00     0.024 A 
ATOM     13  C   UNL d   1     -41.123-123.545 -52.739  0.00  0.00     0.002 A 
ATOM     14  C   UNL d   1     -41.140-123.800 -53.536  0.00  0.00     0.000 A 
ATOM     15  C   UNL d   1     -41.463-123.313 -54.118  0.00  0.00     0.002 A 
ENDBRANCH   1   6
TORSDOF 1
ENDMDL
