MODEL 1
REMARK VINA RESULT:      61.2      0.000      0.000
REMARK  7 active torsions:
REMARK  status: ('A' for Active; 'I' for Inactive)
REMARK    1  A    between atoms: S_10  and  C_3 
REMARK    2  A    between atoms: C_12  and  C_7 
REMARK    3  A    between atoms: C_19  and  S_10 
REMARK    4  A    between atoms: C_11  and  C_19 
REMARK       I    between atoms: N_14  and  C_11 
REMARK    5  A    between atoms: C_13  and  C_15 
REMARK    6  A    between atoms: C_15  and  N_14 
REMARK    7  A    between atoms: O_21  and  C_17 
ROOT
ATOM      1  N   UNL d   1     -50.703  26.926  33.384  0.00  0.00    -0.186 N 
ATOM      2  N   UNL d   1     -50.613  26.115  33.386  0.00  0.00    -0.162 NA
ATOM      3  C   UNL d   1     -50.151  27.541  33.416  0.00  0.00     0.217 A 
ATOM      4  C   UNL d   1     -51.450  27.268  33.344  0.00  0.00     0.187 A 
ATOM      5  N   UNL d   1     -50.564  28.245  33.396  0.00  0.00    -0.120 NA
ATOM      6  N   UNL d   1     -51.370  28.078  33.352  0.00  0.00    -0.127 NA
ATOM      7  C   UNL d   1     -51.283  25.633  33.348  0.00  0.00     0.103 A 
ATOM      8  C   UNL d   1     -52.121  26.781  33.306  0.00  0.00     0.042 A 
ATOM      9  C   UNL d   1     -52.037  25.971  33.308  0.00  0.00     0.024 A 
ENDROOT
BRANCH   3  10
ATOM     10  S   UNL d   1     -49.330  27.477  33.461  0.00  0.00    -0.041 SA
BRANCH  10  11
ATOM     11  C   UNL d   1     -48.891  28.047  33.838  0.00  0.00     0.101 C 
BRANCH  11  12
ATOM     12  C   UNL d   1     -48.164  27.862  34.156  0.00  0.00     0.286 C 
ATOM     13  N   UNL d   1     -47.803  28.375  34.690  0.00  0.00    -0.206 NA
ATOM     14  O   UNL d   1     -47.774  27.162  33.953  0.00  0.00    -0.265 OA
BRANCH  13  15
ATOM     15  C   UNL d   1     -48.184  29.076  34.899  0.00  0.00     0.104 C 
BRANCH  15  16
ATOM     16  C   UNL d   1     -47.834  29.586  35.446  0.00  0.00     0.042 A 
ATOM     17  C   UNL d   1     -47.793  30.399  35.286  0.00  0.00     0.096 A 
ATOM     18  C   UNL d   1     -47.443  30.915  35.830  0.00  0.00     0.024 A 
ATOM     19  C   UNL d   1     -47.133  30.606  36.539  0.00  0.00     0.002 A 
ATOM     20  C   UNL d   1     -47.178  29.797  36.692  0.00  0.00     0.000 A 
ATOM     21  C   UNL d   1     -47.525  29.289  36.150  0.00  0.00     0.004 A 
BRANCH  17  22
ATOM     22  O   UNL d   1     -48.099  30.704  34.584  0.00  0.00    -0.328 OA
ATOM     23  C   UNL d   1     -47.852  31.432  34.307  0.00  0.00     0.181 C 
ENDBRANCH  17  22
ENDBRANCH  15  16
ENDBRANCH  13  15
ENDBRANCH  11  12
ENDBRANCH  10  11
ENDBRANCH   3  10
BRANCH   7  24
ATOM     24  C   UNL d   1     -51.187  24.812  33.350  0.00  0.00     0.039 A 
ATOM     25  C   UNL d   1     -51.826  24.318  33.307  0.00  0.00     0.101 A 
ATOM     26  N   UNL d   1     -51.726  23.514  33.310  0.00  0.00    -0.242 NA
ATOM     27  C   UNL d   1     -50.968  23.188  33.356  0.00  0.00     0.099 A 
ATOM     28  C   UNL d   1     -50.319  23.690  33.399  0.00  0.00     0.021 A 
ATOM     29  C   UNL d   1     -50.423  24.508  33.396  0.00  0.00     0.005 A 
ENDBRANCH   7  24
TORSDOF 7
ENDMDL
