MODEL 1
REMARK VINA RESULT:      -3.6      0.000      0.000
REMARK  3 active torsions:
REMARK  status: ('A' for Active; 'I' for Inactive)
REMARK    1  A    between atoms: C_5  and  C_1 
REMARK       I    between atoms: N_7  and  C_5 
REMARK    2  A    between atoms: C_15  and  N_10 
REMARK    3  A    between atoms: C_21  and  C_15 
ROOT
ATOM      1  C   UNL d   1      32.483  18.458 -24.365  0.00  0.00     0.270 C 
ATOM      2  N   UNL d   1      32.675  18.893 -23.667  0.00  0.00    -0.270 N 
ATOM      3  N   UNL d   1      33.051  19.746 -22.277  0.00  0.00    -0.300 N 
ATOM      4  O   UNL d   1      32.671  18.771 -25.073  0.00  0.00    -0.269 OA
ATOM      5  C   UNL d   1      33.057  19.642 -23.719  0.00  0.00     0.102 A 
ATOM      6  C   UNL d   1      32.477  18.562 -22.927  0.00  0.00     0.102 A 
ATOM      7  C   UNL d   1      33.241  20.059 -23.033  0.00  0.00     0.100 A 
ATOM      8  C   UNL d   1      32.670  18.997 -22.224  0.00  0.00     0.100 A 
ENDROOT
BRANCH   1   9
ATOM      9  C   UNL d   1      32.124  17.755 -24.315  0.00  0.00     0.191 A 
ATOM     10  O   UNL d   1      32.800  17.424 -24.117  0.00  0.00    -0.293 OA
ATOM     11  C   UNL d   1      32.442  16.721 -24.067  0.00  0.00     0.275 A 
ATOM     12  O   UNL d   1      32.667  15.969 -23.888  0.00  0.00    -0.264 OA
ATOM     13  C   UNL d   1      31.747  17.042 -24.268  0.00  0.00     0.099 A 
ATOM     14  C   UNL d   1      30.996  16.791 -24.379  0.00  0.00     0.047 A 
ATOM     15  C   UNL d   1      31.568  16.284 -24.172  0.00  0.00     0.014 C 
ATOM     16  C   UNL d   1      31.339  17.700 -24.468  0.00  0.00    -0.019 A 
ATOM     17  C   UNL d   1      30.826  16.024 -24.279  0.00  0.00     0.004 C 
ATOM     18  C   UNL d   1      30.309  17.127 -24.581  0.00  0.00     0.004 C 
ATOM     19  C   UNL d   1      31.706  18.400 -24.516  0.00  0.00     0.006 A 
ENDBRANCH   1   9
BRANCH   3  20
ATOM     20  C   UNL d   1      33.239  20.173 -21.570  0.00  0.00     0.080 C 
BRANCH  20  21
ATOM     21  C   UNL d   1      32.880  20.918 -21.419  0.00  0.00     0.018 A 
ATOM     22  C   UNL d   1      32.193  20.964 -20.941  0.00  0.00     0.002 A 
ATOM     23  C   UNL d   1      31.823  21.708 -20.782  0.00  0.00     0.000 A 
ATOM     24  C   UNL d   1      32.164  22.406 -21.118  0.00  0.00     0.000 A 
ATOM     25  C   UNL d   1      32.855  22.361 -21.599  0.00  0.00     0.000 A 
ATOM     26  C   UNL d   1      33.211  21.617 -21.748  0.00  0.00     0.002 A 
ENDBRANCH  20  21
ENDBRANCH   3  20
TORSDOF 3
ENDMDL
MODEL 2
REMARK VINA RESULT:      -3.4      1.762      3.073
REMARK  3 active torsions:
REMARK  status: ('A' for Active; 'I' for Inactive)
REMARK    1  A    between atoms: C_5  and  C_1 
REMARK       I    between atoms: N_7  and  C_5 
REMARK    2  A    between atoms: C_15  and  N_10 
REMARK    3  A    between atoms: C_21  and  C_15 
ROOT
ATOM      1  C   UNL d   1      30.555  16.266 -24.507  0.00  0.00     0.270 C 
ATOM      2  N   UNL d   1      31.229  16.692 -24.229  0.00  0.00    -0.270 N 
ATOM      3  N   UNL d   1      32.557  17.543 -23.670  0.00  0.00    -0.300 N 
ATOM      4  O   UNL d   1      30.658  15.719 -25.078  0.00  0.00    -0.269 OA
ATOM      5  C   UNL d   1      31.993  16.542 -24.549  0.00  0.00     0.102 A 
ATOM      6  C   UNL d   1      31.117  17.263 -23.632  0.00  0.00     0.102 A 
ATOM      7  C   UNL d   1      32.646  16.963 -24.271  0.00  0.00     0.100 A 
ATOM      8  C   UNL d   1      31.793  17.693 -23.350  0.00  0.00     0.100 A 
ENDROOT
BRANCH   1   9
ATOM      9  C   UNL d   1      29.837  16.406 -24.207  0.00  0.00     0.191 A 
ATOM     10  O   UNL d   1      29.787  17.057 -24.631  0.00  0.00    -0.293 OA
ATOM     11  C   UNL d   1      29.069  17.197 -24.331  0.00  0.00     0.275 A 
ATOM     12  O   UNL d   1      28.508  17.769 -24.417  0.00  0.00    -0.264 OA
ATOM     13  C   UNL d   1      29.104  16.539 -23.893  0.00  0.00     0.099 A 
ATOM     14  C   UNL d   1      28.635  16.159 -23.369  0.00  0.00     0.047 A 
ATOM     15  C   UNL d   1      28.401  16.834 -23.708  0.00  0.00     0.014 C 
ATOM     16  C   UNL d   1      29.523  15.893 -23.676  0.00  0.00    -0.019 A 
ATOM     17  C   UNL d   1      27.928  16.465 -23.189  0.00  0.00     0.004 C 
ATOM     18  C   UNL d   1      28.686  15.498 -22.937  0.00  0.00     0.004 C 
ATOM     19  C   UNL d   1      30.241  15.760 -23.982  0.00  0.00     0.006 A 
ENDBRANCH   1   9
BRANCH   3  20
ATOM     20  C   UNL d   1      33.226  17.977 -23.383  0.00  0.00     0.080 C 
BRANCH  20  21
ATOM     21  C   UNL d   1      33.225  18.817 -23.406  0.00  0.00     0.018 A 
ATOM     22  C   UNL d   1      33.241  19.218 -24.142  0.00  0.00     0.002 A 
ATOM     23  C   UNL d   1      33.240  20.064 -24.176  0.00  0.00     0.000 A 
ATOM     24  C   UNL d   1      33.224  20.495 -23.447  0.00  0.00     0.000 A 
ATOM     25  C   UNL d   1      33.208  20.093 -22.708  0.00  0.00     0.000 A 
ATOM     26  C   UNL d   1      33.209  19.255 -22.689  0.00  0.00     0.002 A 
ENDBRANCH  20  21
ENDBRANCH   3  20
TORSDOF 3
ENDMDL
MODEL 3
REMARK VINA RESULT:      -2.2      1.749      5.027
REMARK  3 active torsions:
REMARK  status: ('A' for Active; 'I' for Inactive)
REMARK    1  A    between atoms: C_5  and  C_1 
REMARK       I    between atoms: N_7  and  C_5 
REMARK    2  A    between atoms: C_15  and  N_10 
REMARK    3  A    between atoms: C_21  and  C_15 
ROOT
ATOM      1  C   UNL d   1      32.999  20.702 -21.229  0.00  0.00     0.270 C 
ATOM      2  N   UNL d   1      32.992  20.142 -21.862  0.00  0.00    -0.270 N 
ATOM      3  N   UNL d   1      32.975  19.042 -23.122  0.00  0.00    -0.300 N 
ATOM      4  O   UNL d   1      33.241  20.460 -20.509  0.00  0.00    -0.269 OA
ATOM      5  C   UNL d   1      33.236  19.347 -21.733  0.00  0.00     0.102 A 
ATOM      6  C   UNL d   1      32.738  20.398 -22.613  0.00  0.00     0.102 A 
ATOM      7  C   UNL d   1      33.227  18.807 -22.356  0.00  0.00     0.100 A 
ATOM      8  C   UNL d   1      32.730  19.838 -23.251  0.00  0.00     0.100 A 
ENDROOT
BRANCH   1   9
ATOM      9  C   UNL d   1      32.769  21.449 -21.350  0.00  0.00     0.191 A 
ATOM     10  O   UNL d   1      33.241  21.494 -21.967  0.00  0.00    -0.293 OA
ATOM     11  C   UNL d   1      33.012  22.241 -22.087  0.00  0.00     0.275 A 
ATOM     12  O   UNL d   1      33.184  22.820 -22.620  0.00  0.00    -0.264 OA
ATOM     13  C   UNL d   1      32.527  22.212 -21.463  0.00  0.00     0.099 A 
ATOM     14  C   UNL d   1      32.017  22.704 -21.093  0.00  0.00     0.047 A 
ATOM     15  C   UNL d   1      32.422  22.942 -21.730  0.00  0.00     0.014 C 
ATOM     16  C   UNL d   1      32.231  21.781 -20.857  0.00  0.00    -0.019 A 
ATOM     17  C   UNL d   1      31.919  23.439 -21.371  0.00  0.00     0.004 C 
ATOM     18  C   UNL d   1      31.537  22.658 -20.465  0.00  0.00     0.004 C 
ATOM     19  C   UNL d   1      32.466  21.035 -20.743  0.00  0.00     0.006 A 
ENDBRANCH   1   9
BRANCH   3  20
ATOM     20  C   UNL d   1      32.964  18.489 -23.764  0.00  0.00     0.080 C 
BRANCH  20  21
ATOM     21  C   UNL d   1      32.324  17.950 -23.847  0.00  0.00     0.018 A 
ATOM     22  C   UNL d   1      31.665  18.150 -24.324  0.00  0.00     0.002 A 
ATOM     23  C   UNL d   1      31.015  17.615 -24.413  0.00  0.00     0.000 A 
ATOM     24  C   UNL d   1      31.048  16.872 -24.009  0.00  0.00     0.000 A 
ATOM     25  C   UNL d   1      31.711  16.670 -23.530  0.00  0.00     0.000 A 
ATOM     26  C   UNL d   1      32.347  17.210 -23.450  0.00  0.00     0.002 A 
ENDBRANCH  20  21
ENDBRANCH   3  20
TORSDOF 3
ENDMDL
MODEL 4
REMARK VINA RESULT:      -0.6      2.092      5.263
REMARK  3 active torsions:
REMARK  status: ('A' for Active; 'I' for Inactive)
REMARK    1  A    between atoms: C_5  and  C_1 
REMARK       I    between atoms: N_7  and  C_5 
REMARK    2  A    between atoms: C_15  and  N_10 
REMARK    3  A    between atoms: C_21  and  C_15 
ROOT
ATOM      1  C   UNL d   1      32.907  22.156 -22.419  0.00  0.00     0.270 C 
ATOM      2  N   UNL d   1      32.932  21.322 -22.549  0.00  0.00    -0.270 N 
ATOM      3  N   UNL d   1      32.978  19.667 -22.795  0.00  0.00    -0.300 N 
ATOM      4  O   UNL d   1      33.159  22.640 -23.000  0.00  0.00    -0.269 OA
ATOM      5  C   UNL d   1      33.218  21.009 -23.276  0.00  0.00     0.102 A 
ATOM      6  C   UNL d   1      32.668  20.818 -21.939  0.00  0.00     0.102 A 
ATOM      7  C   UNL d   1      33.239  20.194 -23.395  0.00  0.00     0.100 A 
ATOM      8  C   UNL d   1      32.692  19.979 -22.067  0.00  0.00     0.100 A 
ENDROOT
BRANCH   1   9
ATOM      9  C   UNL d   1      32.639  22.449 -21.735  0.00  0.00     0.191 A 
ATOM     10  O   UNL d   1      32.110  22.869 -22.122  0.00  0.00    -0.293 OA
ATOM     11  C   UNL d   1      31.842  23.162 -21.439  0.00  0.00     0.275 A 
ATOM     12  O   UNL d   1      31.265  23.679 -21.218  0.00  0.00    -0.264 OA
ATOM     13  C   UNL d   1      32.374  22.742 -21.030  0.00  0.00     0.099 A 
ATOM     14  C   UNL d   1      32.574  22.639 -20.263  0.00  0.00     0.047 A 
ATOM     15  C   UNL d   1      31.986  23.127 -20.467  0.00  0.00     0.014 C 
ATOM     16  C   UNL d   1      32.979  22.219 -21.046  0.00  0.00    -0.019 A 
ATOM     17  C   UNL d   1      32.176  23.033 -19.703  0.00  0.00     0.004 C 
ATOM     18  C   UNL d   1      33.112  22.212 -19.869  0.00  0.00     0.004 C 
ATOM     19  C   UNL d   1      33.241  21.931 -21.734  0.00  0.00     0.006 A 
ENDBRANCH   1   9
BRANCH   3  20
ATOM     20  C   UNL d   1      32.999  18.829 -22.914  0.00  0.00     0.080 C 
BRANCH  20  21
ATOM     21  C   UNL d   1      32.539  18.477 -23.524  0.00  0.00     0.018 A 
ATOM     22  C   UNL d   1      32.810  18.498 -24.317  0.00  0.00     0.002 A 
ATOM     23  C   UNL d   1      32.355  18.148 -24.940  0.00  0.00     0.000 A 
ATOM     24  C   UNL d   1      31.621  17.775 -24.741  0.00  0.00     0.000 A 
ATOM     25  C   UNL d   1      31.350  17.754 -23.944  0.00  0.00     0.000 A 
ATOM     26  C   UNL d   1      31.810  18.105 -23.338  0.00  0.00     0.002 A 
ENDBRANCH  20  21
ENDBRANCH   3  20
TORSDOF 3
ENDMDL
