MODEL 1
REMARK VINA RESULT:      46.4      0.000      0.000
REMARK  4 active torsions:
REMARK  status: ('A' for Active; 'I' for Inactive)
REMARK    1  A    between atoms: N_3  and  S_1 
REMARK    2  A    between atoms: C_5  and  S_1 
REMARK    3  A    between atoms: C_2  and  N_3 
REMARK    4  A    between atoms: O_18  and  C_11 
ROOT
ATOM      1  C   UNL d   1     -51.755  25.045  33.590  0.00  0.00     0.113 A 
ATOM      2  C   UNL d   1     -52.388  24.506  33.523  0.00  0.00     0.100 A 
ATOM      3  C   UNL d   1     -50.980  24.803  33.521  0.00  0.00     0.046 A 
ATOM      4  C   UNL d   1     -52.245  23.724  33.387  0.00  0.00     0.021 A 
ATOM      5  N   UNL d   1     -53.164  24.776  33.597  0.00  0.00    -0.242 NA
ATOM      6  C   UNL d   1     -50.838  23.996  33.381  0.00  0.00     0.096 A 
ATOM      7  C   UNL d   1     -51.470  23.457  33.314  0.00  0.00     0.026 A 
ATOM      8  C   UNL d   1     -52.867  23.193  33.321  0.00  0.00     0.003 A 
ATOM      9  C   UNL d   1     -53.787  24.245  33.531  0.00  0.00     0.099 A 
ATOM     10  C   UNL d   1     -53.653  23.426  33.388  0.00  0.00     0.021 A 
ENDROOT
BRANCH   1  11
ATOM     11  N   UNL d   1     -51.897  25.882  33.736  0.00  0.00    -0.157 NA
BRANCH  11  12
ATOM     12  S   UNL d   1     -51.265  26.413  33.850  0.00  0.00     0.285 S 
ATOM     13  O   UNL d   1     -50.877  25.845  34.346  0.00  0.00    -0.198 OA
ATOM     14  O   UNL d   1     -51.640  26.963  33.371  0.00  0.00    -0.198 OA
BRANCH  12  15
ATOM     15  C   UNL d   1     -50.635  26.942  33.964  0.00  0.00     0.105 A 
ATOM     16  C   UNL d   1     -50.335  27.076  34.718  0.00  0.00     0.013 A 
ATOM     17  C   UNL d   1     -49.709  27.602  34.831  0.00  0.00     0.001 A 
ATOM     18  C   UNL d   1     -49.370  28.005  34.193  0.00  0.00     0.000 A 
ATOM     19  C   UNL d   1     -49.678  27.865  33.438  0.00  0.00     0.001 A 
ATOM     20  C   UNL d   1     -48.748  28.527  34.306  0.00  0.00     0.000 C 
ATOM     21  C   UNL d   1     -50.303  27.339  33.325  0.00  0.00     0.013 A 
ENDBRANCH  12  15
ENDBRANCH  11  12
ENDBRANCH   1  11
BRANCH   6  22
ATOM     22  O   UNL d   1     -50.024  23.739  33.308  0.00  0.00    -0.328 OA
ATOM     23  C   UNL d   1     -49.538  23.646  33.979  0.00  0.00     0.181 C 
ENDBRANCH   6  22
TORSDOF 4
ENDMDL
