MODEL 1
REMARK VINA RESULT:       2.2      0.000      0.000
REMARK  2 active torsions:
REMARK  status: ('A' for Active; 'I' for Inactive)
REMARK    1  A    between atoms: C_6  and  N_2 
REMARK    2  A    between atoms: C_8  and  C_5 
ROOT
ATOM      1  C   UNL d   1      57.979  -0.119  30.875  0.00  0.00     0.265 A 
ATOM      2  N   UNL d   1      58.444  -0.545  30.344  0.00  0.00    -0.275 N 
ATOM      3  C   UNL d   1      57.512  -1.367  30.826  0.00  0.00     0.021 A 
ATOM      4  C   UNL d   1      57.402  -0.628  31.174  0.00  0.00     0.063 A 
ATOM      5  C   UNL d   1      58.158  -1.314  30.312  0.00  0.00     0.067 A 
ATOM      6  O   UNL d   1      58.073   0.681  31.077  0.00  0.00    -0.267 OA
ATOM      7  C   UNL d   1      57.057  -2.040  30.967  0.00  0.00     0.002 C 
ENDROOT
BRANCH   2   8
ATOM      8  C   UNL d   1      59.088  -0.240  29.919  0.00  0.00     0.067 A 
ATOM      9  C   UNL d   1      58.956   0.124  29.187  0.00  0.00     0.018 A 
ATOM     10  C   UNL d   1      59.582   0.430  28.758  0.00  0.00     0.002 A 
ATOM     11  C   UNL d   1      60.355   0.375  29.056  0.00  0.00     0.000 A 
ATOM     12  C   UNL d   1      60.483   0.008  29.793  0.00  0.00     0.002 A 
ATOM     13  C   UNL d   1      60.991   0.681  28.629  0.00  0.00     0.000 C 
ATOM     14  C   UNL d   1      59.850  -0.296  30.218  0.00  0.00     0.018 A 
ENDBRANCH   2   8
BRANCH   5  15
ATOM     15  C   UNL d   1      58.460  -1.927  29.850  0.00  0.00     0.016 A 
ATOM     16  C   UNL d   1      59.084  -2.391  30.133  0.00  0.00     0.002 A 
ATOM     17  C   UNL d   1      59.386  -3.005  29.672  0.00  0.00     0.011 A 
ATOM     18  C   UNL d   1      59.063  -3.158  28.921  0.00  0.00     0.058 A 
ATOM     19  C   UNL d   1      58.441  -2.697  28.637  0.00  0.00     0.011 A 
ATOM     20 CL   UNL d   1      59.370  -3.778  28.458  0.00  0.00    -0.082 Cl
ATOM     21  C   UNL d   1      58.137  -2.080  29.100  0.00  0.00     0.002 A 
ENDBRANCH   5  15
TORSDOF 2
ENDMDL
MODEL 2
REMARK VINA RESULT:       2.9      1.958      3.598
REMARK  2 active torsions:
REMARK  status: ('A' for Active; 'I' for Inactive)
REMARK    1  A    between atoms: C_6  and  N_2 
REMARK    2  A    between atoms: C_8  and  C_5 
ROOT
ATOM      1  C   UNL d   1      58.318  -0.029  28.898  0.00  0.00     0.265 A 
ATOM      2  N   UNL d   1      58.534  -0.048  29.694  0.00  0.00    -0.275 N 
ATOM      3  C   UNL d   1      59.620   0.244  28.980  0.00  0.00     0.021 A 
ATOM      4  C   UNL d   1      58.990   0.151  28.456  0.00  0.00     0.063 A 
ATOM      5  C   UNL d   1      59.335   0.120  29.747  0.00  0.00     0.067 A 
ATOM      6  O   UNL d   1      57.558  -0.168  28.593  0.00  0.00    -0.267 OA
ATOM      7  C   UNL d   1      60.397   0.428  28.774  0.00  0.00     0.002 C 
ENDROOT
BRANCH   2   8
ATOM      8  C   UNL d   1      58.021  -0.210  30.326  0.00  0.00     0.067 A 
ATOM      9  C   UNL d   1      58.024  -0.964  30.669  0.00  0.00     0.018 A 
ATOM     10  C   UNL d   1      57.524  -1.137  31.293  0.00  0.00     0.002 A 
ATOM     11  C   UNL d   1      57.009  -0.555  31.585  0.00  0.00     0.000 A 
ATOM     12  C   UNL d   1      57.009   0.202  31.237  0.00  0.00     0.002 A 
ATOM     13  C   UNL d   1      56.501  -0.723  32.214  0.00  0.00     0.000 C 
ATOM     14  C   UNL d   1      57.514   0.369  30.611  0.00  0.00     0.018 A 
ENDBRANCH   2   8
BRANCH   5  15
ATOM     15  C   UNL d   1      59.781   0.160  30.439  0.00  0.00     0.016 A 
ATOM     16  C   UNL d   1      60.478  -0.282  30.509  0.00  0.00     0.002 A 
ATOM     17  C   UNL d   1      60.924  -0.242  31.202  0.00  0.00     0.011 A 
ATOM     18  C   UNL d   1      60.674   0.240  31.831  0.00  0.00     0.058 A 
ATOM     19  C   UNL d   1      59.980   0.680  31.763  0.00  0.00     0.011 A 
ATOM     20 CL   UNL d   1      61.127   0.277  32.529  0.00  0.00    -0.082 Cl
ATOM     21  C   UNL d   1      59.531   0.642  31.068  0.00  0.00     0.002 A 
ENDBRANCH   5  15
TORSDOF 2
ENDMDL
MODEL 3
REMARK VINA RESULT:       3.1      1.578      3.092
REMARK  2 active torsions:
REMARK  status: ('A' for Active; 'I' for Inactive)
REMARK    1  A    between atoms: C_6  and  N_2 
REMARK    2  A    between atoms: C_8  and  C_5 
ROOT
ATOM      1  C   UNL d   1      57.932  -2.579  29.558  0.00  0.00     0.265 A 
ATOM      2  N   UNL d   1      58.282  -1.837  29.646  0.00  0.00    -0.275 N 
ATOM      3  C   UNL d   1      59.096  -2.591  28.908  0.00  0.00     0.021 A 
ATOM      4  C   UNL d   1      58.436  -3.046  29.101  0.00  0.00     0.063 A 
ATOM      5  C   UNL d   1      58.998  -1.843  29.246  0.00  0.00     0.067 A 
ATOM      6  O   UNL d   1      57.201  -2.818  29.873  0.00  0.00    -0.267 OA
ATOM      7  C   UNL d   1      59.739  -2.841  28.456  0.00  0.00     0.002 C 
ENDROOT
BRANCH   2   8
ATOM      8  C   UNL d   1      57.956  -1.201  30.068  0.00  0.00     0.067 A 
ATOM      9  C   UNL d   1      57.898  -1.249  30.893  0.00  0.00     0.018 A 
ATOM     10  C   UNL d   1      57.580  -0.629  31.321  0.00  0.00     0.002 A 
ATOM     11  C   UNL d   1      57.312   0.052  30.929  0.00  0.00     0.000 A 
ATOM     12  C   UNL d   1      57.373   0.095  30.099  0.00  0.00     0.002 A 
ATOM     13  C   UNL d   1      56.990   0.681  31.355  0.00  0.00     0.000 C 
ATOM     14  C   UNL d   1      57.694  -0.530  29.676  0.00  0.00     0.018 A 
ENDBRANCH   2   8
BRANCH   5  15
ATOM     15  C   UNL d   1      59.530  -1.214  29.190  0.00  0.00     0.016 A 
ATOM     16  C   UNL d   1      59.506  -0.708  28.534  0.00  0.00     0.002 A 
ATOM     17  C   UNL d   1      60.037  -0.080  28.478  0.00  0.00     0.011 A 
ATOM     18  C   UNL d   1      60.597   0.046  29.078  0.00  0.00     0.058 A 
ATOM     19  C   UNL d   1      60.623  -0.457  29.731  0.00  0.00     0.011 A 
ATOM     20 CL   UNL d   1      61.132   0.681  29.017  0.00  0.00    -0.082 Cl
ATOM     21  C   UNL d   1      60.090  -1.088  29.790  0.00  0.00     0.002 A 
ENDBRANCH   5  15
TORSDOF 2
ENDMDL
