MODEL 1
REMARK VINA RESULT:       5.4      0.000      0.000
REMARK  8 active torsions:
REMARK  status: ('A' for Active; 'I' for Inactive)
REMARK    1  A    between atoms: C_5  and  C_1 
REMARK    2  A    between atoms: N_6  and  C_2 
REMARK    3  A    between atoms: C_7  and  C_5 
REMARK    4  A    between atoms: C_8  and  C_5 
REMARK    5  A    between atoms: O_13  and  C_7 
REMARK    6  A    between atoms: C_12  and  C_16 
REMARK    7  A    between atoms: C_22  and  O_13 
REMARK    8  A    between atoms: C_25  and  C_22 
ROOT
ATOM      1  C   UNL d   1      32.436  16.746 -23.016  0.00  0.00     0.296 C 
ATOM      2  O   UNL d   1      32.170  16.547 -23.775  0.00  0.00    -0.259 OA
ATOM      3  O   UNL d   1      32.676  16.151 -22.498  0.00  0.00    -0.296 OA
ATOM      4  C   UNL d   1      32.915  15.557 -21.979  0.00  0.00     0.185 C 
ENDROOT
BRANCH   1   5
ATOM      5  C   UNL d   1      32.460  17.537 -22.784  0.00  0.00     0.065 A 
ATOM      6  C   UNL d   1      32.442  18.292 -22.301  0.00  0.00     0.018 A 
ATOM      7  C   UNL d   1      32.616  18.912 -23.111  0.00  0.00     0.057 A 
ATOM      8  N   UNL d   1      32.675  19.574 -23.159  0.00  0.00    -0.192 NA
ATOM      9  C   UNL d   1      32.697  18.897 -23.632  0.00  0.00     0.057 A 
ATOM     10  C   UNL d   1      32.512  18.209 -22.789  0.00  0.00     0.018 A 
BRANCH   8  11
ATOM     11  C   UNL d   1      32.775  20.352 -23.416  0.00  0.00     0.145 A 
ATOM     12  C   UNL d   1      32.685  20.848 -22.769  0.00  0.00     0.117 A 
ATOM     13  N   UNL d   1      32.756  21.665 -22.864  0.00  0.00    -0.241 NA
ATOM     14  C   UNL d   1      32.917  21.983 -23.600  0.00  0.00     0.099 A 
ATOM     15  C   UNL d   1      33.009  21.485 -24.259  0.00  0.00     0.100 A 
ATOM     16  C   UNL d   1      32.988  22.792 -23.697  0.00  0.00     0.021 A 
ATOM     17  C   UNL d   1      33.171  21.804 -25.004  0.00  0.00     0.021 A 
ATOM     18  N   UNL d   1      32.937  20.668 -24.164  0.00  0.00    -0.230 NA
ATOM     19  C   UNL d   1      33.240  22.615 -25.090  0.00  0.00     0.002 A 
ATOM     20  C   UNL d   1      33.150  23.117 -24.438  0.00  0.00     0.002 A 
BRANCH  12  21
ATOM     21  C   UNL d   1      32.528  20.379 -22.107  0.00  0.00     0.104 C 
BRANCH  21  22
ATOM     22  C   UNL d   1      32.839  20.494 -21.343  0.00  0.00     0.303 C 
ATOM     23  O   UNL d   1      33.240  19.882 -20.965  0.00  0.00    -0.259 OA
BRANCH  22  24
ATOM     24  O   UNL d   1      32.743  21.223 -20.967  0.00  0.00    -0.271 OA
BRANCH  24  25
ATOM     25  C   UNL d   1      32.788  21.275 -20.146  0.00  0.00     0.126 C 
BRANCH  25  26
ATOM     26  C   UNL d   1      32.977  21.990 -19.786  0.00  0.00     0.025 C 
ATOM     27  C   UNL d   1      33.040  22.672 -20.237  0.00  0.00     0.002 C 
ATOM     28  C   UNL d   1      33.102  22.019 -18.971  0.00  0.00     0.002 C 
ENDBRANCH  25  26
ENDBRANCH  24  25
ENDBRANCH  22  24
ENDBRANCH  21  22
BRANCH  21  29
ATOM     29  C   UNL d   1      32.014  19.779 -22.332  0.00  0.00     0.129 C 
ATOM     30  N   UNL d   1      31.188  19.788 -22.267  0.00  0.00    -0.146 N 
ENDBRANCH  21  29
ENDBRANCH  12  21
ENDBRANCH   8  11
ENDBRANCH   1   5
TORSDOF 8
ENDMDL
