MODEL 1
REMARK VINA RESULT:      -4.7      0.000      0.000
REMARK  4 active torsions:
REMARK  status: ('A' for Active; 'I' for Inactive)
REMARK    1  A    between atoms: S_10  and  C_5 
REMARK       I    between atoms: N_7  and  C_8 
REMARK    2  A    between atoms: C_8  and  C_11 
REMARK    3  A    between atoms: C_11  and  S_10 
REMARK    4  A    between atoms: C_19  and  C_12 
ROOT
ATOM      1  S   UNL d   1      57.783   0.296  30.712  0.00  0.00    -0.054 SA
ENDROOT
BRANCH   1   2
ATOM      2  C   UNL d   1      57.330   0.111  31.393  0.00  0.00     0.163 A 
ATOM      3  S   UNL d   1      57.373   0.497  32.137  0.00  0.00    -0.021 SA
ATOM      4  C   UNL d   1      56.828   0.136  32.651  0.00  0.00     0.200 A 
ATOM      5  N   UNL d   1      56.791   0.398  33.314  0.00  0.00    -0.182 NA
ATOM      6  N   UNL d   1      56.436  -0.483  32.234  0.00  0.00    -0.204 N 
ATOM      7  C   UNL d   1      56.296   0.123  33.898  0.00  0.00     0.281 A 
ATOM      8  O   UNL d   1      56.575   0.682  34.454  0.00  0.00    -0.265 OA
ATOM      9  C   UNL d   1      55.725  -0.527  33.843  0.00  0.00     0.064 A 
ATOM     10  C   UNL d   1      55.560  -1.022  33.154  0.00  0.00     0.026 A 
ATOM     11  C   UNL d   1      55.927  -0.962  32.407  0.00  0.00     0.103 A 
ATOM     12  N   UNL d   1      56.748  -0.499  31.453  0.00  0.00    -0.150 NA
ENDBRANCH   1   2
BRANCH   1  13
ATOM     13  C   UNL d   1      58.109  -0.302  30.258  0.00  0.00     0.099 C 
BRANCH  13  14
ATOM     14  C   UNL d   1      58.765  -0.148  29.782  0.00  0.00     0.271 C 
ATOM     15  N   UNL d   1      59.123  -0.743  29.361  0.00  0.00    -0.273 N 
ATOM     16  C   UNL d   1      59.769  -0.588  28.893  0.00  0.00     0.067 A 
ATOM     17  C   UNL d   1      58.834  -1.511  29.406  0.00  0.00     0.083 A 
ATOM     18  C   UNL d   1      60.128  -1.203  28.467  0.00  0.00     0.018 A 
ATOM     19  C   UNL d   1      59.830  -1.959  28.521  0.00  0.00     0.003 A 
ATOM     20  C   UNL d   1      59.182  -2.111  28.992  0.00  0.00     0.019 A 
ATOM     21  O   UNL d   1      59.058   0.621  29.735  0.00  0.00    -0.266 OA
BRANCH  16  22
ATOM     22  C   UNL d   1      60.062   0.176  28.845  0.00  0.00     0.018 C 
ATOM     23  C   UNL d   1      60.785   0.310  28.455  0.00  0.00     0.002 C 
ENDBRANCH  16  22
ENDBRANCH  13  14
ENDBRANCH   1  13
TORSDOF 4
ENDMDL
MODEL 2
REMARK VINA RESULT:      -4.2      1.188      1.868
REMARK  4 active torsions:
REMARK  status: ('A' for Active; 'I' for Inactive)
REMARK    1  A    between atoms: S_10  and  C_5 
REMARK       I    between atoms: N_7  and  C_8 
REMARK    2  A    between atoms: C_8  and  C_11 
REMARK    3  A    between atoms: C_11  and  S_10 
REMARK    4  A    between atoms: C_19  and  C_12 
ROOT
ATOM      1  S   UNL d   1      56.999  -0.927  31.458  0.00  0.00    -0.054 SA
ENDROOT
BRANCH   1   2
ATOM      2  C   UNL d   1      56.711  -0.574  32.161  0.00  0.00     0.163 A 
ATOM      3  S   UNL d   1      55.904  -0.487  32.378  0.00  0.00    -0.021 SA
ATOM      4  C   UNL d   1      55.872  -0.108  33.117  0.00  0.00     0.200 A 
ATOM      5  N   UNL d   1      55.223   0.011  33.388  0.00  0.00    -0.182 NA
ATOM      6  N   UNL d   1      56.660   0.048  33.374  0.00  0.00    -0.204 N 
ATOM      7  C   UNL d   1      55.072   0.373  34.101  0.00  0.00     0.281 A 
ATOM      8  O   UNL d   1      54.244   0.301  34.009  0.00  0.00    -0.265 OA
ATOM      9  C   UNL d   1      55.650   0.682  34.668  0.00  0.00     0.064 A 
ATOM     10  C   UNL d   1      56.512   0.671  34.596  0.00  0.00     0.026 A 
ATOM     11  C   UNL d   1      56.947   0.356  33.958  0.00  0.00     0.103 A 
ATOM     12  N   UNL d   1      57.180  -0.242  32.780  0.00  0.00    -0.150 NA
ENDBRANCH   1   2
BRANCH   1  13
ATOM     13  C   UNL d   1      57.535  -0.527  30.984  0.00  0.00     0.099 C 
BRANCH  13  14
ATOM     14  C   UNL d   1      57.909  -0.919  30.363  0.00  0.00     0.271 C 
ATOM     15  N   UNL d   1      58.414  -0.523  29.865  0.00  0.00    -0.273 N 
ATOM     16  C   UNL d   1      58.781  -0.913  29.253  0.00  0.00     0.067 A 
ATOM     17  C   UNL d   1      58.558   0.278  29.976  0.00  0.00     0.083 A 
ATOM     18  C   UNL d   1      59.295  -0.499  28.750  0.00  0.00     0.018 A 
ATOM     19  C   UNL d   1      59.428   0.295  28.872  0.00  0.00     0.003 A 
ATOM     20  C   UNL d   1      59.058   0.682  29.487  0.00  0.00     0.019 A 
ATOM     21  O   UNL d   1      57.767  -1.723  30.248  0.00  0.00    -0.266 OA
BRANCH  16  22
ATOM     22  C   UNL d   1      58.641  -1.711  29.137  0.00  0.00     0.018 C 
ATOM     23  C   UNL d   1      59.010  -2.100  28.501  0.00  0.00     0.002 C 
ENDBRANCH  16  22
ENDBRANCH  13  14
ENDBRANCH   1  13
TORSDOF 4
ENDMDL
MODEL 3
REMARK VINA RESULT:      -3.7      1.005      5.108
REMARK  4 active torsions:
REMARK  status: ('A' for Active; 'I' for Inactive)
REMARK    1  A    between atoms: S_10  and  C_5 
REMARK       I    between atoms: N_7  and  C_8 
REMARK    2  A    between atoms: C_8  and  C_11 
REMARK    3  A    between atoms: C_11  and  S_10 
REMARK    4  A    between atoms: C_19  and  C_12 
ROOT
ATOM      1  S   UNL d   1      57.203   0.069  31.071  0.00  0.00    -0.054 SA
ENDROOT
BRANCH   1   2
ATOM      2  C   UNL d   1      57.819  -0.143  30.544  0.00  0.00     0.163 A 
ATOM      3  S   UNL d   1      58.473   0.338  30.326  0.00  0.00    -0.021 SA
ATOM      4  C   UNL d   1      58.946  -0.091  29.793  0.00  0.00     0.200 A 
ATOM      5  N   UNL d   1      59.530   0.237  29.549  0.00  0.00    -0.182 NA
ATOM      6  N   UNL d   1      58.594  -0.847  29.670  0.00  0.00    -0.204 N 
ATOM      7  C   UNL d   1      60.063  -0.085  29.026  0.00  0.00     0.281 A 
ATOM      8  O   UNL d   1      60.542   0.601  29.027  0.00  0.00    -0.265 OA
ATOM      9  C   UNL d   1      60.037  -0.872  28.663  0.00  0.00     0.064 A 
ATOM     10  C   UNL d   1      59.437  -1.483  28.782  0.00  0.00     0.026 A 
ATOM     11  C   UNL d   1      58.765  -1.423  29.274  0.00  0.00     0.103 A 
ATOM     12  N   UNL d   1      57.895  -0.879  30.136  0.00  0.00    -0.150 NA
ENDBRANCH   1   2
BRANCH   1  13
ATOM     13  C   UNL d   1      57.330   0.060  31.880  0.00  0.00     0.099 C 
BRANCH  13  14
ATOM     14  C   UNL d   1      56.688   0.061  32.398  0.00  0.00     0.271 C 
ATOM     15  N   UNL d   1      56.784   0.266  33.178  0.00  0.00    -0.273 N 
ATOM     16  C   UNL d   1      56.149   0.266  33.686  0.00  0.00     0.067 A 
ATOM     17  C   UNL d   1      57.526   0.475  33.461  0.00  0.00     0.083 A 
ATOM     18  C   UNL d   1      56.257   0.477  34.482  0.00  0.00     0.018 A 
ATOM     19  C   UNL d   1      56.999   0.682  34.748  0.00  0.00     0.003 A 
ATOM     20  C   UNL d   1      57.632   0.681  34.235  0.00  0.00     0.019 A 
ATOM     21  O   UNL d   1      55.942  -0.148  32.118  0.00  0.00    -0.266 OA
BRANCH  16  22
ATOM     22  C   UNL d   1      55.406   0.058  33.410  0.00  0.00     0.018 C 
ATOM     23  C   UNL d   1      54.732   0.303  33.832  0.00  0.00     0.002 C 
ENDBRANCH  16  22
ENDBRANCH  13  14
ENDBRANCH   1  13
TORSDOF 4
ENDMDL
