MODEL 1
REMARK VINA RESULT:      -7.8      0.000      0.000
REMARK  4 active torsions:
REMARK  status: ('A' for Active; 'I' for Inactive)
REMARK    1  A    between atoms: C_5  and  N_1 
REMARK    2  A    between atoms: C_7  and  C_5 
REMARK    3  A    between atoms: O_10  and  C_9 
REMARK    4  A    between atoms: C_15  and  O_10 
ROOT
ATOM      1  N   UNL d   1      52.625  33.659  53.091  0.00  0.00    -0.268 N 
ATOM      2  C   UNL d   1      52.892  34.438  52.975  0.00  0.00     0.296 A 
ATOM      3  S   UNL d   1      52.227  34.921  52.901  0.00  0.00    -0.025 SA
ATOM      4  C   UNL d   1      51.798  33.668  53.088  0.00  0.00     0.073 A 
ATOM      5  C   UNL d   1      51.555  34.451  52.970  0.00  0.00     0.050 A 
ATOM      6  O   UNL d   1      53.678  34.682  52.939  0.00  0.00    -0.259 OA
ATOM      7  C   UNL d   1      51.244  33.070  53.178  0.00  0.00     0.018 A 
ATOM      8  C   UNL d   1      50.740  34.626  52.942  0.00  0.00     0.008 A 
ATOM      9  C   UNL d   1      50.439  33.247  53.150  0.00  0.00     0.002 A 
ATOM     10  C   UNL d   1      50.189  34.018  53.033  0.00  0.00     0.001 A 
ENDROOT
BRANCH   1  11
ATOM     11  C   UNL d   1      53.100  32.994  53.192  0.00  0.00     0.086 C 
BRANCH  11  12
ATOM     12  C   UNL d   1      53.464  32.859  53.923  0.00  0.00     0.040 A 
ATOM     13  C   UNL d   1      53.681  32.094  54.124  0.00  0.00     0.102 A 
ATOM     14  C   UNL d   1      54.041  31.958  54.845  0.00  0.00     0.025 A 
ATOM     15  C   UNL d   1      54.186  32.587  55.372  0.00  0.00     0.002 A 
ATOM     16  C   UNL d   1      53.963  33.351  55.159  0.00  0.00     0.000 A 
ATOM     17  C   UNL d   1      53.599  33.486  54.428  0.00  0.00     0.004 A 
BRANCH  13  18
ATOM     18  O   UNL d   1      53.526  31.493  53.584  0.00  0.00    -0.305 OA
BRANCH  18  19
ATOM     19  C   UNL d   1      53.682  30.706  53.784  0.00  0.00     0.123 C 
ATOM     20  C   UNL d   1      53.378  30.095  53.314  0.00  0.00     0.029 C 
ENDBRANCH  18  19
ENDBRANCH  13  18
ENDBRANCH  11  12
ENDBRANCH   1  11
TORSDOF 4
ENDMDL
MODEL 2
REMARK VINA RESULT:      -7.5      1.507      3.244
REMARK  4 active torsions:
REMARK  status: ('A' for Active; 'I' for Inactive)
REMARK    1  A    between atoms: C_5  and  N_1 
REMARK    2  A    between atoms: C_7  and  C_5 
REMARK    3  A    between atoms: O_10  and  C_9 
REMARK    4  A    between atoms: C_15  and  O_10 
ROOT
ATOM      1  N   UNL d   1      53.451  32.273  53.122  0.00  0.00    -0.268 N 
ATOM      2  C   UNL d   1      54.252  32.221  53.339  0.00  0.00     0.296 A 
ATOM      3  S   UNL d   1      54.399  31.442  53.567  0.00  0.00    -0.025 SA
ATOM      4  C   UNL d   1      53.110  31.525  53.219  0.00  0.00     0.073 A 
ATOM      5  C   UNL d   1      53.700  31.013  53.494  0.00  0.00     0.050 A 
ATOM      6  O   UNL d   1      54.799  32.837  53.327  0.00  0.00    -0.259 OA
ATOM      7  C   UNL d   1      52.348  31.250  53.092  0.00  0.00     0.018 A 
ATOM      8  C   UNL d   1      53.511  30.214  53.642  0.00  0.00     0.008 A 
ATOM      9  C   UNL d   1      52.165  30.460  53.239  0.00  0.00     0.002 A 
ATOM     10  C   UNL d   1      52.742  29.946  53.512  0.00  0.00     0.001 A 
ENDROOT
BRANCH   1  11
ATOM     11  C   UNL d   1      53.063  32.949  52.857  0.00  0.00     0.086 C 
BRANCH  11  12
ATOM     12  C   UNL d   1      52.885  33.554  53.393  0.00  0.00     0.040 A 
ATOM     13  C   UNL d   1      52.289  34.086  53.208  0.00  0.00     0.102 A 
ATOM     14  C   UNL d   1      52.111  34.685  53.737  0.00  0.00     0.025 A 
ATOM     15  C   UNL d   1      52.529  34.755  54.454  0.00  0.00     0.002 A 
ATOM     16  C   UNL d   1      53.126  34.214  54.628  0.00  0.00     0.000 A 
ATOM     17  C   UNL d   1      53.304  33.609  54.092  0.00  0.00     0.004 A 
BRANCH  13  18
ATOM     18  O   UNL d   1      51.893  33.992  52.493  0.00  0.00    -0.305 OA
BRANCH  18  19
ATOM     19  C   UNL d   1      51.200  34.417  52.345  0.00  0.00     0.123 C 
ATOM     20  C   UNL d   1      50.757  34.254  51.663  0.00  0.00     0.029 C 
ENDBRANCH  18  19
ENDBRANCH  13  18
ENDBRANCH  11  12
ENDBRANCH   1  11
TORSDOF 4
ENDMDL
MODEL 3
REMARK VINA RESULT:      -7.3      1.715      3.670
REMARK  4 active torsions:
REMARK  status: ('A' for Active; 'I' for Inactive)
REMARK    1  A    between atoms: C_5  and  N_1 
REMARK    2  A    between atoms: C_7  and  C_5 
REMARK    3  A    between atoms: O_10  and  C_9 
REMARK    4  A    between atoms: C_15  and  O_10 
ROOT
ATOM      1  N   UNL d   1      53.357  31.095  53.441  0.00  0.00    -0.268 N 
ATOM      2  C   UNL d   1      53.033  30.860  52.712  0.00  0.00     0.296 A 
ATOM      3  S   UNL d   1      52.798  30.073  52.785  0.00  0.00    -0.025 SA
ATOM      4  C   UNL d   1      53.318  30.449  53.957  0.00  0.00     0.073 A 
ATOM      5  C   UNL d   1      52.972  29.818  53.547  0.00  0.00     0.050 A 
ATOM      6  O   UNL d   1      52.960  31.331  52.039  0.00  0.00    -0.259 OA
ATOM      7  C   UNL d   1      53.553  30.358  54.738  0.00  0.00     0.018 A 
ATOM      8  C   UNL d   1      52.863  29.089  53.937  0.00  0.00     0.008 A 
ATOM      9  C   UNL d   1      53.444  29.635  55.119  0.00  0.00     0.002 A 
ATOM     10  C   UNL d   1      53.102  29.006  54.722  0.00  0.00     0.001 A 
ENDROOT
BRANCH   1  11
ATOM     11  C   UNL d   1      53.662  31.838  53.620  0.00  0.00     0.086 C 
BRANCH  11  12
ATOM     12  C   UNL d   1      53.147  32.478  53.718  0.00  0.00     0.040 A 
ATOM     13  C   UNL d   1      53.404  33.134  54.138  0.00  0.00     0.102 A 
ATOM     14  C   UNL d   1      52.897  33.768  54.236  0.00  0.00     0.025 A 
ATOM     15  C   UNL d   1      52.129  33.751  53.914  0.00  0.00     0.002 A 
ATOM     16  C   UNL d   1      51.883  33.086  53.493  0.00  0.00     0.000 A 
ATOM     17  C   UNL d   1      52.397  32.445  53.395  0.00  0.00     0.004 A 
BRANCH  13  18
ATOM     18  O   UNL d   1      54.167  33.123  54.445  0.00  0.00    -0.305 OA
BRANCH  18  19
ATOM     19  C   UNL d   1      54.449  33.769  54.877  0.00  0.00     0.123 C 
ATOM     20  C   UNL d   1      55.204  33.738  55.217  0.00  0.00     0.029 C 
ENDBRANCH  18  19
ENDBRANCH  13  18
ENDBRANCH  11  12
ENDBRANCH   1  11
TORSDOF 4
ENDMDL
MODEL 4
REMARK VINA RESULT:      -6.8      1.596      2.919
REMARK  4 active torsions:
REMARK  status: ('A' for Active; 'I' for Inactive)
REMARK    1  A    between atoms: C_5  and  N_1 
REMARK    2  A    between atoms: C_7  and  C_5 
REMARK    3  A    between atoms: O_10  and  C_9 
REMARK    4  A    between atoms: C_15  and  O_10 
ROOT
ATOM      1  N   UNL d   1      53.064  32.472  54.286  0.00  0.00    -0.268 N 
ATOM      2  C   UNL d   1      52.483  32.973  53.965  0.00  0.00     0.296 A 
ATOM      3  S   UNL d   1      52.762  33.747  54.019  0.00  0.00    -0.025 SA
ATOM      4  C   UNL d   1      53.697  32.943  54.535  0.00  0.00     0.073 A 
ATOM      5  C   UNL d   1      53.507  33.732  54.369  0.00  0.00     0.050 A 
ATOM      6  O   UNL d   1      51.759  32.736  53.650  0.00  0.00    -0.259 OA
ATOM      7  C   UNL d   1      54.413  32.755  54.888  0.00  0.00     0.018 A 
ATOM      8  C   UNL d   1      54.050  34.333  54.564  0.00  0.00     0.008 A 
ATOM      9  C   UNL d   1      54.948  33.352  55.080  0.00  0.00     0.002 A 
ATOM     10  C   UNL d   1      54.768  34.135  54.919  0.00  0.00     0.001 A 
ENDROOT
BRANCH   1  11
ATOM     11  C   UNL d   1      53.020  31.653  54.345  0.00  0.00     0.086 C 
BRANCH  11  12
ATOM     12  C   UNL d   1      53.085  31.189  53.663  0.00  0.00     0.040 A 
ATOM     13  C   UNL d   1      53.192  30.380  53.741  0.00  0.00     0.102 A 
ATOM     14  C   UNL d   1      53.257  29.920  53.068  0.00  0.00     0.025 A 
ATOM     15  C   UNL d   1      53.215  30.266  52.311  0.00  0.00     0.002 A 
ATOM     16  C   UNL d   1      53.108  31.081  52.247  0.00  0.00     0.000 A 
ATOM     17  C   UNL d   1      53.042  31.545  52.929  0.00  0.00     0.004 A 
BRANCH  13  18
ATOM     18  O   UNL d   1      53.229  30.065  54.500  0.00  0.00    -0.305 OA
BRANCH  18  19
ATOM     19  C   UNL d   1      53.286  29.247  54.606  0.00  0.00     0.123 C 
ATOM     20  C   UNL d   1      53.311  28.934  55.373  0.00  0.00     0.029 C 
ENDBRANCH  18  19
ENDBRANCH  13  18
ENDBRANCH  11  12
ENDBRANCH   1  11
TORSDOF 4
ENDMDL
MODEL 5
REMARK VINA RESULT:      -6.8      0.943      2.769
REMARK  4 active torsions:
REMARK  status: ('A' for Active; 'I' for Inactive)
REMARK    1  A    between atoms: C_5  and  N_1 
REMARK    2  A    between atoms: C_7  and  C_5 
REMARK    3  A    between atoms: O_10  and  C_9 
REMARK    4  A    between atoms: C_15  and  O_10 
ROOT
ATOM      1  N   UNL d   1      53.377  33.749  53.628  0.00  0.00    -0.268 N 
ATOM      2  C   UNL d   1      53.263  34.567  53.532  0.00  0.00     0.296 A 
ATOM      3  S   UNL d   1      53.637  34.947  54.161  0.00  0.00    -0.025 SA
ATOM      4  C   UNL d   1      53.821  33.632  54.317  0.00  0.00     0.073 A 
ATOM      5  C   UNL d   1      53.980  34.376  54.644  0.00  0.00     0.050 A 
ATOM      6  O   UNL d   1      52.851  34.931  52.918  0.00  0.00    -0.259 OA
ATOM      7  C   UNL d   1      54.096  32.950  54.681  0.00  0.00     0.018 A 
ATOM      8  C   UNL d   1      54.423  34.425  55.349  0.00  0.00     0.008 A 
ATOM      9  C   UNL d   1      54.533  33.003  55.377  0.00  0.00     0.002 A 
ATOM     10  C   UNL d   1      54.696  33.735  55.709  0.00  0.00     0.001 A 
ENDROOT
BRANCH   1  11
ATOM     11  C   UNL d   1      53.098  33.159  53.127  0.00  0.00     0.086 C 
BRANCH  11  12
ATOM     12  C   UNL d   1      52.301  32.940  53.157  0.00  0.00     0.040 A 
ATOM     13  C   UNL d   1      52.095  32.163  52.994  0.00  0.00     0.102 A 
ATOM     14  C   UNL d   1      51.307  31.946  53.022  0.00  0.00     0.025 A 
ATOM     15  C   UNL d   1      50.719  32.504  53.214  0.00  0.00     0.002 A 
ATOM     16  C   UNL d   1      50.939  33.282  53.376  0.00  0.00     0.000 A 
ATOM     17  C   UNL d   1      51.737  33.500  53.346  0.00  0.00     0.004 A 
BRANCH  13  18
ATOM     18  O   UNL d   1      52.696  31.634  52.807  0.00  0.00    -0.305 OA
BRANCH  18  19
ATOM     19  C   UNL d   1      52.540  30.823  52.783  0.00  0.00     0.123 C 
ATOM     20  C   UNL d   1      53.169  30.286  52.723  0.00  0.00     0.029 C 
ENDBRANCH  18  19
ENDBRANCH  13  18
ENDBRANCH  11  12
ENDBRANCH   1  11
TORSDOF 4
ENDMDL
MODEL 6
REMARK VINA RESULT:      -6.4      1.602      3.689
REMARK  4 active torsions:
REMARK  status: ('A' for Active; 'I' for Inactive)
REMARK    1  A    between atoms: C_5  and  N_1 
REMARK    2  A    between atoms: C_7  and  C_5 
REMARK    3  A    between atoms: O_10  and  C_9 
REMARK    4  A    between atoms: C_15  and  O_10 
ROOT
ATOM      1  N   UNL d   1      52.661  34.362  54.271  0.00  0.00    -0.268 N 
ATOM      2  C   UNL d   1      52.998  35.098  54.461  0.00  0.00     0.296 A 
ATOM      3  S   UNL d   1      53.734  34.954  54.806  0.00  0.00    -0.025 SA
ATOM      4  C   UNL d   1      53.192  33.771  54.500  0.00  0.00     0.073 A 
ATOM      5  C   UNL d   1      53.855  34.141  54.830  0.00  0.00     0.050 A 
ATOM      6  O   UNL d   1      52.658  35.837  54.329  0.00  0.00    -0.259 OA
ATOM      7  C   UNL d   1      53.155  32.953  54.449  0.00  0.00     0.018 A 
ATOM      8  C   UNL d   1      54.486  33.673  55.112  0.00  0.00     0.008 A 
ATOM      9  C   UNL d   1      53.780  32.494  54.728  0.00  0.00     0.002 A 
ATOM     10  C   UNL d   1      54.440  32.851  55.057  0.00  0.00     0.001 A 
ENDROOT
BRANCH   1  11
ATOM     11  C   UNL d   1      51.927  34.242  53.917  0.00  0.00     0.086 C 
BRANCH  11  12
ATOM     12  C   UNL d   1      51.857  34.293  53.094  0.00  0.00     0.040 A 
ATOM     13  C   UNL d   1      51.113  34.388  52.764  0.00  0.00     0.102 A 
ATOM     14  C   UNL d   1      51.041  34.438  51.951  0.00  0.00     0.025 A 
ATOM     15  C   UNL d   1      51.714  34.394  51.462  0.00  0.00     0.002 A 
ATOM     16  C   UNL d   1      52.457  34.298  51.807  0.00  0.00     0.000 A 
ATOM     17  C   UNL d   1      52.527  34.248  52.630  0.00  0.00     0.004 A 
BRANCH  13  18
ATOM     18  O   UNL d   1      50.466  34.429  53.271  0.00  0.00    -0.305 OA
BRANCH  18  19
ATOM     19  C   UNL d   1      49.714  34.595  52.970  0.00  0.00     0.123 C 
ATOM     20  C   UNL d   1      49.191  35.064  53.409  0.00  0.00     0.029 C 
ENDBRANCH  18  19
ENDBRANCH  13  18
ENDBRANCH  11  12
ENDBRANCH   1  11
TORSDOF 4
ENDMDL
