MODEL 1
REMARK VINA RESULT:      16.8      0.000      0.000
REMARK  5 active torsions:
REMARK  status: ('A' for Active; 'I' for Inactive)
REMARK    1  A    between atoms: N_2  and  C_7 
REMARK    2  A    between atoms: N_11  and  C_3 
REMARK    3  A    between atoms: C_9  and  C_4 
REMARK    4  A    between atoms: C_18  and  N_11 
REMARK    5  A    between atoms: C_16  and  C_18 
ROOT
ATOM      1  N   UNL d   1      13.686  12.738  -3.560  0.00  0.00    -0.222 NA
ATOM      2  C   UNL d   1      13.119  12.367  -4.027  0.00  0.00     0.172 A 
ATOM      3  C   UNL d   1      13.684  12.368  -2.812  0.00  0.00     0.090 A 
ATOM      4  S   UNL d   1      12.771  11.780  -3.582  0.00  0.00    -0.048 SA
ATOM      5  C   UNL d   1      13.116  11.780  -2.840  0.00  0.00     0.057 A 
ENDROOT
BRANCH   3   6
ATOM      6  C   UNL d   1      14.187  12.590  -2.181  0.00  0.00     0.018 A 
ATOM      7  C   UNL d   1      14.415  13.379  -2.108  0.00  0.00     0.003 A 
ATOM      8  C   UNL d   1      14.910  13.598  -1.485  0.00  0.00     0.024 A 
ATOM      9  C   UNL d   1      15.164  13.021  -0.952  0.00  0.00     0.127 A 
ATOM     10  C   UNL d   1      14.942  12.240  -1.018  0.00  0.00     0.024 A 
ATOM     11  C   UNL d   1      14.439  12.019  -1.650  0.00  0.00     0.003 A 
BRANCH   9  12
ATOM     12  N   UNL d   1      15.655  13.238  -0.334  0.00  0.00    -0.114 N 
ATOM     13  O   UNL d   1      16.192  12.693  -0.014  0.00  0.00    -0.532 OA
ATOM     14  O   UNL d   1      15.626  13.994  -0.021  0.00  0.00    -0.532 OA
ENDBRANCH   9  12
ENDBRANCH   3   6
BRANCH   2  15
ATOM     15  N   UNL d   1      12.924  12.540  -4.802  0.00  0.00    -0.332 N 
ATOM     16  H   UNL d   1      12.688  13.311  -5.006  0.00  0.00     0.168 HD
BRANCH  15  17
ATOM     17  C   UNL d   1      12.958  11.949  -5.388  0.00  0.00     0.074 C 
BRANCH  17  18
ATOM     18  C   UNL d   1      13.642  11.811  -5.799  0.00  0.00     0.018 C 
ATOM     19  C   UNL d   1      13.980  12.408  -6.295  0.00  0.00     0.002 C 
ENDBRANCH  17  18
ENDBRANCH  15  17
ENDBRANCH   2  15
TORSDOF 5
ENDMDL
MODEL 2
REMARK VINA RESULT:      18.0      1.301      1.833
REMARK  5 active torsions:
REMARK  status: ('A' for Active; 'I' for Inactive)
REMARK    1  A    between atoms: N_2  and  C_7 
REMARK    2  A    between atoms: N_11  and  C_3 
REMARK    3  A    between atoms: C_9  and  C_4 
REMARK    4  A    between atoms: C_18  and  N_11 
REMARK    5  A    between atoms: C_16  and  C_18 
ROOT
ATOM      1  N   UNL d   1      14.027  12.781  -2.293  0.00  0.00    -0.222 NA
ATOM      2  C   UNL d   1      13.576  12.101  -2.396  0.00  0.00     0.172 A 
ATOM      3  C   UNL d   1      14.160  12.879  -1.476  0.00  0.00     0.090 A 
ATOM      4  S   UNL d   1      13.430  11.781  -1.661  0.00  0.00    -0.048 SA
ATOM      5  C   UNL d   1      13.787  12.256  -1.098  0.00  0.00     0.057 A 
ENDROOT
BRANCH   3   6
ATOM      6  C   UNL d   1      14.600  13.511  -1.147  0.00  0.00     0.018 A 
ATOM      7  C   UNL d   1      14.499  14.271  -1.452  0.00  0.00     0.003 A 
ATOM      8  C   UNL d   1      14.932  14.894  -1.128  0.00  0.00     0.024 A 
ATOM      9  C   UNL d   1      15.454  14.740  -0.507  0.00  0.00     0.127 A 
ATOM     10  C   UNL d   1      15.557  13.993  -0.201  0.00  0.00     0.024 A 
ATOM     11  C   UNL d   1      15.118  13.361  -0.530  0.00  0.00     0.003 A 
BRANCH   9  12
ATOM     12  N   UNL d   1      15.883  15.359  -0.185  0.00  0.00    -0.114 N 
ATOM     13  O   UNL d   1      15.516  16.084  -0.022  0.00  0.00    -0.532 OA
ATOM     14  O   UNL d   1      16.680  15.273  -0.018  0.00  0.00    -0.532 OA
ENDBRANCH   9  12
ENDBRANCH   3   6
BRANCH   2  15
ATOM     15  N   UNL d   1      13.309  11.783  -3.101  0.00  0.00    -0.332 N 
ATOM     16  H   UNL d   1      12.876  11.073  -3.097  0.00  0.00     0.168 HD
BRANCH  15  17
ATOM     17  C   UNL d   1      13.469  12.167  -3.824  0.00  0.00     0.074 C 
BRANCH  17  18
ATOM     18  C   UNL d   1      13.004  12.038  -4.474  0.00  0.00     0.018 C 
ATOM     19  C   UNL d   1      13.347  11.861  -5.227  0.00  0.00     0.002 C 
ENDBRANCH  17  18
ENDBRANCH  15  17
ENDBRANCH   2  15
TORSDOF 5
ENDMDL
