MODEL 1
REMARK VINA RESULT:      -7.9      0.000      0.000
REMARK  4 active torsions:
REMARK  status: ('A' for Active; 'I' for Inactive)
REMARK    1  A    between atoms: C_10  and  C_3 
REMARK    2  A    between atoms: S_8  and  C_4 
REMARK       I    between atoms: N_6  and  C_7 
REMARK    3  A    between atoms: C_7  and  C_9 
REMARK    4  A    between atoms: C_9  and  S_8 
ROOT
ATOM      1  O   UNL d   1      51.698  33.490  53.108  0.00  0.00    -0.263 OA
ATOM      2  N   UNL d   1      52.512  34.543  53.182  0.00  0.00    -0.120 NA
ATOM      3  C   UNL d   1      52.435  33.751  53.372  0.00  0.00     0.205 A 
ATOM      4  C   UNL d   1      51.318  34.127  52.752  0.00  0.00     0.236 A 
ATOM      5  N   UNL d   1      51.818  34.779  52.796  0.00  0.00    -0.114 NA
ENDROOT
BRANCH   4   6
ATOM      6  S   UNL d   1      50.560  34.116  52.408  0.00  0.00    -0.036 SA
BRANCH   6   7
ATOM      7  C   UNL d   1      49.982  34.645  52.668  0.00  0.00     0.100 C 
BRANCH   7   8
ATOM      8  C   UNL d   1      49.304  34.787  52.219  0.00  0.00     0.272 C 
ATOM      9  N   UNL d   1      48.712  35.280  52.505  0.00  0.00    -0.272 N 
ATOM     10  C   UNL d   1      48.787  35.640  53.246  0.00  0.00     0.083 A 
ATOM     11  C   UNL d   1      48.034  35.415  52.040  0.00  0.00     0.083 A 
ATOM     12  C   UNL d   1      48.185  36.134  53.523  0.00  0.00     0.019 A 
ATOM     13  C   UNL d   1      47.517  36.267  53.067  0.00  0.00     0.003 A 
ATOM     14  C   UNL d   1      47.438  35.914  52.333  0.00  0.00     0.019 A 
ATOM     15  O   UNL d   1      49.229  34.428  51.477  0.00  0.00    -0.266 OA
ENDBRANCH   7   8
ENDBRANCH   6   7
ENDBRANCH   4   6
BRANCH   3  16
ATOM     16  C   UNL d   1      52.974  33.268  53.756  0.00  0.00     0.043 A 
ATOM     17  C   UNL d   1      53.295  33.510  54.476  0.00  0.00     0.004 A 
ATOM     18  C   UNL d   1      53.838  33.028  54.868  0.00  0.00     0.000 A 
ATOM     19  C   UNL d   1      54.052  32.302  54.529  0.00  0.00     0.000 A 
ATOM     20  C   UNL d   1      53.731  32.059  53.809  0.00  0.00     0.000 A 
ATOM     21  C   UNL d   1      53.191  32.551  53.431  0.00  0.00     0.004 A 
ENDBRANCH   3  16
TORSDOF 4
ENDMDL
MODEL 2
REMARK VINA RESULT:      -7.8      1.751      5.235
REMARK  4 active torsions:
REMARK  status: ('A' for Active; 'I' for Inactive)
REMARK    1  A    between atoms: C_10  and  C_3 
REMARK    2  A    between atoms: S_8  and  C_4 
REMARK       I    between atoms: N_6  and  C_7 
REMARK    3  A    between atoms: C_7  and  C_9 
REMARK    4  A    between atoms: C_9  and  S_8 
ROOT
ATOM      1  O   UNL d   1      51.885  33.574  53.146  0.00  0.00    -0.263 OA
ATOM      2  N   UNL d   1      52.218  34.829  52.839  0.00  0.00    -0.120 NA
ATOM      3  C   UNL d   1      51.607  34.284  52.828  0.00  0.00     0.205 A 
ATOM      4  C   UNL d   1      52.674  33.684  53.355  0.00  0.00     0.236 A 
ATOM      5  N   UNL d   1      52.882  34.457  53.167  0.00  0.00    -0.114 NA
ENDROOT
BRANCH   4   6
ATOM      6  S   UNL d   1      53.174  33.113  53.696  0.00  0.00    -0.036 SA
BRANCH   6   7
ATOM      7  C   UNL d   1      53.150  32.332  53.428  0.00  0.00     0.100 C 
BRANCH   7   8
ATOM      8  C   UNL d   1      53.497  31.723  53.864  0.00  0.00     0.272 C 
ATOM      9  N   UNL d   1      53.322  30.939  53.693  0.00  0.00    -0.272 N 
ATOM     10  C   UNL d   1      52.797  30.749  53.084  0.00  0.00     0.083 A 
ATOM     11  C   UNL d   1      53.680  30.335  54.141  0.00  0.00     0.083 A 
ATOM     12  C   UNL d   1      52.629  29.955  52.921  0.00  0.00     0.019 A 
ATOM     13  C   UNL d   1      52.980  29.360  53.361  0.00  0.00     0.003 A 
ATOM     14  C   UNL d   1      53.501  29.542  53.966  0.00  0.00     0.019 A 
ATOM     15  O   UNL d   1      54.023  31.913  54.474  0.00  0.00    -0.266 OA
ENDBRANCH   7   8
ENDBRANCH   6   7
ENDBRANCH   4   6
BRANCH   3  16
ATOM     16  C   UNL d   1      50.841  34.387  52.557  0.00  0.00     0.043 A 
ATOM     17  C   UNL d   1      50.262  34.667  53.073  0.00  0.00     0.004 A 
ATOM     18  C   UNL d   1      49.489  34.773  52.806  0.00  0.00     0.000 A 
ATOM     19  C   UNL d   1      49.306  34.595  52.017  0.00  0.00     0.000 A 
ATOM     20  C   UNL d   1      49.885  34.315  51.500  0.00  0.00     0.000 A 
ATOM     21  C   UNL d   1      50.651  34.215  51.782  0.00  0.00     0.004 A 
ENDBRANCH   3  16
TORSDOF 4
ENDMDL
MODEL 3
REMARK VINA RESULT:      -7.5      0.906      5.199
REMARK  4 active torsions:
REMARK  status: ('A' for Active; 'I' for Inactive)
REMARK    1  A    between atoms: C_10  and  C_3 
REMARK    2  A    between atoms: S_8  and  C_4 
REMARK       I    between atoms: N_6  and  C_7 
REMARK    3  A    between atoms: C_7  and  C_9 
REMARK    4  A    between atoms: C_9  and  S_8 
ROOT
ATOM      1  O   UNL d   1      50.058  34.256  52.226  0.00  0.00    -0.263 OA
ATOM      2  N   UNL d   1      49.841  35.074  53.257  0.00  0.00    -0.120 NA
ATOM      3  C   UNL d   1      49.539  34.816  52.541  0.00  0.00     0.205 A 
ATOM      4  C   UNL d   1      50.685  34.170  52.753  0.00  0.00     0.236 A 
ATOM      5  N   UNL d   1      50.553  34.673  53.390  0.00  0.00    -0.114 NA
ENDROOT
BRANCH   4   6
ATOM      6  S   UNL d   1      51.337  33.662  52.658  0.00  0.00    -0.036 SA
BRANCH   6   7
ATOM      7  C   UNL d   1      51.942  33.659  53.221  0.00  0.00     0.100 C 
BRANCH   7   8
ATOM      8  C   UNL d   1      52.575  33.133  53.161  0.00  0.00     0.272 C 
ATOM      9  N   UNL d   1      53.191  33.161  53.704  0.00  0.00    -0.272 N 
ATOM     10  C   UNL d   1      53.186  33.718  54.316  0.00  0.00     0.083 A 
ATOM     11  C   UNL d   1      53.823  32.624  53.631  0.00  0.00     0.083 A 
ATOM     12  C   UNL d   1      53.812  33.737  54.855  0.00  0.00     0.019 A 
ATOM     13  C   UNL d   1      54.434  33.209  54.785  0.00  0.00     0.003 A 
ATOM     14  C   UNL d   1      54.445  32.656  54.181  0.00  0.00     0.019 A 
ATOM     15  O   UNL d   1      52.580  32.576  52.549  0.00  0.00    -0.266 OA
ENDBRANCH   7   8
ENDBRANCH   6   7
ENDBRANCH   4   6
BRANCH   3  16
ATOM     16  C   UNL d   1      48.847  35.048  52.170  0.00  0.00     0.043 A 
ATOM     17  C   UNL d   1      48.328  35.558  52.559  0.00  0.00     0.004 A 
ATOM     18  C   UNL d   1      47.630  35.795  52.191  0.00  0.00     0.000 A 
ATOM     19  C   UNL d   1      47.459  35.516  51.428  0.00  0.00     0.000 A 
ATOM     20  C   UNL d   1      47.978  35.006  51.038  0.00  0.00     0.000 A 
ATOM     21  C   UNL d   1      48.670  34.779  51.420  0.00  0.00     0.004 A 
ENDBRANCH   3  16
TORSDOF 4
ENDMDL
MODEL 4
REMARK VINA RESULT:      -5.9     10.272     10.890
REMARK  4 active torsions:
REMARK  status: ('A' for Active; 'I' for Inactive)
REMARK    1  A    between atoms: C_10  and  C_3 
REMARK    2  A    between atoms: S_8  and  C_4 
REMARK       I    between atoms: N_6  and  C_7 
REMARK    3  A    between atoms: C_7  and  C_9 
REMARK    4  A    between atoms: C_9  and  S_8 
ROOT
ATOM      1  O   UNL d   1      44.777  29.666  59.085  0.00  0.00    -0.263 OA
ATOM      2  N   UNL d   1      45.320  30.333  58.066  0.00  0.00    -0.120 NA
ATOM      3  C   UNL d   1      45.072  29.594  58.317  0.00  0.00     0.205 A 
ATOM      4  C   UNL d   1      44.843  30.455  59.308  0.00  0.00     0.236 A 
ATOM      5  N   UNL d   1      45.178  30.870  58.682  0.00  0.00    -0.114 NA
ENDROOT
BRANCH   4   6
ATOM      6  S   UNL d   1      44.612  30.779  60.040  0.00  0.00    -0.036 SA
BRANCH   6   7
ATOM      7  C   UNL d   1      44.699  30.335  60.731  0.00  0.00     0.100 C 
BRANCH   7   8
ATOM      8  C   UNL d   1      44.570  30.676  61.472  0.00  0.00     0.272 C 
ATOM      9  N   UNL d   1      44.510  30.203  62.141  0.00  0.00    -0.272 N 
ATOM     10  C   UNL d   1      44.578  29.381  62.082  0.00  0.00     0.083 A 
ATOM     11  C   UNL d   1      44.379  30.560  62.882  0.00  0.00     0.083 A 
ATOM     12  C   UNL d   1      44.515  28.916  62.763  0.00  0.00     0.019 A 
ATOM     13  C   UNL d   1      44.387  29.265  63.492  0.00  0.00     0.003 A 
ATOM     14  C   UNL d   1      44.319  30.079  63.557  0.00  0.00     0.019 A 
ATOM     15  O   UNL d   1      44.502  31.498  61.532  0.00  0.00    -0.266 OA
ENDBRANCH   7   8
ENDBRANCH   6   7
ENDBRANCH   4   6
BRANCH   3  16
ATOM     16  C   UNL d   1      45.097  28.886  57.908  0.00  0.00     0.043 A 
ATOM     17  C   UNL d   1      45.375  28.207  58.286  0.00  0.00     0.004 A 
ATOM     18  C   UNL d   1      45.403  27.490  57.880  0.00  0.00     0.000 A 
ATOM     19  C   UNL d   1      45.148  27.463  57.090  0.00  0.00     0.000 A 
ATOM     20  C   UNL d   1      44.870  28.141  56.712  0.00  0.00     0.000 A 
ATOM     21  C   UNL d   1      44.849  28.848  57.131  0.00  0.00     0.004 A 
ENDBRANCH   3  16
TORSDOF 4
ENDMDL
MODEL 5
REMARK VINA RESULT:      -5.8     10.582     10.971
REMARK  4 active torsions:
REMARK  status: ('A' for Active; 'I' for Inactive)
REMARK    1  A    between atoms: C_10  and  C_3 
REMARK    2  A    between atoms: S_8  and  C_4 
REMARK       I    between atoms: N_6  and  C_7 
REMARK    3  A    between atoms: C_7  and  C_9 
REMARK    4  A    between atoms: C_9  and  S_8 
ROOT
ATOM      1  O   UNL d   1      44.571  28.000  58.614  0.00  0.00    -0.263 OA
ATOM      2  N   UNL d   1      45.688  27.748  57.929  0.00  0.00    -0.120 NA
ATOM      3  C   UNL d   1      45.013  27.408  58.245  0.00  0.00     0.205 A 
ATOM      4  C   UNL d   1      44.979  28.710  58.526  0.00  0.00     0.236 A 
ATOM      5  N   UNL d   1      45.668  28.558  58.104  0.00  0.00    -0.114 NA
ENDROOT
BRANCH   4   6
ATOM      6  S   UNL d   1      44.736  29.453  58.813  0.00  0.00    -0.036 SA
BRANCH   6   7
ATOM      7  C   UNL d   1      44.823  29.632  59.615  0.00  0.00     0.100 C 
BRANCH   7   8
ATOM      8  C   UNL d   1      44.607  30.372  59.910  0.00  0.00     0.272 C 
ATOM      9  N   UNL d   1      44.570  30.502  60.720  0.00  0.00    -0.272 N 
ATOM     10  C   UNL d   1      44.750  29.893  61.251  0.00  0.00     0.083 A 
ATOM     11  C   UNL d   1      44.351  31.253  61.003  0.00  0.00     0.083 A 
ATOM     12  C   UNL d   1      44.709  30.036  62.065  0.00  0.00     0.019 A 
ATOM     13  C   UNL d   1      44.494  30.774  62.344  0.00  0.00     0.003 A 
ATOM     14  C   UNL d   1      44.315  31.381  61.824  0.00  0.00     0.019 A 
ATOM     15  O   UNL d   1      44.428  30.981  59.379  0.00  0.00    -0.266 OA
ENDBRANCH   7   8
ENDBRANCH   6   7
ENDBRANCH   4   6
BRANCH   3  16
ATOM     16  C   UNL d   1      44.781  26.623  58.218  0.00  0.00     0.043 A 
ATOM     17  C   UNL d   1      44.631  26.268  57.489  0.00  0.00     0.004 A 
ATOM     18  C   UNL d   1      44.398  25.478  57.455  0.00  0.00     0.000 A 
ATOM     19  C   UNL d   1      44.316  25.050  58.162  0.00  0.00     0.000 A 
ATOM     20  C   UNL d   1      44.466  25.405  58.892  0.00  0.00     0.000 A 
ATOM     21  C   UNL d   1      44.698  26.194  58.908  0.00  0.00     0.004 A 
ENDBRANCH   3  16
TORSDOF 4
ENDMDL
MODEL 6
REMARK VINA RESULT:      -5.3     10.007     10.356
REMARK  4 active torsions:
REMARK  status: ('A' for Active; 'I' for Inactive)
REMARK    1  A    between atoms: C_10  and  C_3 
REMARK    2  A    between atoms: S_8  and  C_4 
REMARK       I    between atoms: N_6  and  C_7 
REMARK    3  A    between atoms: C_7  and  C_9 
REMARK    4  A    between atoms: C_9  and  S_8 
ROOT
ATOM      1  O   UNL d   1      44.557  26.962  56.515  0.00  0.00    -0.263 OA
ATOM      2  N   UNL d   1      45.813  26.560  56.715  0.00  0.00    -0.120 NA
ATOM      3  C   UNL d   1      45.060  26.308  56.513  0.00  0.00     0.205 A 
ATOM      4  C   UNL d   1      45.003  27.623  56.720  0.00  0.00     0.236 A 
ATOM      5  N   UNL d   1      45.778  27.378  56.844  0.00  0.00    -0.114 NA
ENDROOT
BRANCH   4   6
ATOM      6  S   UNL d   1      44.720  28.403  56.790  0.00  0.00    -0.036 SA
BRANCH   6   7
ATOM      7  C   UNL d   1      44.793  28.804  57.509  0.00  0.00     0.100 C 
BRANCH   7   8
ATOM      8  C   UNL d   1      44.589  29.601  57.572  0.00  0.00     0.272 C 
ATOM      9  N   UNL d   1      44.616  29.980  58.300  0.00  0.00    -0.272 N 
ATOM     10  C   UNL d   1      44.847  29.568  58.979  0.00  0.00     0.083 A 
ATOM     11  C   UNL d   1      44.407  30.785  58.349  0.00  0.00     0.083 A 
ATOM     12  C   UNL d   1      44.870  29.961  59.707  0.00  0.00     0.019 A 
ATOM     13  C   UNL d   1      44.665  30.752  59.756  0.00  0.00     0.003 A 
ATOM     14  C   UNL d   1      44.435  31.165  59.087  0.00  0.00     0.019 A 
ATOM     15  O   UNL d   1      44.357  30.013  56.893  0.00  0.00    -0.266 OA
ENDBRANCH   7   8
ENDBRANCH   6   7
ENDBRANCH   4   6
BRANCH   3  16
ATOM     16  C   UNL d   1      44.812  25.549  56.334  0.00  0.00     0.043 A 
ATOM     17  C   UNL d   1      44.699  25.003  56.942  0.00  0.00     0.004 A 
ATOM     18  C   UNL d   1      44.449  24.237  56.768  0.00  0.00     0.000 A 
ATOM     19  C   UNL d   1      44.314  24.026  55.977  0.00  0.00     0.000 A 
ATOM     20  C   UNL d   1      44.427  24.571  55.368  0.00  0.00     0.000 A 
ATOM     21  C   UNL d   1      44.677  25.331  55.559  0.00  0.00     0.004 A 
ENDBRANCH   3  16
TORSDOF 4
ENDMDL
