MODEL 1
REMARK VINA RESULT:      -3.4      0.000      0.000
REMARK  6 active torsions:
REMARK  status: ('A' for Active; 'I' for Inactive)
REMARK    1  A    between atoms: S_9  and  C_3 
REMARK    2  A    between atoms: C_11  and  C_4 
REMARK    3  A    between atoms: C_20  and  S_9 
REMARK    4  A    between atoms: C_12  and  C_20 
REMARK       I    between atoms: N_17  and  C_12 
REMARK    5  A    between atoms: C_25  and  N_17 
REMARK    6  A    between atoms: C_24  and  C_25 
ROOT
ATOM      1  N   UNL d   1      59.256  -2.701  29.159  0.00  0.00    -0.263 N 
ATOM      2  C   UNL d   1      59.253  -3.508  29.004  0.00  0.00     0.202 A 
ATOM      3  C   UNL d   1      58.513  -2.496  29.449  0.00  0.00     0.202 A 
ATOM      4  C   UNL d   1      60.003  -2.410  28.964  0.00  0.00     0.074 A 
ATOM      5  N   UNL d   1      58.518  -3.808  29.194  0.00  0.00    -0.121 NA
ATOM      6  N   UNL d   1      58.050  -3.186  29.472  0.00  0.00    -0.121 NA
ATOM      7  S   UNL d   1      59.997  -3.717  28.714  0.00  0.00    -0.046 SA
ATOM      8  C   UNL d   1      60.460  -3.044  28.687  0.00  0.00     0.056 A 
ENDROOT
BRANCH   3   9
ATOM      9  S   UNL d   1      58.344  -1.715  29.656  0.00  0.00    -0.043 SA
BRANCH   9  10
ATOM     10  C   UNL d   1      57.718  -1.543  30.169  0.00  0.00     0.101 C 
BRANCH  10  11
ATOM     11  C   UNL d   1      57.627  -0.781  30.464  0.00  0.00     0.286 C 
ATOM     12  N   UNL d   1      57.354  -0.667  31.242  0.00  0.00    -0.206 NA
ATOM     13  O   UNL d   1      57.805  -0.131  29.989  0.00  0.00    -0.265 OA
BRANCH  12  14
ATOM     14  C   UNL d   1      57.262   0.100  31.541  0.00  0.00     0.102 C 
BRANCH  14  15
ATOM     15  C   UNL d   1      56.877   0.218  32.270  0.00  0.00     0.021 A 
ATOM     16  C   UNL d   1      56.050   0.216  32.327  0.00  0.00     0.028 A 
ATOM     17  C   UNL d   1      55.691   0.335  33.051  0.00  0.00     0.119 A 
ATOM     18  O   UNL d   1      54.907   0.363  33.281  0.00  0.00    -0.300 OA
ATOM     19  C   UNL d   1      56.150   0.456  33.721  0.00  0.00     0.119 A 
ATOM     20  C   UNL d   1      54.866   0.497  34.070  0.00  0.00     0.304 A 
ATOM     21  O   UNL d   1      55.643   0.557  34.354  0.00  0.00    -0.300 OA
ATOM     22  C   UNL d   1      56.965   0.458  33.661  0.00  0.00     0.026 A 
ATOM     23  C   UNL d   1      57.327   0.337  32.924  0.00  0.00     0.004 A 
ENDBRANCH  14  15
ENDBRANCH  12  14
ENDBRANCH  10  11
ENDBRANCH   9  10
ENDBRANCH   3   9
BRANCH   4  24
ATOM     24  C   UNL d   1      60.289  -1.637  29.016  0.00  0.00     0.017 A 
ATOM     25  C   UNL d   1      60.804  -1.426  29.615  0.00  0.00     0.002 A 
ATOM     26  C   UNL d   1      61.090  -0.660  29.669  0.00  0.00     0.011 A 
ATOM     27  C   UNL d   1      60.851  -0.094  29.108  0.00  0.00     0.058 A 
ATOM     28  C   UNL d   1      60.331  -0.306  28.501  0.00  0.00     0.011 A 
ATOM     29 CL   UNL d   1      61.133   0.682  29.152  0.00  0.00    -0.082 Cl
ATOM     30  C   UNL d   1      60.049  -1.079  28.455  0.00  0.00     0.002 A 
ENDBRANCH   4  24
TORSDOF 6
ENDMDL
