MODEL 1
REMARK VINA RESULT:      -5.6      0.000      0.000
REMARK  1 active torsions:
REMARK  status: ('A' for Active; 'I' for Inactive)
REMARK    1  A    between atoms: C_12  and  N_4 
ROOT
ATOM      1  C   UNL d   1     -41.556-122.594 -53.264  0.00  0.00     0.081 A 
ATOM      2  C   UNL d   1     -41.481-123.409 -53.244  0.00  0.00     0.118 A 
ATOM      3  C   UNL d   1     -41.485-122.156 -52.551  0.00  0.00     0.268 A 
ATOM      4  N   UNL d   1     -41.342-122.543 -51.839  0.00  0.00    -0.249 N 
ATOM      5  N   UNL d   1     -41.339-123.817 -52.545  0.00  0.00    -0.212 NA
ATOM      6  C   UNL d   1     -41.268-123.379 -51.831  0.00  0.00     0.209 A 
ATOM      7  S   UNL d   1     -41.581-123.666 -54.045  0.00  0.00    -0.068 SA
ATOM      8  C   UNL d   1     -41.696-122.360 -54.042  0.00  0.00     0.013 A 
ATOM      9  C   UNL d   1     -41.706-123.057 -54.510  0.00  0.00     0.031 A 
ATOM     10  S   UNL d   1     -41.123-123.808 -51.127  0.00  0.00    -0.038 SA
ATOM     11  O   UNL d   1     -41.559-121.310 -52.546  0.00  0.00    -0.267 OA
ATOM     12  C   UNL d   1     -41.813-121.622 -54.389  0.00  0.00     0.001 A 
ATOM     13  C   UNL d   1     -41.837-122.993 -55.329  0.00  0.00     0.006 A 
ATOM     14  C   UNL d   1     -41.942-121.568 -55.196  0.00  0.00     0.000 A 
ATOM     15  C   UNL d   1     -41.954-122.244 -55.666  0.00  0.00     0.001 A 
ENDROOT
BRANCH   4  16
ATOM     16  C   UNL d   1     -41.274-122.098 -51.138  0.00  0.00     0.085 C 
ATOM     17  C   UNL d   1     -41.934-121.951 -50.674  0.00  0.00     0.021 C 
ENDBRANCH   4  16
TORSDOF 1
ENDMDL
MODEL 2
REMARK VINA RESULT:      -5.3      0.864      3.100
REMARK  1 active torsions:
REMARK  status: ('A' for Active; 'I' for Inactive)
REMARK    1  A    between atoms: C_12  and  N_4 
ROOT
ATOM      1  C   UNL d   1     -41.443-122.699 -52.622  0.00  0.00     0.081 A 
ATOM      2  C   UNL d   1     -41.269-123.489 -52.750  0.00  0.00     0.118 A 
ATOM      3  C   UNL d   1     -41.618-122.204 -53.278  0.00  0.00     0.268 A 
ATOM      4  N   UNL d   1     -41.613-122.511 -54.041  0.00  0.00    -0.249 N 
ATOM      5  N   UNL d   1     -41.259-123.817 -53.503  0.00  0.00    -0.212 NA
ATOM      6  C   UNL d   1     -41.434-123.322 -54.159  0.00  0.00     0.209 A 
ATOM      7  S   UNL d   1     -41.125-123.817 -51.983  0.00  0.00    -0.068 SA
ATOM      8  C   UNL d   1     -41.407-122.548 -51.812  0.00  0.00     0.013 A 
ATOM      9  C   UNL d   1     -41.204-123.271 -51.437  0.00  0.00     0.031 A 
ATOM     10  S   UNL d   1     -41.420-123.670 -54.920  0.00  0.00    -0.038 SA
ATOM     11  O   UNL d   1     -41.801-121.382 -53.170  0.00  0.00    -0.267 OA
ATOM     12  C   UNL d   1     -41.527-121.865 -51.367  0.00  0.00     0.001 A 
ATOM     13  C   UNL d   1     -41.126-123.289 -50.608  0.00  0.00     0.006 A 
ATOM     14  C   UNL d   1     -41.449-121.891 -50.552  0.00  0.00     0.000 A 
ATOM     15  C   UNL d   1     -41.251-122.594 -50.172  0.00  0.00     0.001 A 
ENDROOT
BRANCH   4  16
ATOM     16  C   UNL d   1     -41.788-122.010 -54.683  0.00  0.00     0.085 C 
ATOM     17  C   UNL d   1     -42.556-121.944 -54.961  0.00  0.00     0.021 C 
ENDBRANCH   4  16
TORSDOF 1
ENDMDL
MODEL 3
REMARK VINA RESULT:      -4.2      0.943      1.234
REMARK  1 active torsions:
REMARK  status: ('A' for Active; 'I' for Inactive)
REMARK    1  A    between atoms: C_12  and  N_4 
ROOT
ATOM      1  C   UNL d   1     -41.711-122.776 -52.132  0.00  0.00     0.081 A 
ATOM      2  C   UNL d   1     -41.297-123.479 -52.064  0.00  0.00     0.118 A 
ATOM      3  C   UNL d   1     -41.973-122.383 -51.438  0.00  0.00     0.268 A 
ATOM      4  N   UNL d   1     -41.815-122.702 -50.696  0.00  0.00    -0.249 N 
ATOM      5  N   UNL d   1     -41.128-123.817 -51.334  0.00  0.00    -0.212 NA
ATOM      6  C   UNL d   1     -41.390-123.423 -50.639  0.00  0.00     0.209 A 
ATOM      7  S   UNL d   1     -41.123-123.719 -52.857  0.00  0.00    -0.068 SA
ATOM      8  C   UNL d   1     -41.788-122.591 -52.932  0.00  0.00     0.013 A 
ATOM      9  C   UNL d   1     -41.408-123.203 -53.363  0.00  0.00     0.031 A 
ATOM     10  S   UNL d   1     -41.210-123.778 -49.903  0.00  0.00    -0.038 SA
ATOM     11  O   UNL d   1     -42.405-121.653 -51.483  0.00  0.00    -0.267 OA
ATOM     12  C   UNL d   1     -42.145-121.962 -53.326  0.00  0.00     0.001 A 
ATOM     13  C   UNL d   1     -41.395-123.165 -54.195  0.00  0.00     0.006 A 
ATOM     14  C   UNL d   1     -42.129-121.932 -54.144  0.00  0.00     0.000 A 
ATOM     15  C   UNL d   1     -41.758-122.526 -54.579  0.00  0.00     0.001 A 
ENDROOT
BRANCH   4  16
ATOM     16  C   UNL d   1     -42.080-122.303 -50.015  0.00  0.00     0.085 C 
ATOM     17  C   UNL d   1     -42.855-122.387 -49.760  0.00  0.00     0.021 C 
ENDBRANCH   4  16
TORSDOF 1
ENDMDL
