MODEL 1
REMARK VINA RESULT:      -8.0      0.000      0.000
REMARK  5 active torsions:
REMARK  status: ('A' for Active; 'I' for Inactive)
REMARK    1  A    between atoms: C_2  and  S_1 
REMARK    2  A    between atoms: N_3  and  S_1 
REMARK    3  A    between atoms: C_14  and  N_3 
REMARK    4  A    between atoms: C_15  and  C_14 
REMARK    5  A    between atoms: O_18  and  C_16 
ROOT
ATOM      1  S   UNL d   1     -49.193  11.921  23.179  0.00  0.00     0.285 S 
ATOM      2  O   UNL d   1     -48.681  11.472  23.645  0.00  0.00    -0.198 OA
ATOM      3  O   UNL d   1     -49.805  11.412  23.362  0.00  0.00    -0.198 OA
ENDROOT
BRANCH   1   4
ATOM      4  C   UNL d   1     -49.699  12.375  22.712  0.00  0.00     0.107 A 
ATOM      5  C   UNL d   1     -50.114  13.011  23.039  0.00  0.00     0.037 A 
ATOM      6  C   UNL d   1     -50.618  13.460  22.565  0.00  0.00     0.095 A 
ATOM      7  C   UNL d   1     -50.708  13.273  21.764  0.00  0.00     0.024 A 
ATOM      8  C   UNL d   1     -50.294  12.638  21.441  0.00  0.00     0.003 A 
ATOM      9  C   UNL d   1     -49.790  12.189  21.914  0.00  0.00     0.013 A 
BRANCH   6  10
ATOM     10  O   UNL d   1     -51.032  14.094  22.888  0.00  0.00    -0.328 OA
ATOM     11  C   UNL d   1     -51.064  14.815  22.487  0.00  0.00     0.181 C 
ENDBRANCH   6  10
ENDBRANCH   1   4
BRANCH   1  12
ATOM     12  N   UNL d   1     -48.572  12.433  22.997  0.00  0.00    -0.157 NA
BRANCH  12  13
ATOM     13  C   UNL d   1     -47.848  12.361  23.399  0.00  0.00     0.112 C 
BRANCH  13  14
ATOM     14  C   UNL d   1     -47.189  12.783  23.139  0.00  0.00     0.022 A 
ATOM     15  C   UNL d   1     -46.544  12.377  22.824  0.00  0.00     0.028 A 
ATOM     16  C   UNL d   1     -45.885  12.799  22.564  0.00  0.00     0.119 A 
ATOM     17  O   UNL d   1     -45.175  12.552  22.232  0.00  0.00    -0.300 OA
ATOM     18  C   UNL d   1     -45.865  13.623  22.616  0.00  0.00     0.119 A 
ATOM     19  C   UNL d   1     -44.713  13.219  22.077  0.00  0.00     0.304 A 
ATOM     20  O   UNL d   1     -45.154  13.879  22.321  0.00  0.00    -0.300 OA
ATOM     21  C   UNL d   1     -46.518  14.023  22.934  0.00  0.00     0.026 A 
ATOM     22  C   UNL d   1     -47.181  13.606  23.196  0.00  0.00     0.004 A 
ENDBRANCH  13  14
ENDBRANCH  12  13
ENDBRANCH   1  12
TORSDOF 5
ENDMDL
MODEL 2
REMARK VINA RESULT:      -8.0      1.246      1.857
REMARK  5 active torsions:
REMARK  status: ('A' for Active; 'I' for Inactive)
REMARK    1  A    between atoms: C_2  and  S_1 
REMARK    2  A    between atoms: N_3  and  S_1 
REMARK    3  A    between atoms: C_14  and  N_3 
REMARK    4  A    between atoms: C_15  and  C_14 
REMARK    5  A    between atoms: O_18  and  C_16 
ROOT
ATOM      1  S   UNL d   1     -49.041  14.703  22.543  0.00  0.00     0.285 S 
ATOM      2  O   UNL d   1     -48.492  15.297  22.706  0.00  0.00    -0.198 OA
ATOM      3  O   UNL d   1     -49.626  15.268  22.458  0.00  0.00    -0.198 OA
ENDROOT
BRANCH   1   4
ATOM      4  C   UNL d   1     -49.584  14.104  22.382  0.00  0.00     0.107 A 
ATOM      5  C   UNL d   1     -50.042  13.779  22.989  0.00  0.00     0.037 A 
ATOM      6  C   UNL d   1     -50.583  13.180  22.819  0.00  0.00     0.095 A 
ATOM      7  C   UNL d   1     -50.667  12.906  22.043  0.00  0.00     0.024 A 
ATOM      8  C   UNL d   1     -50.209  13.232  21.440  0.00  0.00     0.003 A 
ATOM      9  C   UNL d   1     -49.668  13.831  21.609  0.00  0.00     0.013 A 
BRANCH   6  10
ATOM     10  O   UNL d   1     -51.040  12.854  23.421  0.00  0.00    -0.328 OA
ATOM     11  C   UNL d   1     -50.984  12.049  23.595  0.00  0.00     0.181 C 
ENDBRANCH   6  10
ENDBRANCH   1   4
BRANCH   1  12
ATOM     12  N   UNL d   1     -48.448  14.137  22.630  0.00  0.00    -0.157 NA
BRANCH  12  13
ATOM     13  C   UNL d   1     -47.694  14.368  22.895  0.00  0.00     0.112 C 
BRANCH  13  14
ATOM     14  C   UNL d   1     -47.075  13.822  22.902  0.00  0.00     0.022 A 
ATOM     15  C   UNL d   1     -46.434  13.927  22.394  0.00  0.00     0.028 A 
ATOM     16  C   UNL d   1     -45.816  13.382  22.401  0.00  0.00     0.119 A 
ATOM     17  O   UNL d   1     -45.119  13.342  21.967  0.00  0.00    -0.300 OA
ATOM     18  C   UNL d   1     -45.832  12.733  22.910  0.00  0.00     0.119 A 
ATOM     19  C   UNL d   1     -44.701  12.670  22.205  0.00  0.00     0.304 A 
ATOM     20  O   UNL d   1     -45.156  12.300  22.793  0.00  0.00    -0.300 OA
ATOM     21  C   UNL d   1     -46.481  12.635  23.419  0.00  0.00     0.026 A 
ATOM     22  C   UNL d   1     -47.103  13.178  23.416  0.00  0.00     0.004 A 
ENDBRANCH  13  14
ENDBRANCH  12  13
ENDBRANCH   1  12
TORSDOF 5
ENDMDL
MODEL 3
REMARK VINA RESULT:      -6.9      0.896      4.321
REMARK  5 active torsions:
REMARK  status: ('A' for Active; 'I' for Inactive)
REMARK    1  A    between atoms: C_2  and  S_1 
REMARK    2  A    between atoms: N_3  and  S_1 
REMARK    3  A    between atoms: C_14  and  N_3 
REMARK    4  A    between atoms: C_15  and  C_14 
REMARK    5  A    between atoms: O_18  and  C_16 
ROOT
ATOM      1  S   UNL d   1     -47.216  12.156  23.342  0.00  0.00     0.285 S 
ATOM      2  O   UNL d   1     -47.787  11.644  23.646  0.00  0.00    -0.198 OA
ATOM      3  O   UNL d   1     -46.629  11.713  23.698  0.00  0.00    -0.198 OA
ENDROOT
BRANCH   1   4
ATOM      4  C   UNL d   1     -46.651  12.672  23.034  0.00  0.00     0.107 A 
ATOM      5  C   UNL d   1     -46.079  12.399  22.503  0.00  0.00     0.037 A 
ATOM      6  C   UNL d   1     -45.517  12.921  22.199  0.00  0.00     0.095 A 
ATOM      7  C   UNL d   1     -45.527  13.717  22.427  0.00  0.00     0.024 A 
ATOM      8  C   UNL d   1     -46.097  13.986  22.957  0.00  0.00     0.003 A 
ATOM      9  C   UNL d   1     -46.659  13.464  23.261  0.00  0.00     0.013 A 
BRANCH   6  10
ATOM     10  O   UNL d   1     -44.947  12.653  21.669  0.00  0.00    -0.328 OA
ATOM     11  C   UNL d   1     -44.223  13.043  21.607  0.00  0.00     0.181 C 
ENDBRANCH   6  10
ENDBRANCH   1   4
BRANCH   1  12
ATOM     12  N   UNL d   1     -47.811  12.601  22.984  0.00  0.00    -0.157 NA
BRANCH  12  13
ATOM     13  C   UNL d   1     -48.604  12.357  23.050  0.00  0.00     0.112 C 
BRANCH  13  14
ATOM     14  C   UNL d   1     -49.185  12.717  22.590  0.00  0.00     0.022 A 
ATOM     15  C   UNL d   1     -49.536  13.416  22.851  0.00  0.00     0.028 A 
ATOM     16  C   UNL d   1     -50.118  13.776  22.391  0.00  0.00     0.119 A 
ATOM     17  O   UNL d   1     -50.558  14.461  22.505  0.00  0.00    -0.300 OA
ATOM     18  C   UNL d   1     -50.351  13.445  21.672  0.00  0.00     0.119 A 
ATOM     19  C   UNL d   1     -51.064  14.558  21.860  0.00  0.00     0.304 A 
ATOM     20  O   UNL d   1     -50.926  13.918  21.348  0.00  0.00    -0.300 OA
ATOM     21  C   UNL d   1     -49.993  12.742  21.416  0.00  0.00     0.026 A 
ATOM     22  C   UNL d   1     -49.410  12.376  21.873  0.00  0.00     0.004 A 
ENDBRANCH  13  14
ENDBRANCH  12  13
ENDBRANCH   1  12
TORSDOF 5
ENDMDL
MODEL 4
REMARK VINA RESULT:      -6.3      8.556      9.775
REMARK  5 active torsions:
REMARK  status: ('A' for Active; 'I' for Inactive)
REMARK    1  A    between atoms: C_2  and  S_1 
REMARK    2  A    between atoms: N_3  and  S_1 
REMARK    3  A    between atoms: C_14  and  N_3 
REMARK    4  A    between atoms: C_15  and  C_14 
REMARK    5  A    between atoms: O_18  and  C_16 
ROOT
ATOM      1  S   UNL d   1     -40.619  14.201  18.490  0.00  0.00     0.285 S 
ATOM      2  O   UNL d   1     -40.992  13.663  18.991  0.00  0.00    -0.198 OA
ATOM      3  O   UNL d   1     -40.848  13.757  17.843  0.00  0.00    -0.198 OA
ENDROOT
BRANCH   1   4
ATOM      4  C   UNL d   1     -40.242  14.743  17.994  0.00  0.00     0.107 A 
ATOM      5  C   UNL d   1     -39.441  14.655  17.809  0.00  0.00     0.037 A 
ATOM      6  C   UNL d   1     -39.072  15.201  17.313  0.00  0.00     0.095 A 
ATOM      7  C   UNL d   1     -39.504  15.835  17.003  0.00  0.00     0.024 A 
ATOM      8  C   UNL d   1     -40.302  15.921  17.189  0.00  0.00     0.003 A 
ATOM      9  C   UNL d   1     -40.671  15.374  17.685  0.00  0.00     0.013 A 
BRANCH   6  10
ATOM     10  O   UNL d   1     -38.275  15.117  17.126  0.00  0.00    -0.328 OA
ATOM     11  C   UNL d   1     -38.030  15.134  16.338  0.00  0.00     0.181 C 
ENDBRANCH   6  10
ENDBRANCH   1   4
BRANCH   1  12
ATOM     12  N   UNL d   1     -40.389  14.646  19.145  0.00  0.00    -0.157 NA
BRANCH  12  13
ATOM     13  C   UNL d   1     -40.595  14.390  19.909  0.00  0.00     0.112 C 
BRANCH  13  14
ATOM     14  C   UNL d   1     -40.328  14.807  20.569  0.00  0.00     0.022 A 
ATOM     15  C   UNL d   1     -39.672  14.532  20.986  0.00  0.00     0.028 A 
ATOM     16  C   UNL d   1     -39.406  14.949  21.646  0.00  0.00     0.119 A 
ATOM     17  O   UNL d   1     -38.780  14.813  22.161  0.00  0.00    -0.300 OA
ATOM     18  C   UNL d   1     -39.788  15.638  21.891  0.00  0.00     0.119 A 
ATOM     19  C   UNL d   1     -38.771  15.415  22.727  0.00  0.00     0.304 A 
ATOM     20  O   UNL d   1     -39.404  15.922  22.548  0.00  0.00    -0.300 OA
ATOM     21  C   UNL d   1     -40.447  15.908  21.466  0.00  0.00     0.026 A 
ATOM     22  C   UNL d   1     -40.719  15.494  20.805  0.00  0.00     0.004 A 
ENDBRANCH  13  14
ENDBRANCH  12  13
ENDBRANCH   1  12
TORSDOF 5
ENDMDL
MODEL 5
REMARK VINA RESULT:      -6.3      1.526      4.353
REMARK  5 active torsions:
REMARK  status: ('A' for Active; 'I' for Inactive)
REMARK    1  A    between atoms: C_2  and  S_1 
REMARK    2  A    between atoms: N_3  and  S_1 
REMARK    3  A    between atoms: C_14  and  N_3 
REMARK    4  A    between atoms: C_15  and  C_14 
REMARK    5  A    between atoms: O_18  and  C_16 
ROOT
ATOM      1  S   UNL d   1     -46.647  14.425  22.861  0.00  0.00     0.285 S 
ATOM      2  O   UNL d   1     -46.973  15.177  22.951  0.00  0.00    -0.198 OA
ATOM      3  O   UNL d   1     -45.903  14.730  23.009  0.00  0.00    -0.198 OA
ENDROOT
BRANCH   1   4
ATOM      4  C   UNL d   1     -46.328  13.669  22.770  0.00  0.00     0.107 A 
ATOM      5  C   UNL d   1     -46.542  13.059  23.285  0.00  0.00     0.037 A 
ATOM      6  C   UNL d   1     -46.219  12.306  23.187  0.00  0.00     0.095 A 
ATOM      7  C   UNL d   1     -45.682  12.164  22.574  0.00  0.00     0.024 A 
ATOM      8  C   UNL d   1     -45.470  12.774  22.062  0.00  0.00     0.003 A 
ATOM      9  C   UNL d   1     -45.793  13.527  22.160  0.00  0.00     0.013 A 
BRANCH   6  10
ATOM     10  O   UNL d   1     -46.430  11.697  23.698  0.00  0.00    -0.328 OA
ATOM     11  C   UNL d   1     -46.921  11.088  23.435  0.00  0.00     0.181 C 
ENDBRANCH   6  10
ENDBRANCH   1   4
BRANCH   1  12
ATOM     12  N   UNL d   1     -47.399  14.121  22.713  0.00  0.00    -0.157 NA
BRANCH  12  13
ATOM     13  C   UNL d   1     -48.044  14.640  22.629  0.00  0.00     0.112 C 
BRANCH  13  14
ATOM     14  C   UNL d   1     -48.810  14.340  22.581  0.00  0.00     0.022 A 
ATOM     15  C   UNL d   1     -49.111  14.105  21.850  0.00  0.00     0.028 A 
ATOM     16  C   UNL d   1     -49.877  13.805  21.803  0.00  0.00     0.119 A 
ATOM     17  O   UNL d   1     -50.318  13.532  21.165  0.00  0.00    -0.300 OA
ATOM     18  C   UNL d   1     -50.346  13.738  22.479  0.00  0.00     0.119 A 
ATOM     19  C   UNL d   1     -51.060  13.295  21.442  0.00  0.00     0.304 A 
ATOM     20  O   UNL d   1     -51.064  13.428  22.261  0.00  0.00    -0.300 OA
ATOM     21  C   UNL d   1     -50.036  13.976  23.211  0.00  0.00     0.026 A 
ATOM     22  C   UNL d   1     -49.269  14.278  23.264  0.00  0.00     0.004 A 
ENDBRANCH  13  14
ENDBRANCH  12  13
ENDBRANCH   1  12
TORSDOF 5
ENDMDL
MODEL 6
REMARK VINA RESULT:      -6.0      8.698      9.929
REMARK  5 active torsions:
REMARK  status: ('A' for Active; 'I' for Inactive)
REMARK    1  A    between atoms: C_2  and  S_1 
REMARK    2  A    between atoms: N_3  and  S_1 
REMARK    3  A    between atoms: C_14  and  N_3 
REMARK    4  A    between atoms: C_15  and  C_14 
REMARK    5  A    between atoms: O_18  and  C_16 
ROOT
ATOM      1  S   UNL d   1     -40.695  15.635  20.468  0.00  0.00     0.285 S 
ATOM      2  O   UNL d   1     -41.315  15.874  19.979  0.00  0.00    -0.198 OA
ATOM      3  O   UNL d   1     -41.101  15.917  21.119  0.00  0.00    -0.198 OA
ENDROOT
BRANCH   1   4
ATOM      4  C   UNL d   1     -40.072  15.393  20.952  0.00  0.00     0.107 A 
ATOM      5  C   UNL d   1     -40.056  14.627  21.264  0.00  0.00     0.037 A 
ATOM      6  C   UNL d   1     -39.429  14.393  21.747  0.00  0.00     0.095 A 
ATOM      7  C   UNL d   1     -38.818  14.924  21.917  0.00  0.00     0.024 A 
ATOM      8  C   UNL d   1     -38.837  15.687  21.605  0.00  0.00     0.003 A 
ATOM      9  C   UNL d   1     -39.463  15.921  21.122  0.00  0.00     0.013 A 
BRANCH   6  10
ATOM     10  O   UNL d   1     -39.411  13.632  22.059  0.00  0.00    -0.328 OA
ATOM     11  C   UNL d   1     -38.694  13.297  22.292  0.00  0.00     0.181 C 
ENDBRANCH   6  10
ENDBRANCH   1   4
BRANCH   1  12
ATOM     12  N   UNL d   1     -40.288  15.351  19.809  0.00  0.00    -0.157 NA
BRANCH  12  13
ATOM     13  C   UNL d   1     -40.626  15.428  19.053  0.00  0.00     0.112 C 
BRANCH  13  14
ATOM     14  C   UNL d   1     -40.224  15.144  18.392  0.00  0.00     0.022 A 
ATOM     15  C   UNL d   1     -39.749  15.656  17.953  0.00  0.00     0.028 A 
ATOM     16  C   UNL d   1     -39.346  15.371  17.292  0.00  0.00     0.119 A 
ATOM     17  O   UNL d   1     -38.843  15.742  16.759  0.00  0.00    -0.300 OA
ATOM     18  C   UNL d   1     -39.414  14.581  17.065  0.00  0.00     0.119 A 
ATOM     19  C   UNL d   1     -38.597  15.185  16.200  0.00  0.00     0.304 A 
ATOM     20  O   UNL d   1     -38.960  14.466  16.402  0.00  0.00    -0.300 OA
ATOM     21  C   UNL d   1     -39.895  14.072  17.512  0.00  0.00     0.026 A 
ATOM     22  C   UNL d   1     -40.300  14.351  18.175  0.00  0.00     0.004 A 
ENDBRANCH  13  14
ENDBRANCH  12  13
ENDBRANCH   1  12
TORSDOF 5
ENDMDL
MODEL 7
REMARK VINA RESULT:      -5.3      9.388     10.386
REMARK  5 active torsions:
REMARK  status: ('A' for Active; 'I' for Inactive)
REMARK    1  A    between atoms: C_2  and  S_1 
REMARK    2  A    between atoms: N_3  and  S_1 
REMARK    3  A    between atoms: C_14  and  N_3 
REMARK    4  A    between atoms: C_15  and  C_14 
REMARK    5  A    between atoms: O_18  and  C_16 
ROOT
ATOM      1  S   UNL d   1     -38.610  13.962  19.765  0.00  0.00     0.285 S 
ATOM      2  O   UNL d   1     -38.654  13.315  19.254  0.00  0.00    -0.198 OA
ATOM      3  O   UNL d   1     -38.238  13.495  20.323  0.00  0.00    -0.198 OA
ENDROOT
BRANCH   1   4
ATOM      4  C   UNL d   1     -38.569  14.613  20.270  0.00  0.00     0.107 A 
ATOM      5  C   UNL d   1     -39.106  14.693  20.893  0.00  0.00     0.037 A 
ATOM      6  C   UNL d   1     -39.060  15.347  21.394  0.00  0.00     0.095 A 
ATOM      7  C   UNL d   1     -38.476  15.920  21.272  0.00  0.00     0.024 A 
ATOM      8  C   UNL d   1     -37.942  15.838  20.650  0.00  0.00     0.003 A 
ATOM      9  C   UNL d   1     -37.989  15.184  20.149  0.00  0.00     0.013 A 
BRANCH   6  10
ATOM     10  O   UNL d   1     -39.593  15.430  22.016  0.00  0.00    -0.328 OA
ATOM     11  C   UNL d   1     -39.413  15.922  22.653  0.00  0.00     0.181 C 
ENDBRANCH   6  10
ENDBRANCH   1   4
BRANCH   1  12
ATOM     12  N   UNL d   1     -38.985  14.429  19.198  0.00  0.00    -0.157 NA
BRANCH  12  13
ATOM     13  C   UNL d   1     -39.252  14.084  18.490  0.00  0.00     0.112 C 
BRANCH  13  14
ATOM     14  C   UNL d   1     -39.620  14.550  17.918  0.00  0.00     0.022 A 
ATOM     15  C   UNL d   1     -40.438  14.649  17.938  0.00  0.00     0.028 A 
ATOM     16  C   UNL d   1     -40.806  15.115  17.366  0.00  0.00     0.119 A 
ATOM     17  O   UNL d   1     -41.595  15.311  17.247  0.00  0.00    -0.300 OA
ATOM     18  C   UNL d   1     -40.364  15.482  16.774  0.00  0.00     0.119 A 
ATOM     19  C   UNL d   1     -41.646  15.799  16.582  0.00  0.00     0.304 A 
ATOM     20  O   UNL d   1     -40.873  15.899  16.297  0.00  0.00    -0.300 OA
ATOM     21  C   UNL d   1     -39.541  15.378  16.761  0.00  0.00     0.026 A 
ATOM     22  C   UNL d   1     -39.167  14.912  17.331  0.00  0.00     0.004 A 
ENDBRANCH  13  14
ENDBRANCH  12  13
ENDBRANCH   1  12
TORSDOF 5
ENDMDL
MODEL 8
REMARK VINA RESULT:      -5.2      9.175     10.062
REMARK  5 active torsions:
REMARK  status: ('A' for Active; 'I' for Inactive)
REMARK    1  A    between atoms: C_2  and  S_1 
REMARK    2  A    between atoms: N_3  and  S_1 
REMARK    3  A    between atoms: C_14  and  N_3 
REMARK    4  A    between atoms: C_15  and  C_14 
REMARK    5  A    between atoms: O_18  and  C_16 
ROOT
ATOM      1  S   UNL d   1     -38.719  15.598  18.533  0.00  0.00     0.285 S 
ATOM      2  O   UNL d   1     -38.114  15.921  18.992  0.00  0.00    -0.198 OA
ATOM      3  O   UNL d   1     -38.383  15.922  17.862  0.00  0.00    -0.198 OA
ENDROOT
BRANCH   1   4
ATOM      4  C   UNL d   1     -39.327  15.272  18.080  0.00  0.00     0.107 A 
ATOM      5  C   UNL d   1     -40.021  15.699  17.942  0.00  0.00     0.037 A 
ATOM      6  C   UNL d   1     -40.625  15.366  17.489  0.00  0.00     0.095 A 
ATOM      7  C   UNL d   1     -40.534  14.607  17.173  0.00  0.00     0.024 A 
ATOM      8  C   UNL d   1     -39.841  14.184  17.312  0.00  0.00     0.003 A 
ATOM      9  C   UNL d   1     -39.237  14.516  17.766  0.00  0.00     0.013 A 
BRANCH   6  10
ATOM     10  O   UNL d   1     -41.318  15.788  17.350  0.00  0.00    -0.328 OA
ATOM     11  C   UNL d   1     -41.573  15.921  16.577  0.00  0.00     0.181 C 
ENDBRANCH   6  10
ENDBRANCH   1   4
BRANCH   1  12
ATOM     12  N   UNL d   1     -39.055  15.272  19.212  0.00  0.00    -0.157 NA
BRANCH  12  13
ATOM     13  C   UNL d   1     -38.777  15.505  19.961  0.00  0.00     0.112 C 
BRANCH  13  14
ATOM     14  C   UNL d   1     -38.949  15.046  20.624  0.00  0.00     0.022 A 
ATOM     15  C   UNL d   1     -38.405  14.482  20.881  0.00  0.00     0.028 A 
ATOM     16  C   UNL d   1     -38.578  14.024  21.545  0.00  0.00     0.119 A 
ATOM     17  O   UNL d   1     -38.153  13.431  21.923  0.00  0.00    -0.300 OA
ATOM     18  C   UNL d   1     -39.287  14.124  21.953  0.00  0.00     0.119 A 
ATOM     19  C   UNL d   1     -38.596  13.161  22.567  0.00  0.00     0.304 A 
ATOM     20  O   UNL d   1     -39.300  13.601  22.574  0.00  0.00    -0.300 OA
ATOM     21  C   UNL d   1     -39.829  14.694  21.688  0.00  0.00     0.026 A 
ATOM     22  C   UNL d   1     -39.663  15.156  21.024  0.00  0.00     0.004 A 
ENDBRANCH  13  14
ENDBRANCH  12  13
ENDBRANCH   1  12
TORSDOF 5
ENDMDL
