MODEL 1
REMARK VINA RESULT:      31.7      0.000      0.000
REMARK  3 active torsions:
REMARK  status: ('A' for Active; 'I' for Inactive)
REMARK    1  A    between atoms: C_13  and  C_5 
REMARK       I    between atoms: C_7  and  N_12 
REMARK    2  A    between atoms: C_10  and  C_7 
REMARK    3  A    between atoms: N_12  and  C_15 
ROOT
ATOM      1  C   UNL d   1      13.427  12.322  -3.104  0.00  0.00     0.021 A 
ATOM      2  C   UNL d   1      13.472  13.185  -4.250  0.00  0.00     0.085 A 
ATOM      3  C   UNL d   1      13.671  13.029  -3.465  0.00  0.00     0.021 A 
ATOM      4  C   UNL d   1      12.985  11.779  -3.535  0.00  0.00     0.002 A 
ATOM      5  C   UNL d   1      12.783  11.925  -4.314  0.00  0.00     0.002 A 
ATOM      6  C   UNL d   1      13.027  12.633  -4.675  0.00  0.00     0.019 A 
ENDROOT
BRANCH   1   7
ATOM      7  C   UNL d   1      13.633  12.178  -2.318  0.00  0.00     0.102 A 
ATOM      8  N   UNL d   1      14.423  12.298  -2.086  0.00  0.00    -0.162 NA
ATOM      9  N   UNL d   1      14.639  12.155  -1.293  0.00  0.00    -0.189 N 
ATOM     10  C   UNL d   1      14.073  11.894  -0.742  0.00  0.00     0.187 A 
ATOM     11  C   UNL d   1      15.355  12.222  -0.909  0.00  0.00     0.224 A 
ATOM     12  N   UNL d   1      14.457  11.809  -0.038  0.00  0.00    -0.127 NA
ATOM     13  C   UNL d   1      13.285  11.779  -0.997  0.00  0.00     0.042 A 
ATOM     14  N   UNL d   1      15.248  12.010  -0.132  0.00  0.00    -0.124 NA
ATOM     15  C   UNL d   1      13.071  11.922  -1.786  0.00  0.00     0.024 A 
ENDBRANCH   1   7
BRANCH   2  16
ATOM     16  N   UNL d   1      13.712  13.883  -4.607  0.00  0.00    -0.206 NA
ATOM     17  C   UNL d   1      13.374  14.596  -4.380  0.00  0.00     0.302 C 
ATOM     18  O   UNL d   1      12.792  14.617  -3.793  0.00  0.00    -0.263 OA
BRANCH  17  19
ATOM     19  C   UNL d   1      13.616  15.296  -4.738  0.00  0.00     0.158 A 
ATOM     20  O   UNL d   1      13.444  15.536  -5.504  0.00  0.00    -0.300 OA
ATOM     21  C   UNL d   1      13.795  16.269  -5.631  0.00  0.00     0.123 A 
ATOM     22  C   UNL d   1      14.191  16.488  -4.934  0.00  0.00     0.029 A 
ATOM     23  C   UNL d   1      14.080  15.889  -4.385  0.00  0.00     0.032 A 
ENDBRANCH  17  19
ENDBRANCH   2  16
TORSDOF 3
ENDMDL
