MODEL 1
REMARK VINA RESULT:      -3.9      0.000      0.000
REMARK  7 active torsions:
REMARK  status: ('A' for Active; 'I' for Inactive)
REMARK    1  A    between atoms: C_2  and  S_1 
REMARK    2  A    between atoms: N_3  and  S_1 
REMARK    3  A    between atoms: C_16  and  N_3 
REMARK    4  A    between atoms: C_4  and  C_8 
REMARK       I    between atoms: N_5  and  C_4 
REMARK    5  A    between atoms: C_17  and  N_5 
REMARK    6  A    between atoms: C_20  and  C_16 
REMARK    7  A    between atoms: C_18  and  C_17 
ROOT
ATOM      1  C   UNL d   1      58.446  -0.653  29.726  0.00  0.00     0.058 A 
ATOM      2  C   UNL d   1      57.913  -1.117  30.154  0.00  0.00     0.005 A 
ATOM      3  C   UNL d   1      58.492   0.157  29.874  0.00  0.00     0.005 A 
ATOM      4  C   UNL d   1      57.475   0.036  30.876  0.00  0.00     0.020 A 
ATOM      5  C   UNL d   1      57.429  -0.774  30.728  0.00  0.00     0.002 A 
ATOM      6  C   UNL d   1      58.001   0.501  30.454  0.00  0.00     0.002 A 
ENDROOT
BRANCH   4   7
ATOM      7  C   UNL d   1      56.991   0.373  31.448  0.00  0.00     0.112 C 
BRANCH   7   8
ATOM      8  N   UNL d   1      57.251   0.424  32.224  0.00  0.00    -0.157 NA
BRANCH   8   9
ATOM      9  S   UNL d   1      56.708   0.442  32.851  0.00  0.00     0.285 S 
ATOM     10  O   UNL d   1      56.117   0.679  32.334  0.00  0.00    -0.198 OA
ATOM     11  O   UNL d   1      57.303   0.205  33.365  0.00  0.00    -0.198 OA
BRANCH   9  12
ATOM     12  C   UNL d   1      56.174   0.457  33.481  0.00  0.00     0.105 A 
ATOM     13  C   UNL d   1      56.444   0.557  34.248  0.00  0.00     0.012 A 
ATOM     14  C   UNL d   1      55.911   0.572  34.872  0.00  0.00     0.001 A 
ATOM     15  C   UNL d   1      57.264   0.643  34.382  0.00  0.00     0.001 C 
ATOM     16  C   UNL d   1      55.097   0.486  34.732  0.00  0.00     0.000 A 
ATOM     17  C   UNL d   1      54.831   0.385  33.955  0.00  0.00     0.001 A 
ATOM     18  C   UNL d   1      55.367   0.371  33.329  0.00  0.00     0.013 A 
ATOM     19  C   UNL d   1      54.018   0.299  33.816  0.00  0.00     0.000 C 
ENDBRANCH   9  12
ENDBRANCH   8   9
ENDBRANCH   7   8
ENDBRANCH   4   7
BRANCH   1  20
ATOM     20  C   UNL d   1      58.928  -0.994  29.155  0.00  0.00     0.279 C 
ATOM     21  N   UNL d   1      59.236  -1.744  29.274  0.00  0.00    -0.205 NA
ATOM     22  O   UNL d   1      59.101  -0.577  28.461  0.00  0.00    -0.265 OA
BRANCH  21  23
ATOM     23  C   UNL d   1      59.721  -2.089  28.701  0.00  0.00     0.121 C 
BRANCH  23  24
ATOM     24  C   UNL d   1      60.051  -2.830  28.845  0.00  0.00     0.101 A 
ATOM     25  N   UNL d   1      60.805  -2.878  29.167  0.00  0.00    -0.242 NA
ATOM     26  C   UNL d   1      61.129  -3.619  29.308  0.00  0.00     0.099 A 
ATOM     27  C   UNL d   1      60.711  -4.302  29.132  0.00  0.00     0.021 A 
ATOM     28  C   UNL d   1      59.951  -4.239  28.807  0.00  0.00     0.003 A 
ATOM     29  C   UNL d   1      59.624  -3.498  28.665  0.00  0.00     0.021 A 
ENDBRANCH  23  24
ENDBRANCH  21  23
ENDBRANCH   1  20
TORSDOF 7
ENDMDL
