MODEL 1
REMARK VINA RESULT:      56.0      0.000      0.000
REMARK  4 active torsions:
REMARK  status: ('A' for Active; 'I' for Inactive)
REMARK    1  A    between atoms: C_8  and  C_1 
REMARK    2  A    between atoms: C_6  and  O_10 
REMARK       I    between atoms: N_13  and  C_6 
REMARK    3  A    between atoms: C_11  and  C_8 
REMARK    4  A    between atoms: O_10  and  C_9 
ROOT
ATOM      1  C   UNL d   1     -51.244  25.881  33.480  0.00  0.00     0.141 A 
ATOM      2  C   UNL d   1     -50.175  26.625  33.812  0.00  0.00     0.105 A 
ATOM      3  O   UNL d   1     -50.437  25.850  33.686  0.00  0.00    -0.304 OA
ATOM      4  C   UNL d   1     -50.812  27.142  33.686  0.00  0.00     0.064 A 
ATOM      5  C   UNL d   1     -51.473  26.689  33.481  0.00  0.00     0.220 A 
ATOM      6  C   UNL d   1     -49.437  26.924  34.025  0.00  0.00     0.046 A 
ATOM      7  C   UNL d   1     -49.332  27.737  34.113  0.00  0.00     0.107 A 
ATOM      8  C   UNL d   1     -50.703  27.951  33.775  0.00  0.00     0.007 A 
ATOM      9  O   UNL d   1     -52.231  26.975  33.307  0.00  0.00    -0.284 OA
ATOM     10  C   UNL d   1     -49.970  28.254  33.987  0.00  0.00     0.025 A 
ATOM     11  C   UNL d   1     -48.800  26.414  34.151  0.00  0.00     0.004 C 
ENDROOT
BRANCH   1  12
ATOM     12  C   UNL d   1     -51.731  25.238  33.306  0.00  0.00     0.053 C 
BRANCH  12  13
ATOM     13  C   UNL d   1     -51.471  24.470  33.457  0.00  0.00     0.102 A 
ATOM     14  O   UNL d   1     -51.925  23.861  33.791  0.00  0.00    -0.305 OA
ATOM     15  C   UNL d   1     -51.451  23.190  33.844  0.00  0.00     0.123 A 
ATOM     16  C   UNL d   1     -50.702  23.385  33.542  0.00  0.00     0.029 A 
ATOM     17  C   UNL d   1     -50.722  24.175  33.306  0.00  0.00     0.027 A 
ENDBRANCH  12  13
ENDBRANCH   1  12
BRANCH   7  18
ATOM     18  O   UNL d   1     -48.598  28.039  34.325  0.00  0.00    -0.259 OA
BRANCH  18  19
ATOM     19  C   UNL d   1     -48.473  28.351  35.080  0.00  0.00     0.378 C 
ATOM     20  N   UNL d   1     -47.941  28.978  35.184  0.00  0.00    -0.249 N 
ATOM     21  C   UNL d   1     -47.814  29.293  35.940  0.00  0.00     0.104 C 
ATOM     22  C   UNL d   1     -47.534  29.292  34.533  0.00  0.00     0.104 C 
ATOM     23  O   UNL d   1     -48.877  28.041  35.730  0.00  0.00    -0.237 OA
ENDBRANCH  18  19
ENDBRANCH   7  18
TORSDOF 4
ENDMDL
MODEL 2
REMARK VINA RESULT:      58.7      1.806      4.737
REMARK  4 active torsions:
REMARK  status: ('A' for Active; 'I' for Inactive)
REMARK    1  A    between atoms: C_8  and  C_1 
REMARK    2  A    between atoms: C_6  and  O_10 
REMARK       I    between atoms: N_13  and  C_6 
REMARK    3  A    between atoms: C_11  and  C_8 
REMARK    4  A    between atoms: O_10  and  C_9 
ROOT
ATOM      1  C   UNL d   1     -49.041  26.927  33.920  0.00  0.00     0.141 A 
ATOM      2  C   UNL d   1     -50.242  26.361  33.705  0.00  0.00     0.105 A 
ATOM      3  O   UNL d   1     -49.861  27.071  33.900  0.00  0.00    -0.304 OA
ATOM      4  C   UNL d   1     -49.664  25.774  33.602  0.00  0.00     0.064 A 
ATOM      5  C   UNL d   1     -48.923  26.117  33.733  0.00  0.00     0.220 A 
ATOM      6  C   UNL d   1     -51.039  26.178  33.608  0.00  0.00     0.046 A 
ATOM      7  C   UNL d   1     -51.262  25.409  33.409  0.00  0.00     0.107 A 
ATOM      8  C   UNL d   1     -49.891  25.011  33.403  0.00  0.00     0.007 A 
ATOM      9  O   UNL d   1     -48.189  25.736  33.689  0.00  0.00    -0.284 OA
ATOM     10  C   UNL d   1     -50.685  24.822  33.306  0.00  0.00     0.025 A 
ATOM     11  C   UNL d   1     -51.617  26.758  33.710  0.00  0.00     0.004 C 
ENDROOT
BRANCH   1  12
ATOM     12  C   UNL d   1     -48.451  27.478  34.091  0.00  0.00     0.053 C 
BRANCH  12  13
ATOM     13  C   UNL d   1     -48.567  28.036  34.687  0.00  0.00     0.102 A 
ATOM     14  O   UNL d   1     -48.992  27.914  35.389  0.00  0.00    -0.305 OA
ATOM     15  C   UNL d   1     -48.969  28.613  35.825  0.00  0.00     0.123 A 
ATOM     16  C   UNL d   1     -48.528  29.168  35.390  0.00  0.00     0.029 A 
ATOM     17  C   UNL d   1     -48.283  28.805  34.691  0.00  0.00     0.027 A 
ENDBRANCH  12  13
ENDBRANCH   1  12
BRANCH   7  18
ATOM     18  O   UNL d   1     -52.056  25.222  33.312  0.00  0.00    -0.259 OA
BRANCH  18  19
ATOM     19  C   UNL d   1     -52.332  24.459  33.469  0.00  0.00     0.378 C 
ATOM     20  N   UNL d   1     -53.106  24.349  33.744  0.00  0.00    -0.249 N 
ATOM     21  C   UNL d   1     -53.385  23.584  33.903  0.00  0.00     0.104 C 
ATOM     22  C   UNL d   1     -53.605  25.001  33.861  0.00  0.00     0.104 C 
ATOM     23  O   UNL d   1     -51.839  23.808  33.354  0.00  0.00    -0.237 OA
ENDBRANCH  18  19
ENDBRANCH   7  18
TORSDOF 4
ENDMDL
