MODEL 1
REMARK VINA RESULT:      -4.2      0.000      0.000
REMARK  2 active torsions:
REMARK  status: ('A' for Active; 'I' for Inactive)
REMARK    1  A    between atoms: S_2  and  N_1 
REMARK    2  A    between atoms: N_6  and  S_2 
ROOT
ATOM      1  N   UNL d   1     -41.496-123.105 -52.913  0.00  0.00    -0.199 N 
ATOM      2  C   UNL d   1     -41.729-122.694 -53.583  0.00  0.00     0.095 A 
ATOM      3  C   UNL d   1     -41.123-123.812 -53.166  0.00  0.00     0.194 A 
ATOM      4  N   UNL d   1     -41.136-123.817 -53.994  0.00  0.00    -0.223 NA
ATOM      5  C   UNL d   1     -41.509-123.130 -54.249  0.00  0.00     0.100 A 
ATOM      6  C   UNL d   1     -42.117-121.973 -53.667  0.00  0.00     0.020 A 
ATOM      7  C   UNL d   1     -41.680-122.837 -55.001  0.00  0.00     0.021 A 
ATOM      8  C   UNL d   1     -42.289-121.681 -54.418  0.00  0.00     0.002 A 
ATOM      9  C   UNL d   1     -42.069-122.114 -55.089  0.00  0.00     0.002 A 
ATOM     10  C   UNL d   1     -42.678-120.956 -54.503  0.00  0.00     0.000 C 
ATOM     11  C   UNL d   1     -42.240-121.823 -55.844  0.00  0.00     0.000 C 
ENDROOT
BRANCH   1  12
ATOM     12  S   UNL d   1     -41.606-122.873 -52.139  0.00  0.00     0.339 S 
ATOM     13  O   UNL d   1     -41.123-122.217 -52.259  0.00  0.00    -0.181 OA
ATOM     14  O   UNL d   1     -42.088-123.527 -52.015  0.00  0.00    -0.181 OA
BRANCH  12  15
ATOM     15  N   UNL d   1     -41.723-122.649 -51.356  0.00  0.00    -0.212 N 
ATOM     16  C   UNL d   1     -42.379-122.928 -50.942  0.00  0.00     0.120 A 
ATOM     17  C   UNL d   1     -42.496-122.705 -50.163  0.00  0.00     0.142 A 
ATOM     18  O   UNL d   1     -41.969-122.207 -49.790  0.00  0.00    -0.300 OA
ATOM     19  C   UNL d   1     -41.310-121.923 -50.197  0.00  0.00     0.142 A 
ATOM     20  C   UNL d   1     -41.188-122.147 -50.987  0.00  0.00     0.120 A 
ENDBRANCH  12  15
ENDBRANCH   1  12
TORSDOF 2
ENDMDL
MODEL 2
REMARK VINA RESULT:      -3.3      1.448      3.601
REMARK  2 active torsions:
REMARK  status: ('A' for Active; 'I' for Inactive)
REMARK    1  A    between atoms: S_2  and  N_1 
REMARK    2  A    between atoms: N_6  and  S_2 
ROOT
ATOM      1  N   UNL d   1     -41.710-122.951 -53.046  0.00  0.00    -0.199 N 
ATOM      2  C   UNL d   1     -41.568-122.523 -52.361  0.00  0.00     0.095 A 
ATOM      3  C   UNL d   1     -41.715-123.764 -52.840  0.00  0.00     0.194 A 
ATOM      4  N   UNL d   1     -41.575-123.815 -52.026  0.00  0.00    -0.223 NA
ATOM      5  C   UNL d   1     -41.484-123.053 -51.733  0.00  0.00     0.100 A 
ATOM      6  C   UNL d   1     -41.504-121.713 -52.234  0.00  0.00     0.020 A 
ATOM      7  C   UNL d   1     -41.336-122.763 -50.975  0.00  0.00     0.021 A 
ATOM      8  C   UNL d   1     -41.356-121.423 -51.477  0.00  0.00     0.002 A 
ATOM      9  C   UNL d   1     -41.271-121.950 -50.843  0.00  0.00     0.002 A 
ATOM     10  C   UNL d   1     -41.292-120.608 -51.349  0.00  0.00     0.000 C 
ATOM     11  C   UNL d   1     -41.123-121.662 -50.082  0.00  0.00     0.000 C 
ENDROOT
BRANCH   1  12
ATOM     12  S   UNL d   1     -41.827-122.646 -53.793  0.00  0.00     0.339 S 
ATOM     13  O   UNL d   1     -41.125-122.991 -54.052  0.00  0.00    -0.181 OA
ATOM     14  O   UNL d   1     -42.527-122.300 -53.539  0.00  0.00    -0.181 OA
BRANCH  12  15
ATOM     15  N   UNL d   1     -41.954-122.333 -54.544  0.00  0.00    -0.212 N 
ATOM     16  C   UNL d   1     -42.723-122.251 -54.829  0.00  0.00     0.120 A 
ATOM     17  C   UNL d   1     -42.850-121.939 -55.576  0.00  0.00     0.142 A 
ATOM     18  O   UNL d   1     -42.222-121.709 -56.042  0.00  0.00    -0.300 OA
ATOM     19  C   UNL d   1     -41.450-121.789 -55.765  0.00  0.00     0.142 A 
ATOM     20  C   UNL d   1     -41.317-122.104 -55.007  0.00  0.00     0.120 A 
ENDBRANCH  12  15
ENDBRANCH   1  12
TORSDOF 2
ENDMDL
MODEL 3
REMARK VINA RESULT:      -2.3      2.057      2.931
REMARK  2 active torsions:
REMARK  status: ('A' for Active; 'I' for Inactive)
REMARK    1  A    between atoms: S_2  and  N_1 
REMARK    2  A    between atoms: N_6  and  S_2 
ROOT
ATOM      1  N   UNL d   1     -41.849-123.121 -50.340  0.00  0.00    -0.199 N 
ATOM      2  C   UNL d   1     -41.657-122.517 -50.860  0.00  0.00     0.095 A 
ATOM      3  C   UNL d   1     -41.964-123.817 -50.792  0.00  0.00     0.194 A 
ATOM      4  N   UNL d   1     -41.838-123.622 -51.587  0.00  0.00    -0.223 NA
ATOM      5  C   UNL d   1     -41.650-122.823 -51.628  0.00  0.00     0.100 A 
ATOM      6  C   UNL d   1     -41.488-121.723 -50.727  0.00  0.00     0.020 A 
ATOM      7  C   UNL d   1     -41.472-122.325 -52.261  0.00  0.00     0.021 A 
ATOM      8  C   UNL d   1     -41.310-121.225 -51.360  0.00  0.00     0.002 A 
ATOM      9  C   UNL d   1     -41.301-121.528 -52.131  0.00  0.00     0.002 A 
ATOM     10  C   UNL d   1     -41.139-120.427 -51.226  0.00  0.00     0.000 C 
ATOM     11  C   UNL d   1     -41.123-121.031 -52.768  0.00  0.00     0.000 C 
ENDROOT
BRANCH   1  12
ATOM     12  S   UNL d   1     -41.917-123.060 -49.530  0.00  0.00     0.339 S 
ATOM     13  O   UNL d   1     -42.678-122.758 -49.608  0.00  0.00    -0.181 OA
ATOM     14  O   UNL d   1     -41.157-123.362 -49.448  0.00  0.00    -0.181 OA
BRANCH  12  15
ATOM     15  N   UNL d   1     -41.974-123.004 -48.711  0.00  0.00    -0.212 N 
ATOM     16  C   UNL d   1     -41.307-123.128 -48.242  0.00  0.00     0.120 A 
ATOM     17  C   UNL d   1     -41.364-123.071 -47.427  0.00  0.00     0.142 A 
ATOM     18  O   UNL d   1     -42.076-122.893 -47.073  0.00  0.00    -0.300 OA
ATOM     19  C   UNL d   1     -42.748-122.767 -47.533  0.00  0.00     0.142 A 
ATOM     20  C   UNL d   1     -42.694-122.823 -48.361  0.00  0.00     0.120 A 
ENDBRANCH  12  15
ENDBRANCH   1  12
TORSDOF 2
ENDMDL
