MODEL 1
REMARK VINA RESULT:      -1.8      0.000      0.000
REMARK  4 active torsions:
REMARK  status: ('A' for Active; 'I' for Inactive)
REMARK    1  A    between atoms: C_7  and  C_1 
REMARK    2  A    between atoms: C_9  and  C_3 
REMARK    3  A    between atoms: O_13  and  C_7 
REMARK    4  A    between atoms: C_18  and  O_13 
ROOT
ATOM      1  C   UNL d   1      58.368  -0.643  29.913  0.00  0.00     0.099 A 
ATOM      2  C   UNL d   1      57.943  -0.131  30.376  0.00  0.00     0.093 A 
ATOM      3  C   UNL d   1      58.259  -1.475  29.999  0.00  0.00     0.093 A 
ATOM      4  C   UNL d   1      57.298  -1.242  31.013  0.00  0.00     0.369 A 
ATOM      5  N   UNL d   1      57.394  -0.433  30.940  0.00  0.00    -0.191 NA
ATOM      6  N   UNL d   1      57.734  -1.767  30.538  0.00  0.00    -0.191 NA
ATOM      7  O   UNL d   1      56.748  -1.523  31.579  0.00  0.00    -0.242 OA
ATOM      8  C   UNL d   1      58.041   0.682  30.301  0.00  0.00     0.021 C 
ENDROOT
BRANCH   3   9
ATOM      9  C   UNL d   1      58.698  -2.004  29.522  0.00  0.00     0.018 A 
ATOM     10  C   UNL d   1      59.523  -2.098  29.657  0.00  0.00     0.002 A 
ATOM     11  C   UNL d   1      59.954  -2.617  29.189  0.00  0.00     0.000 A 
ATOM     12  C   UNL d   1      59.563  -3.045  28.582  0.00  0.00     0.000 A 
ATOM     13  C   UNL d   1      58.764  -2.946  28.459  0.00  0.00     0.000 A 
ATOM     14  C   UNL d   1      58.327  -2.420  28.934  0.00  0.00     0.002 A 
ENDBRANCH   3   9
BRANCH   1  15
ATOM     15  C   UNL d   1      58.914  -0.347  29.351  0.00  0.00     0.303 C 
ATOM     16  O   UNL d   1      58.731  -0.335  28.548  0.00  0.00    -0.259 OA
BRANCH  15  17
ATOM     17  O   UNL d   1      59.631  -0.070  29.612  0.00  0.00    -0.271 OA
BRANCH  17  18
ATOM     18  C   UNL d   1      60.031   0.506  29.175  0.00  0.00     0.126 C 
ATOM     19  C   UNL d   1      60.827   0.612  29.274  0.00  0.00     0.029 C 
ENDBRANCH  17  18
ENDBRANCH  15  17
ENDBRANCH   1  15
TORSDOF 4
ENDMDL
MODEL 2
REMARK VINA RESULT:      -1.4      0.957      2.479
REMARK  4 active torsions:
REMARK  status: ('A' for Active; 'I' for Inactive)
REMARK    1  A    between atoms: C_7  and  C_1 
REMARK    2  A    between atoms: C_9  and  C_3 
REMARK    3  A    between atoms: O_13  and  C_7 
REMARK    4  A    between atoms: C_18  and  O_13 
ROOT
ATOM      1  C   UNL d   1      58.669  -0.965  29.813  0.00  0.00     0.099 A 
ATOM      2  C   UNL d   1      57.981  -1.252  30.133  0.00  0.00     0.093 A 
ATOM      3  C   UNL d   1      58.953  -0.204  30.043  0.00  0.00     0.093 A 
ATOM      4  C   UNL d   1      57.839  -0.053  30.907  0.00  0.00     0.369 A 
ATOM      5  N   UNL d   1      57.553  -0.789  30.693  0.00  0.00    -0.191 NA
ATOM      6  N   UNL d   1      58.545   0.241  30.579  0.00  0.00    -0.191 NA
ATOM      7  O   UNL d   1      57.401   0.392  31.465  0.00  0.00    -0.242 OA
ATOM      8  C   UNL d   1      57.695  -1.992  29.916  0.00  0.00     0.021 C 
ENDROOT
BRANCH   3   9
ATOM      9  C   UNL d   1      59.662   0.092  29.714  0.00  0.00     0.018 A 
ATOM     10  C   UNL d   1      60.368   0.081  30.171  0.00  0.00     0.002 A 
ATOM     11  C   UNL d   1      61.064   0.372  29.848  0.00  0.00     0.000 A 
ATOM     12  C   UNL d   1      61.059   0.676  29.065  0.00  0.00     0.000 A 
ATOM     13  C   UNL d   1      60.370   0.682  28.632  0.00  0.00     0.000 A 
ATOM     14  C   UNL d   1      59.665   0.387  28.960  0.00  0.00     0.002 A 
ENDBRANCH   3   9
BRANCH   1  15
ATOM     15  C   UNL d   1      59.096  -1.422  29.257  0.00  0.00     0.303 C 
ATOM     16  O   UNL d   1      59.086  -1.231  28.455  0.00  0.00    -0.259 OA
BRANCH  15  17
ATOM     17  O   UNL d   1      59.523  -2.059  29.521  0.00  0.00    -0.271 OA
BRANCH  17  18
ATOM     18  C   UNL d   1      59.642  -2.708  29.023  0.00  0.00     0.126 C 
ATOM     19  C   UNL d   1      60.266  -3.207  29.145  0.00  0.00     0.029 C 
ENDBRANCH  17  18
ENDBRANCH  15  17
ENDBRANCH   1  15
TORSDOF 4
ENDMDL
MODEL 3
REMARK VINA RESULT:      -1.1      1.342      2.463
REMARK  4 active torsions:
REMARK  status: ('A' for Active; 'I' for Inactive)
REMARK    1  A    between atoms: C_7  and  C_1 
REMARK    2  A    between atoms: C_9  and  C_3 
REMARK    3  A    between atoms: O_13  and  C_7 
REMARK    4  A    between atoms: C_18  and  O_13 
ROOT
ATOM      1  C   UNL d   1      59.021  -0.584  29.513  0.00  0.00     0.099 A 
ATOM      2  C   UNL d   1      59.120   0.217  29.594  0.00  0.00     0.093 A 
ATOM      3  C   UNL d   1      59.636  -1.051  29.173  0.00  0.00     0.093 A 
ATOM      4  C   UNL d   1      60.425   0.114  29.009  0.00  0.00     0.369 A 
ATOM      5  N   UNL d   1      59.838   0.578  29.337  0.00  0.00    -0.191 NA
ATOM      6  N   UNL d   1      60.324  -0.707  28.926  0.00  0.00    -0.191 NA
ATOM      7  O   UNL d   1      61.131   0.491  28.759  0.00  0.00    -0.242 OA
ATOM      8  C   UNL d   1      58.528   0.681  29.925  0.00  0.00     0.021 C 
ENDROOT
BRANCH   3   9
ATOM      9  C   UNL d   1      59.534  -1.877  29.089  0.00  0.00     0.018 A 
ATOM     10  C   UNL d   1      59.998  -2.401  29.555  0.00  0.00     0.002 A 
ATOM     11  C   UNL d   1      59.897  -3.212  29.473  0.00  0.00     0.000 A 
ATOM     12  C   UNL d   1      59.332  -3.504  28.925  0.00  0.00     0.000 A 
ATOM     13  C   UNL d   1      58.888  -2.987  28.480  0.00  0.00     0.000 A 
ATOM     14  C   UNL d   1      58.990  -2.165  28.563  0.00  0.00     0.002 A 
ENDBRANCH   3   9
BRANCH   1  15
ATOM     15  C   UNL d   1      58.310  -0.947  29.768  0.00  0.00     0.303 C 
ATOM     16  O   UNL d   1      57.751  -1.210  29.223  0.00  0.00    -0.259 OA
BRANCH  15  17
ATOM     17  O   UNL d   1      58.180  -1.035  30.563  0.00  0.00    -0.271 OA
BRANCH  17  18
ATOM     18  C   UNL d   1      57.439  -0.853  30.880  0.00  0.00     0.126 C 
ATOM     19  C   UNL d   1      57.234  -1.118  31.616  0.00  0.00     0.029 C 
ENDBRANCH  17  18
ENDBRANCH  15  17
ENDBRANCH   1  15
TORSDOF 4
ENDMDL
MODEL 4
REMARK VINA RESULT:      -0.4      1.439      2.929
REMARK  4 active torsions:
REMARK  status: ('A' for Active; 'I' for Inactive)
REMARK    1  A    between atoms: C_7  and  C_1 
REMARK    2  A    between atoms: C_9  and  C_3 
REMARK    3  A    between atoms: O_13  and  C_7 
REMARK    4  A    between atoms: C_18  and  O_13 
ROOT
ATOM      1  C   UNL d   1      59.075  -1.529  29.234  0.00  0.00     0.099 A 
ATOM      2  C   UNL d   1      58.687  -2.241  29.216  0.00  0.00     0.093 A 
ATOM      3  C   UNL d   1      59.904  -1.498  29.076  0.00  0.00     0.093 A 
ATOM      4  C   UNL d   1      59.916  -2.903  28.888  0.00  0.00     0.369 A 
ATOM      5  N   UNL d   1      59.114  -2.947  29.039  0.00  0.00    -0.191 NA
ATOM      6  N   UNL d   1      60.314  -2.173  28.907  0.00  0.00    -0.191 NA
ATOM      7  O   UNL d   1      60.323  -3.615  28.715  0.00  0.00    -0.242 OA
ATOM      8  C   UNL d   1      57.880  -2.282  29.368  0.00  0.00     0.021 C 
ENDROOT
BRANCH   3   9
ATOM      9  C   UNL d   1      60.304  -0.765  29.095  0.00  0.00     0.018 A 
ATOM     10  C   UNL d   1      60.740  -0.547  29.780  0.00  0.00     0.002 A 
ATOM     11  C   UNL d   1      61.133   0.173  29.799  0.00  0.00     0.000 A 
ATOM     12  C   UNL d   1      61.092   0.682  29.131  0.00  0.00     0.000 A 
ATOM     13  C   UNL d   1      60.667   0.461  28.474  0.00  0.00     0.000 A 
ATOM     14  C   UNL d   1      60.269  -0.269  28.455  0.00  0.00     0.002 A 
ENDBRANCH   3   9
BRANCH   1  15
ATOM     15  C   UNL d   1      58.655  -0.826  29.409  0.00  0.00     0.303 C 
ATOM     16  O   UNL d   1      58.451  -0.295  28.813  0.00  0.00    -0.259 OA
BRANCH  15  17
ATOM     17  O   UNL d   1      58.450  -0.675  30.179  0.00  0.00    -0.271 OA
BRANCH  17  18
ATOM     18  C   UNL d   1      57.794  -0.201  30.344  0.00  0.00     0.126 C 
ATOM     19  C   UNL d   1      57.794   0.287  30.989  0.00  0.00     0.029 C 
ENDBRANCH  17  18
ENDBRANCH  15  17
ENDBRANCH   1  15
TORSDOF 4
ENDMDL
MODEL 5
REMARK VINA RESULT:       0.7      3.676      5.138
REMARK  4 active torsions:
REMARK  status: ('A' for Active; 'I' for Inactive)
REMARK    1  A    between atoms: C_7  and  C_1 
REMARK    2  A    between atoms: C_9  and  C_3 
REMARK    3  A    between atoms: O_13  and  C_7 
REMARK    4  A    between atoms: C_18  and  O_13 
ROOT
ATOM      1  C   UNL d   1      55.838   0.273  34.169  0.00  0.00     0.099 A 
ATOM      2  C   UNL d   1      55.382   0.500  34.799  0.00  0.00     0.093 A 
ATOM      3  C   UNL d   1      55.485   0.175  33.408  0.00  0.00     0.093 A 
ATOM      4  C   UNL d   1      54.228   0.540  33.950  0.00  0.00     0.369 A 
ATOM      5  N   UNL d   1      54.557   0.638  34.692  0.00  0.00    -0.191 NA
ATOM      6  N   UNL d   1      54.696   0.306  33.303  0.00  0.00    -0.191 NA
ATOM      7  O   UNL d   1      53.406   0.681  33.863  0.00  0.00    -0.242 OA
ATOM      8  C   UNL d   1      55.716   0.599  35.544  0.00  0.00     0.021 C 
ENDROOT
BRANCH   3   9
ATOM      9  C   UNL d   1      55.955  -0.060  32.758  0.00  0.00     0.018 A 
ATOM     10  C   UNL d   1      56.054  -0.879  32.591  0.00  0.00     0.002 A 
ATOM     11  C   UNL d   1      56.515  -1.110  31.953  0.00  0.00     0.000 A 
ATOM     12  C   UNL d   1      56.882  -0.523  31.477  0.00  0.00     0.000 A 
ATOM     13  C   UNL d   1      56.781   0.266  31.648  0.00  0.00     0.000 A 
ATOM     14  C   UNL d   1      56.313   0.500  32.295  0.00  0.00     0.002 A 
ENDBRANCH   3   9
BRANCH   1  15
ATOM     15  C   UNL d   1      56.658   0.135  34.272  0.00  0.00     0.303 C 
ATOM     16  O   UNL d   1      57.015  -0.543  33.967  0.00  0.00    -0.259 OA
BRANCH  15  17
ATOM     17  O   UNL d   1      57.098   0.682  34.678  0.00  0.00    -0.271 OA
BRANCH  17  18
ATOM     18  C   UNL d   1      57.755   0.437  35.115  0.00  0.00     0.126 C 
ATOM     19  C   UNL d   1      58.500   0.655  34.887  0.00  0.00     0.029 C 
ENDBRANCH  17  18
ENDBRANCH  15  17
ENDBRANCH   1  15
TORSDOF 4
ENDMDL
