MODEL 1
REMARK VINA RESULT:      10.1      0.000      0.000
REMARK  3 active torsions:
REMARK  status: ('A' for Active; 'I' for Inactive)
REMARK    1  A    between atoms: C_2  and  C_3 
REMARK    2  A    between atoms: C_5  and  C_2 
REMARK    3  A    between atoms: C_3  and  C_6 
ROOT
ATOM      1  N   UNL d   1      46.262 -15.733  44.527  0.00  0.00    -0.246 NA
ATOM      2  C   UNL d   1      45.990 -14.957  44.588  0.00  0.00     0.081 A 
ATOM      3  C   UNL d   1      45.726 -16.359  44.689  0.00  0.00     0.081 A 
ATOM      4  C   UNL d   1      45.198 -14.806  44.805  0.00  0.00     0.018 A 
ATOM      5  C   UNL d   1      44.702 -15.434  44.955  0.00  0.00     0.003 A 
ATOM      6  C   UNL d   1      44.973 -16.214  44.895  0.00  0.00     0.019 A 
ATOM      7  C   UNL d   1      46.505 -14.327  44.432  0.00  0.00     0.019 A 
ATOM      8  C   UNL d   1      44.945 -14.028  44.859  0.00  0.00     0.002 A 
ATOM      9  C   UNL d   1      46.212 -13.553  44.498  0.00  0.00     0.002 A 
ATOM     10  C   UNL d   1      45.459 -13.408  44.704  0.00  0.00     0.000 A 
ENDROOT
BRANCH   3  11
ATOM     11  C   UNL d   1      45.970 -17.155  44.636  0.00  0.00     0.019 C 
BRANCH  11  12
ATOM     12  C   UNL d   1      46.150 -17.495  43.916  0.00  0.00     0.005 C 
BRANCH  12  13
ATOM     13  C   UNL d   1      46.317 -18.301  43.875  0.00  0.00     0.039 A 
ATOM     14  C   UNL d   1      46.475 -18.648  43.158  0.00  0.00     0.196 A 
ATOM     15  O   UNL d   1      46.474 -18.203  42.436  0.00  0.00    -0.287 OA
ATOM     16  C   UNL d   1      46.642 -19.455  43.116  0.00  0.00     0.042 A 
ATOM     17  C   UNL d   1      46.647 -19.903  43.817  0.00  0.00     0.003 A 
ATOM     18  C   UNL d   1      46.495 -19.571  44.512  0.00  0.00     0.000 A 
ATOM     19  C   UNL d   1      46.327 -18.764  44.554  0.00  0.00     0.003 A 
ENDBRANCH  12  13
ENDBRANCH  11  12
ENDBRANCH   3  11
TORSDOF 3
ENDMDL
MODEL 2
REMARK VINA RESULT:      10.5      1.235      4.462
REMARK  3 active torsions:
REMARK  status: ('A' for Active; 'I' for Inactive)
REMARK    1  A    between atoms: C_2  and  C_3 
REMARK    2  A    between atoms: C_5  and  C_2 
REMARK    3  A    between atoms: C_3  and  C_6 
ROOT
ATOM      1  N   UNL d   1      46.291 -17.777  43.540  0.00  0.00    -0.246 NA
ATOM      2  C   UNL d   1      46.312 -18.588  43.397  0.00  0.00     0.081 A 
ATOM      3  C   UNL d   1      46.260 -17.511  44.335  0.00  0.00     0.081 A 
ATOM      4  C   UNL d   1      46.302 -19.128  44.034  0.00  0.00     0.018 A 
ATOM      5  C   UNL d   1      46.272 -18.840  44.795  0.00  0.00     0.003 A 
ATOM      6  C   UNL d   1      46.250 -18.024  44.941  0.00  0.00     0.019 A 
ATOM      7  C   UNL d   1      46.343 -18.868  42.617  0.00  0.00     0.019 A 
ATOM      8  C   UNL d   1      46.324 -19.931  43.872  0.00  0.00     0.002 A 
ATOM      9  C   UNL d   1      46.364 -19.689  42.493  0.00  0.00     0.002 A 
ATOM     10  C   UNL d   1      46.354 -20.202  43.099  0.00  0.00     0.000 A 
ENDROOT
BRANCH   3  11
ATOM     11  C   UNL d   1      46.237 -16.696  44.514  0.00  0.00     0.019 C 
BRANCH  11  12
ATOM     12  C   UNL d   1      45.528 -16.293  44.556  0.00  0.00     0.005 C 
BRANCH  12  13
ATOM     13  C   UNL d   1      45.529 -15.475  44.655  0.00  0.00     0.039 A 
ATOM     14  C   UNL d   1      44.842 -15.087  44.849  0.00  0.00     0.196 A 
ATOM     15  O   UNL d   1      44.109 -15.503  44.955  0.00  0.00    -0.287 OA
ATOM     16  C   UNL d   1      44.842 -14.268  44.949  0.00  0.00     0.042 A 
ATOM     17  C   UNL d   1      45.554 -13.849  44.848  0.00  0.00     0.003 A 
ATOM     18  C   UNL d   1      46.220 -14.221  44.660  0.00  0.00     0.000 A 
ATOM     19  C   UNL d   1      46.220 -15.040  44.561  0.00  0.00     0.003 A 
ENDBRANCH  12  13
ENDBRANCH  11  12
ENDBRANCH   3  11
TORSDOF 3
ENDMDL
