MODEL 1
REMARK VINA RESULT:       1.4      0.000      0.000
REMARK  7 active torsions:
REMARK  status: ('A' for Active; 'I' for Inactive)
REMARK    1  A    between atoms: C_2  and  S_1 
REMARK    2  A    between atoms: N_5  and  S_1 
REMARK    3  A    between atoms: C_3  and  C_7 
REMARK       I    between atoms: N_8  and  C_3 
REMARK    4  A    between atoms: C_16  and  N_5 
REMARK    5  A    between atoms: C_21  and  N_8 
REMARK    6  A    between atoms: C_15  and  C_16 
REMARK    7  A    between atoms: C_30  and  C_23 
ROOT
ATOM      1  C   UNL d   1      58.513  -0.123  30.936  0.00  0.00     0.133 A 
ATOM      2  C   UNL d   1      58.517  -0.125  30.124  0.00  0.00     0.020 A 
ATOM      3  C   UNL d   1      59.227  -0.014  29.717  0.00  0.00     0.059 A 
ATOM      4  C   UNL d   1      59.214  -0.012  31.357  0.00  0.00     0.152 A 
ATOM      5  C   UNL d   1      59.928   0.097  30.138  0.00  0.00     0.007 A 
ATOM      6  C   UNL d   1      59.914   0.097  30.962  0.00  0.00     0.030 A 
ATOM      7  F   UNL d   1      59.203  -0.012  32.201  0.00  0.00    -0.203 F 
ENDROOT
BRANCH   1   8
ATOM      8  S   UNL d   1      57.778  -0.238  31.347  0.00  0.00     0.288 S 
ATOM      9  O   UNL d   1      57.511   0.485  31.057  0.00  0.00    -0.198 OA
ATOM     10  O   UNL d   1      58.072  -0.971  31.629  0.00  0.00    -0.198 OA
BRANCH   8  11
ATOM     11  N   UNL d   1      57.084  -0.366  31.745  0.00  0.00    -0.155 NA
BRANCH  11  12
ATOM     12  C   UNL d   1      56.525   0.237  31.831  0.00  0.00     0.139 C 
BRANCH  12  13
ATOM     13  C   UNL d   1      56.147   0.337  32.568  0.00  0.00     0.145 A 
ATOM     14  O   UNL d   1      56.560   0.241  33.271  0.00  0.00    -0.301 OA
ATOM     15  C   UNL d   1      56.174   0.344  33.995  0.00  0.00     0.123 A 
ATOM     16  C   UNL d   1      56.590   0.247  34.703  0.00  0.00     0.027 A 
ATOM     17  C   UNL d   1      55.373   0.542  34.009  0.00  0.00     0.123 A 
ATOM     18  C   UNL d   1      56.206   0.349  35.425  0.00  0.00     0.002 A 
ATOM     19  C   UNL d   1      55.403   0.547  35.442  0.00  0.00     0.002 A 
ATOM     20  C   UNL d   1      54.987   0.644  34.733  0.00  0.00     0.027 A 
ATOM     21  O   UNL d   1      54.960   0.638  33.306  0.00  0.00    -0.301 OA
ATOM     22  C   UNL d   1      55.347   0.536  32.587  0.00  0.00     0.149 A 
ENDBRANCH  12  13
ENDBRANCH  11  12
ENDBRANCH   8  11
ENDBRANCH   1   8
BRANCH   3  23
ATOM     23  C   UNL d   1      59.243  -0.014  28.884  0.00  0.00     0.279 C 
ATOM     24  N   UNL d   1      59.626  -0.618  28.471  0.00  0.00    -0.208 NA
ATOM     25  O   UNL d   1      58.875   0.591  28.473  0.00  0.00    -0.265 OA
BRANCH  24  26
ATOM     26  C   UNL d   1      59.997  -1.228  28.885  0.00  0.00     0.085 A 
ATOM     27  C   UNL d   1      59.610  -1.945  28.972  0.00  0.00     0.019 A 
ATOM     28  C   UNL d   1      59.984  -2.560  29.389  0.00  0.00     0.002 A 
ATOM     29  C   UNL d   1      60.737  -2.444  29.711  0.00  0.00     0.000 A 
ATOM     30  C   UNL d   1      61.110  -1.722  29.616  0.00  0.00     0.002 A 
ATOM     31  C   UNL d   1      60.736  -1.107  29.198  0.00  0.00     0.019 A 
BRANCH  29  32
ATOM     32  C   UNL d   1      61.109  -3.047  30.123  0.00  0.00     0.000 C 
ATOM     33  C   UNL d   1      61.112  -3.813  29.818  0.00  0.00     0.000 C 
ENDBRANCH  29  32
ENDBRANCH  24  26
ENDBRANCH   3  23
TORSDOF 7
ENDMDL
