MODEL 1
REMARK VINA RESULT:      33.4      0.000      0.000
REMARK  3 active torsions:
REMARK  status: ('A' for Active; 'I' for Inactive)
REMARK    1  A    between atoms: N_2  and  S_1 
REMARK    2  A    between atoms: C_8  and  S_1 
REMARK    3  A    between atoms: C_3  and  N_2 
ROOT
ATOM      1  C   UNL d   1     -51.195  25.881  33.350  0.00  0.00     0.094 A 
ATOM      2  C   UNL d   1     -50.481  26.314  33.421  0.00  0.00     0.021 A 
ATOM      3  C   UNL d   1     -50.563  27.097  33.443  0.00  0.00     0.040 A 
ATOM      4  C   UNL d   1     -51.250  27.518  33.404  0.00  0.00     0.196 A 
ATOM      5  C   UNL d   1     -51.920  26.245  33.306  0.00  0.00     0.023 A 
ATOM      6  C   UNL d   1     -51.968  27.083  33.333  0.00  0.00     0.044 A 
ATOM      7  O   UNL d   1     -51.284  28.391  33.433  0.00  0.00    -0.287 OA
ATOM      8  C   UNL d   1     -49.801  25.940  33.460  0.00  0.00     0.002 A 
ATOM      9  C   UNL d   1     -49.891  27.590  33.512  0.00  0.00     0.003 A 
ATOM     10  C   UNL d   1     -49.138  27.208  33.557  0.00  0.00     0.000 A 
ATOM     11  C   UNL d   1     -49.099  26.366  33.530  0.00  0.00     0.000 A 
ENDROOT
BRANCH   1  12
ATOM     12  N   UNL d   1     -51.165  25.108  33.324  0.00  0.00    -0.158 NA
BRANCH  12  13
ATOM     13  S   UNL d   1     -51.845  24.658  33.514  0.00  0.00     0.285 S 
ATOM     14  O   UNL d   1     -51.374  23.943  33.447  0.00  0.00    -0.198 OA
ATOM     15  O   UNL d   1     -52.248  25.333  33.568  0.00  0.00    -0.198 OA
BRANCH  13  16
ATOM     16  C   UNL d   1     -52.524  24.197  33.704  0.00  0.00     0.105 A 
ATOM     17  C   UNL d   1     -53.241  24.360  33.307  0.00  0.00     0.013 A 
ATOM     18  C   UNL d   1     -53.899  23.936  33.471  0.00  0.00     0.001 A 
ATOM     19  C   UNL d   1     -53.877  23.359  34.009  0.00  0.00     0.000 A 
ATOM     20  C   UNL d   1     -53.156  23.190  34.414  0.00  0.00     0.001 A 
ATOM     21  C   UNL d   1     -52.483  23.635  34.235  0.00  0.00     0.013 A 
ENDBRANCH  13  16
ENDBRANCH  12  13
ENDBRANCH   1  12
TORSDOF 3
ENDMDL
