MODEL 1
REMARK VINA RESULT:      -2.4      0.000      0.000
REMARK  5 active torsions:
REMARK  status: ('A' for Active; 'I' for Inactive)
REMARK    1  A    between atoms: C_2  and  C_1 
REMARK    2  A    between atoms: C_16  and  C_8 
REMARK    3  A    between atoms: N_15  and  C_13 
REMARK    4  A    between atoms: C_19  and  N_15 
REMARK    5  A    between atoms: C_20  and  N_15 
ROOT
ATOM      1  C   UNL d   1      32.604  19.126 -23.226  0.00  0.00     0.106 A 
ATOM      2  C   UNL d   1      33.015  19.644 -23.714  0.00  0.00     0.304 A 
ATOM      3  C   UNL d   1      32.385  19.373 -22.462  0.00  0.00     0.011 A 
ATOM      4  O   UNL d   1      33.222  20.428 -23.457  0.00  0.00    -0.273 OA
ATOM      5  C   UNL d   1      32.984  20.644 -22.680  0.00  0.00     0.105 A 
ATOM      6  C   UNL d   1      32.573  20.126 -22.191  0.00  0.00     0.023 A 
ATOM      7  C   UNL d   1      33.191  21.428 -22.423  0.00  0.00     0.042 A 
ATOM      8  C   UNL d   1      32.953  21.647 -21.641  0.00  0.00     0.066 A 
ATOM      9  O   UNL d   1      33.240  19.386 -24.503  0.00  0.00    -0.259 OA
ATOM     10  C   UNL d   1      32.354  20.372 -21.428  0.00  0.00     0.004 A 
ATOM     11  C   UNL d   1      32.543  21.129 -21.153  0.00  0.00     0.018 A 
ENDROOT
BRANCH   1  12
ATOM     12  C   UNL d   1      32.416  18.365 -23.505  0.00  0.00     0.210 A 
ATOM     13  O   UNL d   1      31.669  18.012 -23.599  0.00  0.00    -0.268 OA
ATOM     14  C   UNL d   1      31.796  17.253 -23.894  0.00  0.00     0.204 A 
ATOM     15  N   UNL d   1      32.603  17.133 -23.983  0.00  0.00    -0.121 NA
ATOM     16  N   UNL d   1      32.996  17.817 -23.745  0.00  0.00    -0.121 NA
BRANCH  14  17
ATOM     17  C   UNL d   1      31.262  16.660 -24.091  0.00  0.00     0.043 A 
ATOM     18  C   UNL d   1      31.396  16.189 -24.750  0.00  0.00     0.004 A 
ATOM     19  C   UNL d   1      30.859  15.597 -24.942  0.00  0.00     0.000 A 
ATOM     20  C   UNL d   1      30.183  15.468 -24.481  0.00  0.00     0.000 A 
ATOM     21  C   UNL d   1      30.052  15.938 -23.826  0.00  0.00     0.000 A 
ATOM     22  C   UNL d   1      30.596  16.537 -23.632  0.00  0.00     0.004 A 
ENDBRANCH  14  17
ENDBRANCH   1  12
BRANCH   8  23
ATOM     23  N   UNL d   1      33.146  22.447 -21.334  0.00  0.00    -0.304 N 
BRANCH  23  24
ATOM     24  C   UNL d   1      33.229  22.538 -20.503  0.00  0.00     0.080 C 
ATOM     25  C   UNL d   1      33.120  23.261 -20.128  0.00  0.00     0.021 C 
ENDBRANCH  23  24
BRANCH  23  26
ATOM     26  C   UNL d   1      33.240  23.082 -21.848  0.00  0.00     0.080 C 
ATOM     27  C   UNL d   1      32.620  23.635 -21.943  0.00  0.00     0.021 C 
ENDBRANCH  23  26
ENDBRANCH   8  23
TORSDOF 5
ENDMDL
MODEL 2
REMARK VINA RESULT:      -1.2      2.041      3.682
REMARK  5 active torsions:
REMARK  status: ('A' for Active; 'I' for Inactive)
REMARK    1  A    between atoms: C_2  and  C_1 
REMARK    2  A    between atoms: C_16  and  C_8 
REMARK    3  A    between atoms: N_15  and  C_13 
REMARK    4  A    between atoms: C_19  and  N_15 
REMARK    5  A    between atoms: C_20  and  N_15 
ROOT
ATOM      1  C   UNL d   1      32.709  21.739 -21.205  0.00  0.00     0.106 A 
ATOM      2  C   UNL d   1      32.257  22.422 -21.272  0.00  0.00     0.304 A 
ATOM      3  C   UNL d   1      33.037  21.537 -20.467  0.00  0.00     0.011 A 
ATOM      4  O   UNL d   1      32.115  22.929 -20.604  0.00  0.00    -0.273 OA
ATOM      5  C   UNL d   1      32.461  22.694 -19.874  0.00  0.00     0.105 A 
ATOM      6  C   UNL d   1      32.913  22.011 -19.807  0.00  0.00     0.023 A 
ATOM      7  C   UNL d   1      32.319  23.202 -19.206  0.00  0.00     0.042 A 
ATOM      8  C   UNL d   1      32.666  22.968 -18.471  0.00  0.00     0.066 A 
ATOM      9  O   UNL d   1      31.920  22.627 -22.036  0.00  0.00    -0.259 OA
ATOM     10  C   UNL d   1      33.241  21.810 -19.069  0.00  0.00     0.004 A 
ATOM     11  C   UNL d   1      33.118  22.285 -18.404  0.00  0.00     0.018 A 
ENDROOT
BRANCH   1  12
ATOM     12  C   UNL d   1      32.831  21.263 -21.876  0.00  0.00     0.210 A 
ATOM     13  O   UNL d   1      32.622  20.467 -21.998  0.00  0.00    -0.268 OA
ATOM     14  C   UNL d   1      32.870  20.266 -22.759  0.00  0.00     0.204 A 
ATOM     15  N   UNL d   1      33.226  20.920 -23.105  0.00  0.00    -0.121 NA
ATOM     16  N   UNL d   1      33.206  21.543 -22.565  0.00  0.00    -0.121 NA
BRANCH  14  17
ATOM     17  C   UNL d   1      32.810  19.558 -23.170  0.00  0.00     0.043 A 
ATOM     18  C   UNL d   1      32.571  19.559 -23.957  0.00  0.00     0.004 A 
ATOM     19  C   UNL d   1      32.512  18.848 -24.363  0.00  0.00     0.000 A 
ATOM     20  C   UNL d   1      32.689  18.128 -23.994  0.00  0.00     0.000 A 
ATOM     21  C   UNL d   1      32.927  18.130 -23.213  0.00  0.00     0.000 A 
ATOM     22  C   UNL d   1      32.987  18.850 -22.800  0.00  0.00     0.004 A 
ENDBRANCH  14  17
ENDBRANCH   1  12
BRANCH   8  23
ATOM     23  N   UNL d   1      32.546  23.462 -17.754  0.00  0.00    -0.304 N 
BRANCH  23  24
ATOM     24  C   UNL d   1      31.762  23.702 -17.571  0.00  0.00     0.080 C 
ATOM     25  C   UNL d   1      31.471  23.702 -16.803  0.00  0.00     0.021 C 
ENDBRANCH  23  24
BRANCH  23  26
ATOM     26  C   UNL d   1      33.184  23.678 -17.282  0.00  0.00     0.080 C 
ATOM     27  C   UNL d   1      33.138  23.582 -16.454  0.00  0.00     0.021 C 
ENDBRANCH  23  26
ENDBRANCH   8  23
TORSDOF 5
ENDMDL
