MODEL 1
REMARK VINA RESULT:      -9.5      0.000      0.000
REMARK  1 active torsions:
REMARK  status: ('A' for Active; 'I' for Inactive)
REMARK    1  A    between atoms: C_11  and  C_3 
ROOT
ATOM      1  C   UNL d   1      53.413  33.581  54.103  0.00  0.00     0.052 A 
ATOM      2  C   UNL d   1      53.925  32.920  54.097  0.00  0.00     0.115 A 
ATOM      3  C   UNL d   1      52.797  33.441  53.583  0.00  0.00     0.011 A 
ATOM      4  C   UNL d   1      53.592  34.253  54.611  0.00  0.00     0.139 A 
ATOM      5  N   UNL d   1      54.625  32.920  54.598  0.00  0.00    -0.217 NA
ATOM      6  S   UNL d   1      53.631  32.365  53.573  0.00  0.00    -0.067 SA
ATOM      7  C   UNL d   1      52.925  32.691  53.251  0.00  0.00     0.037 A 
ATOM      8  N   UNL d   1      54.268  34.234  55.084  0.00  0.00    -0.213 NA
ATOM      9  C   UNL d   1      54.800  33.547  55.078  0.00  0.00     0.200 A 
ATOM     10  S   UNL d   1      53.095  34.934  54.640  0.00  0.00    -0.057 SA
ENDROOT
BRANCH   3  11
ATOM     11  C   UNL d   1      52.121  33.654  53.220  0.00  0.00     0.001 A 
ATOM     12  C   UNL d   1      52.120  34.113  52.534  0.00  0.00     0.000 A 
ATOM     13  C   UNL d   1      51.408  34.329  52.164  0.00  0.00     0.000 A 
ATOM     14  C   UNL d   1      50.694  34.079  52.492  0.00  0.00     0.000 A 
ATOM     15  C   UNL d   1      50.696  33.620  53.177  0.00  0.00     0.000 A 
ATOM     16  C   UNL d   1      51.411  33.412  53.536  0.00  0.00     0.000 A 
ENDBRANCH   3  11
TORSDOF 1
ENDMDL
MODEL 2
REMARK VINA RESULT:      -8.9      1.450      3.113
REMARK  1 active torsions:
REMARK  status: ('A' for Active; 'I' for Inactive)
REMARK    1  A    between atoms: C_11  and  C_3 
ROOT
ATOM      1  C   UNL d   1      52.638  33.607  53.386  0.00  0.00     0.052 A 
ATOM      2  C   UNL d   1      52.273  33.003  52.938  0.00  0.00     0.115 A 
ATOM      3  C   UNL d   1      53.286  33.292  53.774  0.00  0.00     0.011 A 
ATOM      4  C   UNL d   1      52.309  34.403  53.375  0.00  0.00     0.139 A 
ATOM      5  N   UNL d   1      51.573  33.185  52.471  0.00  0.00    -0.217 NA
ATOM      6  S   UNL d   1      52.691  32.308  53.044  0.00  0.00    -0.067 SA
ATOM      7  C   UNL d   1      53.325  32.489  53.568  0.00  0.00     0.037 A 
ATOM      8  N   UNL d   1      51.637  34.557  52.921  0.00  0.00    -0.213 NA
ATOM      9  C   UNL d   1      51.258  33.929  52.456  0.00  0.00     0.200 A 
ATOM     10  S   UNL d   1      52.654  35.034  53.816  0.00  0.00    -0.057 SA
ENDROOT
BRANCH   3  11
ATOM     11  C   UNL d   1      53.915  33.355  54.259  0.00  0.00     0.001 A 
ATOM     12  C   UNL d   1      53.844  33.276  55.078  0.00  0.00     0.000 A 
ATOM     13  C   UNL d   1      54.508  33.343  55.573  0.00  0.00     0.000 A 
ATOM     14  C   UNL d   1      55.246  33.492  55.236  0.00  0.00     0.000 A 
ATOM     15  C   UNL d   1      55.315  33.571  54.418  0.00  0.00     0.000 A 
ATOM     16  C   UNL d   1      54.647  33.502  53.936  0.00  0.00     0.000 A 
ENDBRANCH   3  11
TORSDOF 1
ENDMDL
MODEL 3
REMARK VINA RESULT:      -8.6      1.459      2.554
REMARK  1 active torsions:
REMARK  status: ('A' for Active; 'I' for Inactive)
REMARK    1  A    between atoms: C_11  and  C_3 
ROOT
ATOM      1  C   UNL d   1      53.291  33.416  54.126  0.00  0.00     0.052 A 
ATOM      2  C   UNL d   1      53.876  33.837  54.549  0.00  0.00     0.115 A 
ATOM      3  C   UNL d   1      53.535  32.640  54.041  0.00  0.00     0.011 A 
ATOM      4  C   UNL d   1      52.579  33.825  53.865  0.00  0.00     0.139 A 
ATOM      5  N   UNL d   1      53.760  34.674  54.718  0.00  0.00    -0.217 NA
ATOM      6  S   UNL d   1      54.489  33.326  54.731  0.00  0.00    -0.067 SA
ATOM      7  C   UNL d   1      54.275  32.576  54.412  0.00  0.00     0.037 A 
ATOM      8  N   UNL d   1      52.486  34.626  54.036  0.00  0.00    -0.213 NA
ATOM      9  C   UNL d   1      53.094  35.064  54.476  0.00  0.00     0.200 A 
ATOM     10  S   UNL d   1      51.971  33.428  53.436  0.00  0.00    -0.057 SA
ENDROOT
BRANCH   3  11
ATOM     11  C   UNL d   1      53.431  31.894  53.781  0.00  0.00     0.001 A 
ATOM     12  C   UNL d   1      53.357  31.718  52.978  0.00  0.00     0.000 A 
ATOM     13  C   UNL d   1      53.249  30.936  52.719  0.00  0.00     0.000 A 
ATOM     14  C   UNL d   1      53.216  30.330  53.279  0.00  0.00     0.000 A 
ATOM     15  C   UNL d   1      53.290  30.507  54.081  0.00  0.00     0.000 A 
ATOM     16  C   UNL d   1      53.397  31.289  54.325  0.00  0.00     0.000 A 
ENDBRANCH   3  11
TORSDOF 1
ENDMDL
MODEL 4
REMARK VINA RESULT:      -8.5      2.084      3.486
REMARK  1 active torsions:
REMARK  status: ('A' for Active; 'I' for Inactive)
REMARK    1  A    between atoms: C_11  and  C_3 
ROOT
ATOM      1  C   UNL d   1      53.268  31.842  53.490  0.00  0.00     0.052 A 
ATOM      2  C   UNL d   1      52.647  32.056  52.973  0.00  0.00     0.115 A 
ATOM      3  C   UNL d   1      53.585  32.523  53.817  0.00  0.00     0.011 A 
ATOM      4  C   UNL d   1      53.467  31.011  53.594  0.00  0.00     0.139 A 
ATOM      5  N   UNL d   1      52.214  31.442  52.552  0.00  0.00    -0.217 NA
ATOM      6  S   UNL d   1      52.572  32.871  52.975  0.00  0.00    -0.067 SA
ATOM      7  C   UNL d   1      53.159  33.163  53.503  0.00  0.00     0.037 A 
ATOM      8  N   UNL d   1      53.041  30.438  53.182  0.00  0.00    -0.213 NA
ATOM      9  C   UNL d   1      52.395  30.660  52.644  0.00  0.00     0.200 A 
ATOM     10  S   UNL d   1      54.089  30.763  54.108  0.00  0.00    -0.057 SA
ENDROOT
BRANCH   3  11
ATOM     11  C   UNL d   1      54.101  32.901  54.291  0.00  0.00     0.001 A 
ATOM     12  C   UNL d   1      53.970  32.983  55.101  0.00  0.00     0.000 A 
ATOM     13  C   UNL d   1      54.517  33.380  55.586  0.00  0.00     0.000 A 
ATOM     14  C   UNL d   1      55.199  33.695  55.245  0.00  0.00     0.000 A 
ATOM     15  C   UNL d   1      55.328  33.613  54.435  0.00  0.00     0.000 A 
ATOM     16  C   UNL d   1      54.777  33.216  53.964  0.00  0.00     0.000 A 
ENDBRANCH   3  11
TORSDOF 1
ENDMDL
