MODEL 1
REMARK VINA RESULT:      14.7      0.000      0.000
REMARK  6 active torsions:
REMARK  status: ('A' for Active; 'I' for Inactive)
REMARK       I    between atoms: C_2  and  N_1 
REMARK    1  A    between atoms: C_3  and  N_1 
REMARK    2  A    between atoms: C_8  and  C_2 
REMARK    3  A    between atoms: C_4  and  C_9 
REMARK    4  A    between atoms: O_10  and  C_4 
REMARK    5  A    between atoms: O_11  and  C_5 
REMARK    6  A    between atoms: C_9  and  C_8 
ROOT
ATOM      1  N   UNL d   1      14.355  12.276  -2.450  0.00  0.00    -0.320 N 
ATOM      2  C   UNL d   1      14.634  12.407  -1.667  0.00  0.00     0.258 C 
ATOM      3  O   UNL d   1      14.955  11.788  -1.234  0.00  0.00    -0.267 OA
ATOM      4  H   UNL d   1      14.402  11.528  -2.784  0.00  0.00     0.169 HD
ENDROOT
BRANCH   1   5
ATOM      5  C   UNL d   1      14.028  12.919  -2.884  0.00  0.00     0.082 A 
ATOM      6  C   UNL d   1      13.476  12.763  -3.493  0.00  0.00     0.110 A 
ATOM      7  C   UNL d   1      13.150  13.395  -3.925  0.00  0.00     0.026 A 
ATOM      8  C   UNL d   1      13.370  14.161  -3.754  0.00  0.00     0.002 A 
ATOM      9  C   UNL d   1      13.915  14.315  -3.154  0.00  0.00     0.002 A 
ATOM     10  C   UNL d   1      14.240  13.701  -2.725  0.00  0.00     0.019 A 
BRANCH   6  11
ATOM     11  O   UNL d   1      13.257  11.979  -3.661  0.00  0.00    -0.327 OA
ATOM     12  C   UNL d   1      12.972  11.785  -4.410  0.00  0.00     0.181 C 
ENDBRANCH   6  11
ENDBRANCH   1   5
BRANCH   2  13
ATOM     13  C   UNL d   1      14.586  13.162  -1.332  0.00  0.00     0.067 C 
BRANCH  13  14
ATOM     14  C   UNL d   1      14.612  13.251  -0.513  0.00  0.00     0.072 C 
BRANCH  14  15
ATOM     15  C   UNL d   1      14.968  13.914  -0.182  0.00  0.00     0.178 C 
ATOM     16  O   UNL d   1      14.517  14.585  -0.015  0.00  0.00    -0.646 OA
BRANCH  15  17
ATOM     17  O   UNL d   1      15.774  13.913  -0.014  0.00  0.00    -0.773 OA
ATOM     18  H   UNL d   1      16.275  13.401  -0.424  0.00  0.00     0.167 HD
ENDBRANCH  15  17
ENDBRANCH  14  15
ENDBRANCH  13  14
ENDBRANCH   2  13
TORSDOF 6
ENDMDL
MODEL 2
REMARK VINA RESULT:      15.2      1.142      3.630
REMARK  6 active torsions:
REMARK  status: ('A' for Active; 'I' for Inactive)
REMARK       I    between atoms: C_2  and  N_1 
REMARK    1  A    between atoms: C_3  and  N_1 
REMARK    2  A    between atoms: C_8  and  C_2 
REMARK    3  A    between atoms: C_4  and  C_9 
REMARK    4  A    between atoms: O_10  and  C_4 
REMARK    5  A    between atoms: O_11  and  C_5 
REMARK    6  A    between atoms: C_9  and  C_8 
ROOT
ATOM      1  N   UNL d   1      14.799  12.245  -2.226  0.00  0.00    -0.320 N 
ATOM      2  C   UNL d   1      14.407  12.214  -2.970  0.00  0.00     0.258 C 
ATOM      3  O   UNL d   1      14.840  12.250  -3.667  0.00  0.00    -0.267 OA
ATOM      4  H   UNL d   1      15.616  12.312  -2.194  0.00  0.00     0.169 HD
ENDROOT
BRANCH   1   5
ATOM      5  C   UNL d   1      14.344  12.206  -1.519  0.00  0.00     0.082 A 
ATOM      6  C   UNL d   1      14.630  12.581  -0.827  0.00  0.00     0.110 A 
ATOM      7  C   UNL d   1      14.185  12.546  -0.126  0.00  0.00     0.026 A 
ATOM      8  C   UNL d   1      13.473  12.148  -0.114  0.00  0.00     0.002 A 
ATOM      9  C   UNL d   1      13.191  11.779  -0.796  0.00  0.00     0.002 A 
ATOM     10  C   UNL d   1      13.621  11.808  -1.489  0.00  0.00     0.019 A 
BRANCH   6  11
ATOM     11  O   UNL d   1      15.357  12.984  -0.847  0.00  0.00    -0.327 OA
ATOM     12  C   UNL d   1      15.515  13.569  -0.288  0.00  0.00     0.181 C 
ENDBRANCH   6  11
ENDBRANCH   1   5
BRANCH   2  13
ATOM     13  C   UNL d   1      13.583  12.146  -3.001  0.00  0.00     0.067 C 
BRANCH  13  14
ATOM     14  C   UNL d   1      13.148  12.635  -3.503  0.00  0.00     0.072 C 
BRANCH  14  15
ATOM     15  C   UNL d   1      13.124  12.480  -4.310  0.00  0.00     0.178 C 
ATOM     16  O   UNL d   1      12.771  11.788  -4.588  0.00  0.00    -0.646 OA
BRANCH  15  17
ATOM     17  O   UNL d   1      13.452  13.013  -4.845  0.00  0.00    -0.773 OA
ATOM     18  H   UNL d   1      13.308  12.921  -5.652  0.00  0.00     0.167 HD
ENDBRANCH  15  17
ENDBRANCH  14  15
ENDBRANCH  13  14
ENDBRANCH   2  13
TORSDOF 6
ENDMDL
