MODEL 1
REMARK VINA RESULT:      -3.4      0.000      0.000
REMARK  5 active torsions:
REMARK  status: ('A' for Active; 'I' for Inactive)
REMARK    1  A    between atoms: N_4  and  C_2 
REMARK    2  A    between atoms: C_11  and  C_3 
REMARK       I    between atoms: C_8  and  N_4 
REMARK    3  A    between atoms: C_14  and  C_5 
REMARK    4  A    between atoms: C_7  and  C_8 
REMARK    5  A    between atoms: C_17  and  C_14 
ROOT
ATOM      1  C   UNL d   1      32.870  21.048 -21.522  0.00  0.00     0.101 A 
ATOM      2  O   UNL d   1      32.734  20.680 -22.254  0.00  0.00    -0.302 OA
ATOM      3  C   UNL d   1      32.942  19.889 -22.181  0.00  0.00     0.158 A 
ATOM      4  C   UNL d   1      33.161  20.480 -21.005  0.00  0.00     0.027 A 
ATOM      5  C   UNL d   1      33.207  19.761 -21.405  0.00  0.00     0.032 A 
ENDROOT
BRANCH   3   6
ATOM      6  C   UNL d   1      32.894  19.317 -22.776  0.00  0.00     0.304 C 
ATOM      7  N   UNL d   1      32.536  18.591 -22.621  0.00  0.00    -0.180 NA
ATOM      8  O   UNL d   1      33.205  19.476 -23.518  0.00  0.00    -0.263 OA
BRANCH   7   9
ATOM      9  C   UNL d   1      32.488  18.020 -23.212  0.00  0.00     0.216 A 
ATOM     10  N   UNL d   1      31.826  17.852 -23.669  0.00  0.00    -0.200 NA
ATOM     11  C   UNL d   1      32.025  17.245 -24.189  0.00  0.00     0.175 A 
ATOM     12  N   UNL d   1      32.812  17.038 -24.052  0.00  0.00    -0.187 NA
ATOM     13  S   UNL d   1      33.099  17.522 -23.444  0.00  0.00     0.054 SA
BRANCH  11  14
ATOM     14  C   UNL d   1      31.528  16.900 -24.750  0.00  0.00     0.082 C 
BRANCH  14  15
ATOM     15  C   UNL d   1      30.812  16.565 -24.513  0.00  0.00     0.199 C 
ATOM     16  O   UNL d   1      30.132  17.025 -24.483  0.00  0.00    -0.286 OA
ATOM     17  C   UNL d   1      30.777  15.767 -24.306  0.00  0.00     0.045 C 
ENDBRANCH  14  15
ENDBRANCH  11  14
ENDBRANCH   7   9
ENDBRANCH   3   6
BRANCH   1  18
ATOM     18  C   UNL d   1      32.737  21.845 -21.347  0.00  0.00     0.033 A 
ATOM     19  C   UNL d   1      32.103  22.060 -20.865  0.00  0.00     0.060 A 
ATOM     20 CL   UNL d   1      31.601  21.482 -20.556  0.00  0.00    -0.082 Cl
ATOM     21  C   UNL d   1      31.967  22.851 -20.689  0.00  0.00     0.011 A 
ATOM     22  C   UNL d   1      32.470  23.437 -20.997  0.00  0.00     0.001 A 
ATOM     23  C   UNL d   1      33.101  23.224 -21.478  0.00  0.00     0.000 A 
ATOM     24  C   UNL d   1      33.239  22.431 -21.656  0.00  0.00     0.003 A 
ENDBRANCH   1  18
TORSDOF 5
ENDMDL
MODEL 2
REMARK VINA RESULT:      -2.2      1.832      5.524
REMARK  5 active torsions:
REMARK  status: ('A' for Active; 'I' for Inactive)
REMARK    1  A    between atoms: N_4  and  C_2 
REMARK    2  A    between atoms: C_11  and  C_3 
REMARK       I    between atoms: C_8  and  N_4 
REMARK    3  A    between atoms: C_14  and  C_5 
REMARK    4  A    between atoms: C_7  and  C_8 
REMARK    5  A    between atoms: C_17  and  C_14 
ROOT
ATOM      1  C   UNL d   1      30.843  16.732 -24.143  0.00  0.00     0.101 A 
ATOM      2  O   UNL d   1      31.049  17.389 -23.680  0.00  0.00    -0.302 OA
ATOM      3  C   UNL d   1      31.835  17.570 -23.836  0.00  0.00     0.158 A 
ATOM      4  C   UNL d   1      31.503  16.513 -24.580  0.00  0.00     0.027 A 
ATOM      5  C   UNL d   1      32.120  17.028 -24.395  0.00  0.00     0.032 A 
ENDROOT
BRANCH   3   6
ATOM      6  C   UNL d   1      32.268  18.186 -23.495  0.00  0.00     0.304 C 
ATOM      7  N   UNL d   1      32.016  18.966 -23.587  0.00  0.00    -0.180 NA
ATOM      8  O   UNL d   1      32.948  18.018 -23.068  0.00  0.00    -0.263 OA
BRANCH   7   9
ATOM      9  C   UNL d   1      32.445  19.581 -23.249  0.00  0.00     0.216 A 
ATOM     10  N   UNL d   1      32.484  19.761 -22.448  0.00  0.00    -0.200 NA
ATOM     11  C   UNL d   1      32.975  20.416 -22.359  0.00  0.00     0.175 A 
ATOM     12  N   UNL d   1      33.240  20.641 -23.108  0.00  0.00    -0.187 NA
ATOM     13  S   UNL d   1      32.910  20.121 -23.660  0.00  0.00     0.054 SA
BRANCH  11  14
ATOM     14  C   UNL d   1      33.171  20.787 -21.648  0.00  0.00     0.082 C 
BRANCH  14  15
ATOM     15  C   UNL d   1      32.668  21.359 -21.332  0.00  0.00     0.199 C 
ATOM     16  O   UNL d   1      32.667  22.122 -21.638  0.00  0.00    -0.286 OA
ATOM     17  C   UNL d   1      32.164  21.167 -20.707  0.00  0.00     0.045 C 
ENDBRANCH  14  15
ENDBRANCH  11  14
ENDBRANCH   7   9
ENDBRANCH   3   6
BRANCH   1  18
ATOM     18  C   UNL d   1      30.103  16.363 -24.160  0.00  0.00     0.033 A 
ATOM     19  C   UNL d   1      29.897  15.825 -23.569  0.00  0.00     0.060 A 
ATOM     20 CL   UNL d   1      30.428  15.653 -22.960  0.00  0.00    -0.082 Cl
ATOM     21  C   UNL d   1      29.163  15.457 -23.582  0.00  0.00     0.011 A 
ATOM     22  C   UNL d   1      28.625  15.626 -24.193  0.00  0.00     0.001 A 
ATOM     23  C   UNL d   1      28.828  16.161 -24.782  0.00  0.00     0.000 A 
ATOM     24  C   UNL d   1      29.565  16.532 -24.770  0.00  0.00     0.003 A 
ENDBRANCH   1  18
TORSDOF 5
ENDMDL
MODEL 3
REMARK VINA RESULT:      -1.7      2.119      5.455
REMARK  5 active torsions:
REMARK  status: ('A' for Active; 'I' for Inactive)
REMARK    1  A    between atoms: N_4  and  C_2 
REMARK    2  A    between atoms: C_11  and  C_3 
REMARK       I    between atoms: C_8  and  N_4 
REMARK    3  A    between atoms: C_14  and  C_5 
REMARK    4  A    between atoms: C_7  and  C_8 
REMARK    5  A    between atoms: C_17  and  C_14 
ROOT
ATOM      1  C   UNL d   1      32.416  18.353 -23.789  0.00  0.00     0.101 A 
ATOM      2  O   UNL d   1      32.387  18.793 -23.086  0.00  0.00    -0.302 OA
ATOM      3  C   UNL d   1      32.832  19.475 -23.196  0.00  0.00     0.158 A 
ATOM      4  C   UNL d   1      32.879  18.768 -24.327  0.00  0.00     0.027 A 
ATOM      5  C   UNL d   1      33.139  19.462 -23.966  0.00  0.00     0.032 A 
ENDROOT
BRANCH   3   6
ATOM      6  C   UNL d   1      32.954  20.071 -22.636  0.00  0.00     0.304 C 
ATOM      7  N   UNL d   1      32.787  20.855 -22.828  0.00  0.00    -0.180 NA
ATOM      8  O   UNL d   1      33.241  19.878 -21.892  0.00  0.00    -0.263 OA
BRANCH   7   9
ATOM      9  C   UNL d   1      32.908  21.450 -22.273  0.00  0.00     0.216 A 
ATOM     10  N   UNL d   1      32.752  21.400 -21.468  0.00  0.00    -0.200 NA
ATOM     11  C   UNL d   1      32.954  22.121 -21.125  0.00  0.00     0.175 A 
ATOM     12  N   UNL d   1      33.236  22.618 -21.720  0.00  0.00    -0.187 NA
ATOM     13  S   UNL d   1      33.207  22.199 -22.434  0.00  0.00     0.054 SA
BRANCH  11  14
ATOM     14  C   UNL d   1      32.888  22.317 -20.326  0.00  0.00     0.082 C 
BRANCH  14  15
ATOM     15  C   UNL d   1      32.303  22.843 -20.080  0.00  0.00     0.199 C 
ATOM     16  O   UNL d   1      31.608  22.918 -20.512  0.00  0.00    -0.286 OA
ATOM     17  C   UNL d   1      32.413  23.296 -19.398  0.00  0.00     0.045 C 
ENDBRANCH  14  15
ENDBRANCH  11  14
ENDBRANCH   7   9
ENDBRANCH   3   6
BRANCH   1  18
ATOM     18  C   UNL d   1      32.045  17.628 -23.923  0.00  0.00     0.033 A 
ATOM     19  C   UNL d   1      32.348  16.940 -23.583  0.00  0.00     0.060 A 
ATOM     20 CL   UNL d   1      33.022  16.974 -23.107  0.00  0.00    -0.082 Cl
ATOM     21  C   UNL d   1      31.981  16.216 -23.714  0.00  0.00     0.011 A 
ATOM     22  C   UNL d   1      31.302  16.176 -24.191  0.00  0.00     0.001 A 
ATOM     23  C   UNL d   1      30.999  16.860 -24.531  0.00  0.00     0.000 A 
ATOM     24  C   UNL d   1      31.366  17.587 -24.401  0.00  0.00     0.003 A 
ENDBRANCH   1  18
TORSDOF 5
ENDMDL
