MODEL 1
REMARK VINA RESULT:      63.0      0.000      0.000
REMARK  8 active torsions:
REMARK  status: ('A' for Active; 'I' for Inactive)
REMARK    1  A    between atoms: C_6  and  N_1 
REMARK    2  A    between atoms: S_10  and  C_2 
REMARK    3  A    between atoms: C_12  and  C_3 
REMARK    4  A    between atoms: C_7  and  C_8 
REMARK    5  A    between atoms: C_21  and  S_10 
REMARK    6  A    between atoms: O_15  and  C_12 
REMARK    7  A    between atoms: C_13  and  C_21 
REMARK    8  A    between atoms: C_16  and  O_15 
ROOT
ATOM      1  N   UNL d   1      14.029  16.234  -5.104  0.00  0.00    -0.268 N 
ATOM      2  C   UNL d   1      13.655  16.783  -5.657  0.00  0.00     0.198 A 
ATOM      3  C   UNL d   1      13.672  15.454  -5.217  0.00  0.00     0.196 A 
ATOM      4  N   UNL d   1      13.060  16.339  -6.117  0.00  0.00    -0.122 NA
ATOM      5  N   UNL d   1      13.079  15.518  -5.836  0.00  0.00    -0.126 NA
ENDROOT
BRANCH   3   6
ATOM      6  C   UNL d   1      13.879  14.735  -4.778  0.00  0.00     0.162 C 
BRANCH   6   7
ATOM      7  O   UNL d   1      13.250  14.236  -4.452  0.00  0.00    -0.300 OA
BRANCH   7   8
ATOM      8  C   UNL d   1      13.162  13.417  -4.413  0.00  0.00     0.118 A 
ATOM      9  C   UNL d   1      13.381  13.019  -3.726  0.00  0.00     0.104 A 
ATOM     10  N   UNL d   1      13.686  13.436  -3.082  0.00  0.00    -0.242 NA
ATOM     11  C   UNL d   1      13.294  12.193  -3.683  0.00  0.00     0.020 A 
ATOM     12  C   UNL d   1      13.902  13.025  -2.398  0.00  0.00     0.099 A 
ATOM     13  C   UNL d   1      13.814  12.214  -2.363  0.00  0.00     0.021 A 
ATOM     14  C   UNL d   1      13.512  11.802  -3.001  0.00  0.00     0.003 A 
ATOM     15  C   UNL d   1      12.992  11.781  -4.320  0.00  0.00     0.002 A 
ATOM     16  C   UNL d   1      12.773  12.179  -5.007  0.00  0.00     0.002 A 
ATOM     17  C   UNL d   1      12.860  13.009  -5.052  0.00  0.00     0.026 A 
ENDBRANCH   7   8
ENDBRANCH   6   7
ENDBRANCH   3   6
BRANCH   1  18
ATOM     18  C   UNL d   1      14.620  16.420  -4.565  0.00  0.00     0.067 A 
ATOM     19  C   UNL d   1      14.437  16.508  -3.774  0.00  0.00     0.021 A 
ATOM     20  C   UNL d   1      15.018  16.692  -3.233  0.00  0.00     0.073 A 
ATOM     21  C   UNL d   1      15.801  16.791  -3.487  0.00  0.00     0.004 A 
ATOM     22  C   UNL d   1      15.982  16.701  -4.288  0.00  0.00     0.001 A 
ATOM     23  C   UNL d   1      15.398  16.517  -4.820  0.00  0.00     0.018 A 
BRANCH  20  24
ATOM     24  C   UNL d   1      14.830  16.782  -2.425  0.00  0.00     0.419 C 
ATOM     25  F   UNL d   1      14.658  16.867  -1.684  0.00  0.00    -0.166 F 
ATOM     26  F   UNL d   1      14.462  16.213  -1.866  0.00  0.00    -0.166 F 
ATOM     27  F   UNL d   1      14.948  17.480  -1.901  0.00  0.00    -0.166 F 
ENDBRANCH  20  24
ENDBRANCH   1  18
BRANCH   2  28
ATOM     28  S   UNL d   1      13.837  17.619  -5.739  0.00  0.00    -0.064 SA
BRANCH  28  29
ATOM     29  C   UNL d   1      13.251  18.171  -6.058  0.00  0.00     0.162 C 
BRANCH  29  30
ATOM     30  C   UNL d   1      13.409  19.016  -6.079  0.00  0.00     0.197 C 
ATOM     31  O   UNL d   1      12.797  19.563  -6.359  0.00  0.00    -0.647 OA
ATOM     32  O   UNL d   1      14.174  19.318  -5.823  0.00  0.00    -0.647 OA
ENDBRANCH  29  30
ENDBRANCH  28  29
ENDBRANCH   2  28
TORSDOF 8
ENDMDL
MODEL 2
REMARK VINA RESULT:      63.2      2.732      5.553
REMARK  8 active torsions:
REMARK  status: ('A' for Active; 'I' for Inactive)
REMARK    1  A    between atoms: C_6  and  N_1 
REMARK    2  A    between atoms: S_10  and  C_2 
REMARK    3  A    between atoms: C_12  and  C_3 
REMARK    4  A    between atoms: C_7  and  C_8 
REMARK    5  A    between atoms: C_21  and  S_10 
REMARK    6  A    between atoms: O_15  and  C_12 
REMARK    7  A    between atoms: C_13  and  C_21 
REMARK    8  A    between atoms: C_16  and  O_15 
ROOT
ATOM      1  N   UNL d   1      14.026  13.646  -2.996  0.00  0.00    -0.268 N 
ATOM      2  C   UNL d   1      14.377  13.614  -2.207  0.00  0.00     0.198 A 
ATOM      3  C   UNL d   1      14.131  14.448  -3.305  0.00  0.00     0.196 A 
ATOM      4  N   UNL d   1      14.702  14.404  -2.024  0.00  0.00    -0.122 NA
ATOM      5  N   UNL d   1      14.544  14.911  -2.710  0.00  0.00    -0.126 NA
ENDROOT
BRANCH   3   6
ATOM      6  C   UNL d   1      13.864  14.731  -4.080  0.00  0.00     0.162 C 
BRANCH   6   7
ATOM      7  O   UNL d   1      14.344  15.306  -4.516  0.00  0.00    -0.300 OA
BRANCH   7   8
ATOM      8  C   UNL d   1      14.158  15.828  -5.126  0.00  0.00     0.118 A 
ATOM      9  C   UNL d   1      14.475  16.587  -5.120  0.00  0.00     0.104 A 
ATOM     10  N   UNL d   1      14.976  16.825  -4.508  0.00  0.00    -0.242 NA
ATOM     11  C   UNL d   1      14.290  17.116  -5.734  0.00  0.00     0.020 A 
ATOM     12  C   UNL d   1      15.288  17.590  -4.512  0.00  0.00     0.099 A 
ATOM     13  C   UNL d   1      15.102  18.104  -5.119  0.00  0.00     0.021 A 
ATOM     14  C   UNL d   1      14.606  17.869  -5.725  0.00  0.00     0.003 A 
ATOM     15  C   UNL d   1      13.795  16.881  -6.340  0.00  0.00     0.002 A 
ATOM     16  C   UNL d   1      13.478  16.121  -6.345  0.00  0.00     0.002 A 
ATOM     17  C   UNL d   1      13.663  15.588  -5.730  0.00  0.00     0.026 A 
ENDBRANCH   7   8
ENDBRANCH   6   7
ENDBRANCH   3   6
BRANCH   1  18
ATOM     18  C   UNL d   1      13.658  13.024  -3.387  0.00  0.00     0.067 A 
ATOM     19  C   UNL d   1      13.811  12.893  -4.178  0.00  0.00     0.021 A 
ATOM     20  C   UNL d   1      13.450  12.278  -4.573  0.00  0.00     0.073 A 
ATOM     21  C   UNL d   1      12.922  11.782  -4.168  0.00  0.00     0.004 A 
ATOM     22  C   UNL d   1      12.770  11.919  -3.368  0.00  0.00     0.001 A 
ATOM     23  C   UNL d   1      13.134  12.533  -2.982  0.00  0.00     0.018 A 
BRANCH  20  24
ATOM     24  C   UNL d   1      13.607  12.144  -5.381  0.00  0.00     0.419 C 
ATOM     25  F   UNL d   1      13.749  12.020  -6.123  0.00  0.00    -0.166 F 
ATOM     26  F   UNL d   1      14.367  12.177  -5.820  0.00  0.00    -0.166 F 
ATOM     27  F   UNL d   1      13.049  11.929  -6.028  0.00  0.00    -0.166 F 
ENDBRANCH  20  24
ENDBRANCH   1  18
BRANCH   2  28
ATOM     28  S   UNL d   1      14.401  12.925  -1.693  0.00  0.00    -0.064 SA
BRANCH  28  29
ATOM     29  C   UNL d   1      14.934  12.900  -1.012  0.00  0.00     0.162 C 
BRANCH  29  30
ATOM     30  C   UNL d   1      15.048  12.171  -0.570  0.00  0.00     0.197 C 
ATOM     31  O   UNL d   1      15.839  11.821  -0.510  0.00  0.00    -0.647 OA
ATOM     32  O   UNL d   1      14.376  11.790  -0.187  0.00  0.00    -0.647 OA
ENDBRANCH  29  30
ENDBRANCH  28  29
ENDBRANCH   2  28
TORSDOF 8
ENDMDL
MODEL 3
REMARK VINA RESULT:      64.0      3.059      3.980
REMARK  8 active torsions:
REMARK  status: ('A' for Active; 'I' for Inactive)
REMARK    1  A    between atoms: C_6  and  N_1 
REMARK    2  A    between atoms: S_10  and  C_2 
REMARK    3  A    between atoms: C_12  and  C_3 
REMARK    4  A    between atoms: C_7  and  C_8 
REMARK    5  A    between atoms: C_21  and  S_10 
REMARK    6  A    between atoms: O_15  and  C_12 
REMARK    7  A    between atoms: C_13  and  C_21 
REMARK    8  A    between atoms: C_16  and  O_15 
ROOT
ATOM      1  N   UNL d   1      14.678  15.103  -1.630  0.00  0.00    -0.268 N 
ATOM      2  C   UNL d   1      14.881  15.943  -1.659  0.00  0.00     0.198 A 
ATOM      3  C   UNL d   1      14.116  14.939  -2.267  0.00  0.00     0.196 A 
ATOM      4  N   UNL d   1      14.439  16.303  -2.320  0.00  0.00    -0.122 NA
ATOM      5  N   UNL d   1      13.970  15.674  -2.689  0.00  0.00    -0.126 NA
ENDROOT
BRANCH   3   6
ATOM      6  C   UNL d   1      13.764  14.167  -2.446  0.00  0.00     0.162 C 
BRANCH   6   7
ATOM      7  O   UNL d   1      13.642  13.932  -3.271  0.00  0.00    -0.300 OA
BRANCH   7   8
ATOM      8  C   UNL d   1      13.423  13.214  -3.612  0.00  0.00     0.118 A 
ATOM      9  C   UNL d   1      13.470  13.122  -4.429  0.00  0.00     0.104 A 
ATOM     10  N   UNL d   1      13.734  13.744  -4.903  0.00  0.00    -0.242 NA
ATOM     11  C   UNL d   1      13.250  12.399  -4.776  0.00  0.00     0.020 A 
ATOM     12  C   UNL d   1      13.777  13.640  -5.722  0.00  0.00     0.099 A 
ATOM     13  C   UNL d   1      13.560  12.927  -6.055  0.00  0.00     0.021 A 
ATOM     14  C   UNL d   1      13.298  12.312  -5.586  0.00  0.00     0.003 A 
ATOM     15  C   UNL d   1      12.989  11.784  -4.306  0.00  0.00     0.002 A 
ATOM     16  C   UNL d   1      12.942  11.876  -3.489  0.00  0.00     0.002 A 
ATOM     17  C   UNL d   1      13.162  12.602  -3.138  0.00  0.00     0.026 A 
ENDBRANCH   7   8
ENDBRANCH   6   7
ENDBRANCH   3   6
BRANCH   1  18
ATOM     18  C   UNL d   1      14.969  14.554  -1.092  0.00  0.00     0.067 A 
ATOM     19  C   UNL d   1      14.577  13.846  -0.981  0.00  0.00     0.021 A 
ATOM     20  C   UNL d   1      14.859  13.297  -0.449  0.00  0.00     0.073 A 
ATOM     21  C   UNL d   1      15.548  13.457  -0.017  0.00  0.00     0.004 A 
ATOM     22  C   UNL d   1      15.941  14.174  -0.133  0.00  0.00     0.001 A 
ATOM     23  C   UNL d   1      15.655  14.716  -0.664  0.00  0.00     0.018 A 
BRANCH  20  24
ATOM     24  C   UNL d   1      14.458  12.574  -0.335  0.00  0.00     0.419 C 
ATOM     25  F   UNL d   1      14.092  11.909  -0.231  0.00  0.00    -0.166 F 
ATOM     26  F   UNL d   1      13.598  12.395  -0.372  0.00  0.00    -0.166 F 
ATOM     27  F   UNL d   1      14.786  11.779  -0.146  0.00  0.00    -0.166 F 
ENDBRANCH  20  24
ENDBRANCH   1  18
BRANCH   2  28
ATOM     28  S   UNL d   1      15.421  16.350  -1.129  0.00  0.00    -0.064 SA
BRANCH  28  29
ATOM     29  C   UNL d   1      15.193  17.093  -0.749  0.00  0.00     0.162 C 
BRANCH  29  30
ATOM     30  C   UNL d   1      15.694  17.789  -0.809  0.00  0.00     0.197 C 
ATOM     31  O   UNL d   1      16.369  17.791  -1.354  0.00  0.00    -0.647 OA
ATOM     32  O   UNL d   1      15.527  18.484  -0.326  0.00  0.00    -0.647 OA
ENDBRANCH  29  30
ENDBRANCH  28  29
ENDBRANCH   2  28
TORSDOF 8
ENDMDL
