MODEL 1
REMARK VINA RESULT:      -9.3      0.000      0.000
REMARK  1 active torsions:
REMARK  status: ('A' for Active; 'I' for Inactive)
REMARK    1  A    between atoms: N_3  and  C_2 
ROOT
ATOM      1  N   UNL d   1      53.706  31.697  54.254  0.00  0.00    -0.228 NA
ATOM      2  C   UNL d   1      53.572  32.460  53.963  0.00  0.00     0.148 A 
ATOM      3  C   UNL d   1      53.413  31.040  53.839  0.00  0.00     0.083 A 
ATOM      4  C   UNL d   1      53.150  32.564  53.263  0.00  0.00     0.037 A 
ATOM      5  C   UNL d   1      52.991  31.153  53.139  0.00  0.00     0.018 A 
ATOM      6  C   UNL d   1      52.857  31.917  52.847  0.00  0.00     0.005 A 
ATOM      7  C   UNL d   1      53.545  30.278  54.128  0.00  0.00     0.019 A 
ATOM      8  C   UNL d   1      52.698  30.506  52.724  0.00  0.00     0.002 A 
ATOM      9  C   UNL d   1      53.252  29.630  53.712  0.00  0.00     0.002 A 
ATOM     10  C   UNL d   1      52.828  29.744  53.009  0.00  0.00     0.000 A 
ENDROOT
BRANCH   2  11
ATOM     11  N   UNL d   1      53.865  33.111  54.378  0.00  0.00    -0.286 N 
ATOM     12  C   UNL d   1      54.657  33.132  54.607  0.00  0.00     0.102 A 
ATOM     13  C   UNL d   1      54.947  33.781  55.020  0.00  0.00     0.118 A 
ATOM     14  N   UNL d   1      54.448  34.408  55.204  0.00  0.00    -0.239 NA
ATOM     15  C   UNL d   1      53.656  34.388  54.976  0.00  0.00     0.118 A 
ATOM     16  C   UNL d   1      53.363  33.736  54.561  0.00  0.00     0.102 A 
ENDBRANCH   2  11
TORSDOF 1
ENDMDL
MODEL 2
REMARK VINA RESULT:      -9.2      1.047      3.499
REMARK  1 active torsions:
REMARK  status: ('A' for Active; 'I' for Inactive)
REMARK    1  A    between atoms: N_3  and  C_2 
ROOT
ATOM      1  N   UNL d   1      53.782  31.945  54.550  0.00  0.00    -0.228 NA
ATOM      2  C   UNL d   1      53.801  31.641  53.781  0.00  0.00     0.148 A 
ATOM      3  C   UNL d   1      54.213  32.631  54.733  0.00  0.00     0.083 A 
ATOM      4  C   UNL d   1      54.247  32.020  53.200  0.00  0.00     0.037 A 
ATOM      5  C   UNL d   1      54.656  33.004  54.146  0.00  0.00     0.018 A 
ATOM      6  C   UNL d   1      54.676  32.700  53.376  0.00  0.00     0.005 A 
ATOM      7  C   UNL d   1      54.195  32.936  55.499  0.00  0.00     0.019 A 
ATOM      8  C   UNL d   1      55.085  33.684  54.321  0.00  0.00     0.002 A 
ATOM      9  C   UNL d   1      54.625  33.617  55.676  0.00  0.00     0.002 A 
ATOM     10  C   UNL d   1      55.070  33.992  55.086  0.00  0.00     0.000 A 
ENDROOT
BRANCH   2  11
ATOM     11  N   UNL d   1      53.371  30.958  53.602  0.00  0.00    -0.286 N 
ATOM     12  C   UNL d   1      53.605  30.231  53.913  0.00  0.00     0.102 A 
ATOM     13  C   UNL d   1      53.177  29.552  53.734  0.00  0.00     0.118 A 
ATOM     14  N   UNL d   1      52.517  29.599  53.246  0.00  0.00    -0.239 NA
ATOM     15  C   UNL d   1      52.282  30.326  52.934  0.00  0.00     0.118 A 
ATOM     16  C   UNL d   1      52.712  31.009  53.113  0.00  0.00     0.102 A 
ENDBRANCH   2  11
TORSDOF 1
ENDMDL
MODEL 3
REMARK VINA RESULT:      -9.0      1.106      1.623
REMARK  1 active torsions:
REMARK  status: ('A' for Active; 'I' for Inactive)
REMARK    1  A    between atoms: N_3  and  C_2 
ROOT
ATOM      1  N   UNL d   1      52.769  32.566  53.426  0.00  0.00    -0.228 NA
ATOM      2  C   UNL d   1      53.278  33.067  53.844  0.00  0.00     0.148 A 
ATOM      3  C   UNL d   1      52.952  31.759  53.354  0.00  0.00     0.083 A 
ATOM      4  C   UNL d   1      53.964  32.763  54.186  0.00  0.00     0.037 A 
ATOM      5  C   UNL d   1      53.640  31.463  53.699  0.00  0.00     0.018 A 
ATOM      6  C   UNL d   1      54.150  31.964  54.118  0.00  0.00     0.005 A 
ATOM      7  C   UNL d   1      52.446  31.258  52.938  0.00  0.00     0.019 A 
ATOM      8  C   UNL d   1      53.826  30.664  53.631  0.00  0.00     0.002 A 
ATOM      9  C   UNL d   1      52.632  30.458  52.869  0.00  0.00     0.002 A 
ATOM     10  C   UNL d   1      53.323  30.161  53.216  0.00  0.00     0.000 A 
ENDROOT
BRANCH   2  11
ATOM     11  N   UNL d   1      53.093  33.869  53.914  0.00  0.00    -0.286 N 
ATOM     12  C   UNL d   1      52.755  34.271  53.278  0.00  0.00     0.102 A 
ATOM     13  C   UNL d   1      52.572  35.069  53.349  0.00  0.00     0.118 A 
ATOM     14  N   UNL d   1      52.726  35.466  54.054  0.00  0.00    -0.239 NA
ATOM     15  C   UNL d   1      53.065  35.064  54.690  0.00  0.00     0.118 A 
ATOM     16  C   UNL d   1      53.249  34.262  54.619  0.00  0.00     0.102 A 
ENDBRANCH   2  11
TORSDOF 1
ENDMDL
MODEL 4
REMARK VINA RESULT:      -8.9      1.986      3.456
REMARK  1 active torsions:
REMARK  status: ('A' for Active; 'I' for Inactive)
REMARK    1  A    between atoms: N_3  and  C_2 
ROOT
ATOM      1  N   UNL d   1      52.704  33.951  53.916  0.00  0.00    -0.228 NA
ATOM      2  C   UNL d   1      52.335  33.468  53.354  0.00  0.00     0.148 A 
ATOM      3  C   UNL d   1      53.395  33.689  54.295  0.00  0.00     0.083 A 
ATOM      4  C   UNL d   1      52.656  32.730  53.173  0.00  0.00     0.037 A 
ATOM      5  C   UNL d   1      53.709  32.949  54.108  0.00  0.00     0.018 A 
ATOM      6  C   UNL d   1      53.341  32.466  53.546  0.00  0.00     0.005 A 
ATOM      7  C   UNL d   1      53.764  34.169  54.856  0.00  0.00     0.019 A 
ATOM      8  C   UNL d   1      54.393  32.685  54.481  0.00  0.00     0.002 A 
ATOM      9  C   UNL d   1      54.449  33.905  55.229  0.00  0.00     0.002 A 
ATOM     10  C   UNL d   1      54.765  33.162  55.041  0.00  0.00     0.000 A 
ENDROOT
BRANCH   2  11
ATOM     11  N   UNL d   1      51.648  33.731  52.979  0.00  0.00    -0.286 N 
ATOM     12  C   UNL d   1      50.918  33.650  53.353  0.00  0.00     0.102 A 
ATOM     13  C   UNL d   1      50.235  33.911  52.979  0.00  0.00     0.118 A 
ATOM     14  N   UNL d   1      50.280  34.254  52.232  0.00  0.00    -0.239 NA
ATOM     15  C   UNL d   1      51.010  34.335  51.857  0.00  0.00     0.118 A 
ATOM     16  C   UNL d   1      51.697  34.072  52.232  0.00  0.00     0.102 A 
ENDBRANCH   2  11
TORSDOF 1
ENDMDL
MODEL 5
REMARK VINA RESULT:      -8.2      2.117      2.889
REMARK  1 active torsions:
REMARK  status: ('A' for Active; 'I' for Inactive)
REMARK    1  A    between atoms: N_3  and  C_2 
ROOT
ATOM      1  N   UNL d   1      52.323  33.430  53.790  0.00  0.00    -0.228 NA
ATOM      2  C   UNL d   1      52.999  33.907  53.764  0.00  0.00     0.148 A 
ATOM      3  C   UNL d   1      51.642  33.658  53.374  0.00  0.00     0.083 A 
ATOM      4  C   UNL d   1      52.992  34.606  53.325  0.00  0.00     0.037 A 
ATOM      5  C   UNL d   1      51.644  34.358  52.937  0.00  0.00     0.018 A 
ATOM      6  C   UNL d   1      52.320  34.836  52.911  0.00  0.00     0.005 A 
ATOM      7  C   UNL d   1      50.967  33.184  53.398  0.00  0.00     0.019 A 
ATOM      8  C   UNL d   1      50.971  34.589  52.523  0.00  0.00     0.002 A 
ATOM      9  C   UNL d   1      50.293  33.414  52.984  0.00  0.00     0.002 A 
ATOM     10  C   UNL d   1      50.295  34.118  52.545  0.00  0.00     0.000 A 
ENDROOT
BRANCH   2  11
ATOM     11  N   UNL d   1      53.676  33.678  54.179  0.00  0.00    -0.286 N 
ATOM     12  C   UNL d   1      54.203  33.141  53.842  0.00  0.00     0.102 A 
ATOM     13  C   UNL d   1      54.876  32.914  54.256  0.00  0.00     0.118 A 
ATOM     14  N   UNL d   1      55.023  33.222  55.005  0.00  0.00    -0.239 NA
ATOM     15  C   UNL d   1      54.495  33.759  55.342  0.00  0.00     0.118 A 
ATOM     16  C   UNL d   1      53.819  33.988  54.927  0.00  0.00     0.102 A 
ENDBRANCH   2  11
TORSDOF 1
ENDMDL
