MODEL 1
REMARK VINA RESULT:      -2.5      0.000      0.000
REMARK  7 active torsions:
REMARK  status: ('A' for Active; 'I' for Inactive)
REMARK    1  A    between atoms: C_8  and  C_1 
REMARK    2  A    between atoms: N_7  and  C_2 
REMARK    3  A    between atoms: C_5  and  N_7 
REMARK    4  A    between atoms: N_9  and  C_5 
REMARK    5  A    between atoms: O_14  and  C_8 
REMARK    6  A    between atoms: C_10  and  N_9 
REMARK    7  A    between atoms: C_20  and  O_14 
ROOT
ATOM      1  C   UNL d   1      59.110  -1.579  29.150  0.00  0.00     0.162 A 
ATOM      2  C   UNL d   1      58.932  -0.871  29.516  0.00  0.00     0.108 A 
ATOM      3  N   UNL d   1      59.912  -1.574  28.955  0.00  0.00    -0.239 NA
ATOM      4  C   UNL d   1      59.616  -0.420  29.553  0.00  0.00     0.037 A 
ATOM      5  C   UNL d   1      60.226  -0.851  29.207  0.00  0.00     0.083 A 
ATOM      6  C   UNL d   1      59.766   0.330  29.858  0.00  0.00     0.003 A 
ATOM      7  C   UNL d   1      60.987  -0.535  29.164  0.00  0.00     0.019 A 
ATOM      8  C   UNL d   1      60.523   0.652  29.819  0.00  0.00     0.000 A 
ATOM      9  C   UNL d   1      61.133   0.213  29.469  0.00  0.00     0.002 A 
ENDROOT
BRANCH   2  10
ATOM     10  N   UNL d   1      58.184  -0.640  29.805  0.00  0.00    -0.216 NA
BRANCH  10  11
ATOM     11  C   UNL d   1      58.097  -0.449  30.604  0.00  0.00     0.221 C 
ATOM     12  S   UNL d   1      58.514   0.185  30.935  0.00  0.00    -0.037 SA
BRANCH  11  13
ATOM     13  N   UNL d   1      57.587  -0.901  31.073  0.00  0.00    -0.217 NA
BRANCH  13  14
ATOM     14  C   UNL d   1      57.027  -0.521  31.544  0.00  0.00     0.084 A 
ATOM     15  C   UNL d   1      56.559  -0.953  32.075  0.00  0.00     0.018 A 
ATOM     16  C   UNL d   1      56.653  -1.785  32.138  0.00  0.00     0.002 C 
ATOM     17  C   UNL d   1      55.999  -0.580  32.546  0.00  0.00     0.002 A 
ATOM     18  C   UNL d   1      55.905   0.240  32.486  0.00  0.00     0.000 A 
ATOM     19  C   UNL d   1      56.365   0.682  31.960  0.00  0.00     0.002 A 
ATOM     20  C   UNL d   1      56.928   0.293  31.489  0.00  0.00     0.019 A 
ENDBRANCH  13  14
ENDBRANCH  11  13
ENDBRANCH  10  11
ENDBRANCH   2  10
BRANCH   1  21
ATOM     21  C   UNL d   1      58.581  -2.194  28.999  0.00  0.00     0.320 C 
ATOM     22  O   UNL d   1      57.836  -2.025  28.687  0.00  0.00    -0.257 OA
BRANCH  21  23
ATOM     23  O   UNL d   1      58.785  -2.973  29.156  0.00  0.00    -0.270 OA
BRANCH  23  24
ATOM     24  C   UNL d   1      58.362  -3.585  28.793  0.00  0.00     0.126 C 
ATOM     25  C   UNL d   1      58.759  -4.250  28.527  0.00  0.00     0.029 C 
ENDBRANCH  23  24
ENDBRANCH  21  23
ENDBRANCH   1  21
TORSDOF 7
ENDMDL
MODEL 2
REMARK VINA RESULT:       0.1      1.226      2.605
REMARK  7 active torsions:
REMARK  status: ('A' for Active; 'I' for Inactive)
REMARK    1  A    between atoms: C_8  and  C_1 
REMARK    2  A    between atoms: N_7  and  C_2 
REMARK    3  A    between atoms: C_5  and  N_7 
REMARK    4  A    between atoms: N_9  and  C_5 
REMARK    5  A    between atoms: O_14  and  C_8 
REMARK    6  A    between atoms: C_10  and  N_9 
REMARK    7  A    between atoms: C_20  and  O_14 
ROOT
ATOM      1  C   UNL d   1      59.124  -0.753  29.118  0.00  0.00     0.162 A 
ATOM      2  C   UNL d   1      58.472  -1.146  29.414  0.00  0.00     0.108 A 
ATOM      3  N   UNL d   1      59.631  -1.310  28.782  0.00  0.00    -0.239 NA
ATOM      4  C   UNL d   1      58.565  -1.947  29.266  0.00  0.00     0.037 A 
ATOM      5  C   UNL d   1      59.281  -2.054  28.875  0.00  0.00     0.083 A 
ATOM      6  C   UNL d   1      58.090  -2.598  29.437  0.00  0.00     0.003 A 
ATOM      7  C   UNL d   1      59.526  -2.811  28.653  0.00  0.00     0.019 A 
ATOM      8  C   UNL d   1      58.327  -3.356  29.219  0.00  0.00     0.000 A 
ATOM      9  C   UNL d   1      59.050  -3.457  28.825  0.00  0.00     0.002 A 
ENDROOT
BRANCH   2  10
ATOM     10  N   UNL d   1      57.820  -0.797  29.800  0.00  0.00    -0.216 NA
BRANCH  10  11
ATOM     11  C   UNL d   1      57.624  -1.039  30.566  0.00  0.00     0.221 C 
ATOM     12  S   UNL d   1      57.221  -1.750  30.694  0.00  0.00    -0.037 SA
BRANCH  11  13
ATOM     13  N   UNL d   1      57.835  -0.559  31.206  0.00  0.00    -0.217 NA
BRANCH  13  14
ATOM     14  C   UNL d   1      57.306  -0.458  31.829  0.00  0.00     0.084 A 
ATOM     15  C   UNL d   1      57.410   0.155  32.377  0.00  0.00     0.018 A 
ATOM     16  C   UNL d   1      58.060   0.681  32.301  0.00  0.00     0.002 C 
ATOM     17  C   UNL d   1      56.886   0.260  33.000  0.00  0.00     0.002 A 
ATOM     18  C   UNL d   1      56.244  -0.257  33.078  0.00  0.00     0.000 A 
ATOM     19  C   UNL d   1      56.129  -0.872  32.538  0.00  0.00     0.002 A 
ATOM     20  C   UNL d   1      56.667  -0.968  31.912  0.00  0.00     0.019 A 
ENDBRANCH  13  14
ENDBRANCH  11  13
ENDBRANCH  10  11
ENDBRANCH   2  10
BRANCH   1  21
ATOM     21  C   UNL d   1      59.255   0.062  29.148  0.00  0.00     0.320 C 
ATOM     22  O   UNL d   1      58.883   0.556  28.601  0.00  0.00    -0.257 OA
BRANCH  21  23
ATOM     23  O   UNL d   1      59.750   0.388  29.715  0.00  0.00    -0.270 OA
BRANCH  23  24
ATOM     24  C   UNL d   1      60.489   0.681  29.488  0.00  0.00     0.126 C 
ATOM     25  C   UNL d   1      61.133   0.586  29.985  0.00  0.00     0.029 C 
ENDBRANCH  23  24
ENDBRANCH  21  23
ENDBRANCH   1  21
TORSDOF 7
ENDMDL
