MODEL 1
REMARK VINA RESULT:      -3.0      0.000      0.000
REMARK  5 active torsions:
REMARK  status: ('A' for Active; 'I' for Inactive)
REMARK    1  A    between atoms: N_3  and  C_1 
REMARK       I    between atoms: C_7  and  N_3 
REMARK    2  A    between atoms: S_9  and  C_4 
REMARK    3  A    between atoms: C_8  and  C_7 
REMARK    4  A    between atoms: C_13  and  S_9 
REMARK    5  A    between atoms: C_16  and  C_13 
ROOT
ATOM      1  C   UNL d   1      33.214  19.925 -22.421  0.00  0.00     0.219 A 
ATOM      2  S   UNL d   1      33.231  20.278 -21.638  0.00  0.00    -0.019 SA
ATOM      3  C   UNL d   1      33.223  21.138 -21.763  0.00  0.00     0.165 A 
ATOM      4  N   UNL d   1      33.199  20.483 -22.866  0.00  0.00    -0.120 NA
ATOM      5  N   UNL d   1      33.205  21.236 -22.445  0.00  0.00    -0.133 NA
ENDROOT
BRANCH   1   6
ATOM      6  N   UNL d   1      33.214  19.023 -22.609  0.00  0.00    -0.181 NA
ATOM      7  C   UNL d   1      32.618  18.681 -23.118  0.00  0.00     0.281 C 
ATOM      8  O   UNL d   1      32.137  19.105 -23.383  0.00  0.00    -0.265 OA
BRANCH   7   9
ATOM      9  C   UNL d   1      32.510  17.906 -23.359  0.00  0.00     0.058 A 
ATOM     10  C   UNL d   1      33.117  17.359 -23.259  0.00  0.00     0.006 A 
ATOM     11  C   UNL d   1      33.003  16.573 -23.505  0.00  0.00     0.012 A 
ATOM     12  C   UNL d   1      32.279  16.353 -23.848  0.00  0.00     0.058 A 
ATOM     13  C   UNL d   1      31.683  16.917 -23.940  0.00  0.00     0.012 A 
ATOM     14 CL   UNL d   1      32.251  15.504 -24.077  0.00  0.00    -0.082 Cl
ATOM     15  C   UNL d   1      31.802  17.690 -23.695  0.00  0.00     0.006 A 
ENDBRANCH   7   9
ENDBRANCH   1   6
BRANCH   3  16
ATOM     16  S   UNL d   1      33.233  21.853 -21.205  0.00  0.00    -0.059 SA
BRANCH  16  17
ATOM     17  C   UNL d   1      32.788  21.746 -20.618  0.00  0.00     0.037 C 
BRANCH  17  18
ATOM     18  C   UNL d   1      32.865  22.214 -19.954  0.00  0.00     0.007 A 
ATOM     19  C   UNL d   1      32.662  23.008 -19.969  0.00  0.00     0.001 A 
ATOM     20  C   UNL d   1      32.740  23.483 -19.295  0.00  0.00     0.007 A 
ATOM     21  C   UNL d   1      33.029  23.146 -18.596  0.00  0.00     0.035 A 
ATOM     22  C   UNL d   1      33.238  22.330 -18.575  0.00  0.00     0.007 A 
ATOM     23 BR   UNL d   1      33.137  23.702 -17.750  0.00  0.00    -0.049 Br
ATOM     24  C   UNL d   1      33.146  21.883 -19.273  0.00  0.00     0.001 A 
ENDBRANCH  17  18
ENDBRANCH  16  17
ENDBRANCH   3  16
TORSDOF 5
ENDMDL
MODEL 2
REMARK VINA RESULT:      -2.8      1.513      2.274
REMARK  5 active torsions:
REMARK  status: ('A' for Active; 'I' for Inactive)
REMARK    1  A    between atoms: N_3  and  C_1 
REMARK       I    between atoms: C_7  and  N_3 
REMARK    2  A    between atoms: S_9  and  C_4 
REMARK    3  A    between atoms: C_8  and  C_7 
REMARK    4  A    between atoms: C_13  and  S_9 
REMARK    5  A    between atoms: C_16  and  C_13 
ROOT
ATOM      1  C   UNL d   1      32.439  18.519 -23.433  0.00  0.00     0.219 A 
ATOM      2  S   UNL d   1      32.406  18.966 -22.700  0.00  0.00    -0.019 SA
ATOM      3  C   UNL d   1      32.966  19.624 -22.797  0.00  0.00     0.165 A 
ATOM      4  N   UNL d   1      32.916  18.868 -23.832  0.00  0.00    -0.120 NA
ATOM      5  N   UNL d   1      33.240  19.556 -23.426  0.00  0.00    -0.133 NA
ENDROOT
BRANCH   1   6
ATOM      6  N   UNL d   1      31.952  17.761 -23.627  0.00  0.00    -0.181 NA
ATOM      7  C   UNL d   1      31.234  17.808 -24.089  0.00  0.00     0.281 C 
ATOM      8  O   UNL d   1      31.033  18.433 -24.311  0.00  0.00    -0.265 OA
BRANCH   7   9
ATOM      9  C   UNL d   1      30.719  17.217 -24.326  0.00  0.00     0.058 A 
ATOM     10  C   UNL d   1      30.084  17.401 -24.816  0.00  0.00     0.006 A 
ATOM     11  C   UNL d   1      29.563  16.799 -25.055  0.00  0.00     0.012 A 
ATOM     12  C   UNL d   1      29.693  16.020 -24.794  0.00  0.00     0.058 A 
ATOM     13  C   UNL d   1      30.335  15.856 -24.303  0.00  0.00     0.012 A 
ATOM     14 CL   UNL d   1      29.092  15.453 -25.097  0.00  0.00    -0.082 Cl
ATOM     15  C   UNL d   1      30.844  16.455 -24.072  0.00  0.00     0.006 A 
ENDBRANCH   7   9
ENDBRANCH   1   6
BRANCH   3  16
ATOM     16  S   UNL d   1      33.224  20.311 -22.265  0.00  0.00    -0.059 SA
BRANCH  16  17
ATOM     17  C   UNL d   1      32.638  20.640 -21.943  0.00  0.00     0.037 C 
BRANCH  17  18
ATOM     18  C   UNL d   1      32.744  21.301 -21.476  0.00  0.00     0.007 A 
ATOM     19  C   UNL d   1      32.953  21.234 -20.686  0.00  0.00     0.001 A 
ATOM     20  C   UNL d   1      33.060  21.904 -20.212  0.00  0.00     0.007 A 
ATOM     21  C   UNL d   1      32.955  22.654 -20.547  0.00  0.00     0.035 A 
ATOM     22  C   UNL d   1      32.741  22.730 -21.358  0.00  0.00     0.007 A 
ATOM     23 BR   UNL d   1      33.080  23.499 -19.991  0.00  0.00    -0.049 Br
ATOM     24  C   UNL d   1      32.641  22.032 -21.804  0.00  0.00     0.001 A 
ENDBRANCH  17  18
ENDBRANCH  16  17
ENDBRANCH   3  16
TORSDOF 5
ENDMDL
