MODEL 1
REMARK VINA RESULT:      16.1      0.000      0.000
REMARK  6 active torsions:
REMARK  status: ('A' for Active; 'I' for Inactive)
REMARK    1  A    between atoms: C_18  and  N_1 
REMARK    2  A    between atoms: S_7  and  C_2 
REMARK    3  A    between atoms: C_20  and  S_7 
REMARK    4  A    between atoms: C_10  and  C_20 
REMARK       I    between atoms: N_13  and  C_10 
REMARK    5  A    between atoms: C_16  and  N_13 
REMARK    6  A    between atoms: C_21  and  C_18 
ROOT
ATOM      1  N   UNL d   1      46.436 -18.904  44.074  0.00  0.00    -0.253 N 
ATOM      2  C   UNL d   1      46.354 -18.041  43.946  0.00  0.00     0.182 A 
ATOM      3  C   UNL d   1      46.519 -19.392  43.442  0.00  0.00     0.268 A 
ATOM      4  N   UNL d   1      46.363 -17.765  43.205  0.00  0.00    -0.222 NA
ATOM      5  C   UNL d   1      46.526 -19.091  42.689  0.00  0.00     0.074 A 
ATOM      6  C   UNL d   1      46.447 -18.263  42.562  0.00  0.00     0.088 A 
ATOM      7  O   UNL d   1      46.597 -20.233  43.603  0.00  0.00    -0.267 OA
ATOM      8  C   UNL d   1      46.611 -19.598  42.046  0.00  0.00     0.006 A 
ATOM      9  C   UNL d   1      46.456 -17.973  41.796  0.00  0.00     0.019 A 
ATOM     10  C   UNL d   1      46.618 -19.301  41.294  0.00  0.00     0.000 A 
ATOM     11  C   UNL d   1      46.541 -18.484  41.154  0.00  0.00     0.002 A 
ENDROOT
BRANCH   2  12
ATOM     12  S   UNL d   1      46.267 -17.520  44.595  0.00  0.00    -0.044 SA
BRANCH  12  13
ATOM     13  C   UNL d   1      45.880 -16.755  44.505  0.00  0.00     0.101 C 
BRANCH  13  14
ATOM     14  C   UNL d   1      45.102 -16.662  44.777  0.00  0.00     0.286 C 
ATOM     15  N   UNL d   1      44.776 -15.925  44.872  0.00  0.00    -0.207 NA
ATOM     16  O   UNL d   1      44.653 -17.333  44.954  0.00  0.00    -0.265 OA
BRANCH  15  17
ATOM     17  C   UNL d   1      45.225 -15.240  44.694  0.00  0.00     0.087 A 
ATOM     18  C   UNL d   1      44.860 -14.645  44.245  0.00  0.00     0.045 A 
ATOM     19  C   UNL d   1      45.289 -13.961  44.060  0.00  0.00     0.121 A 
ATOM     20  O   UNL d   1      45.084 -13.285  43.632  0.00  0.00    -0.299 OA
ATOM     21  C   UNL d   1      46.058 -13.883  44.320  0.00  0.00     0.119 A 
ATOM     22  C   UNL d   1      45.756 -12.797  43.643  0.00  0.00     0.304 A 
ATOM     23  O   UNL d   1      46.350 -13.136  44.049  0.00  0.00    -0.300 OA
ATOM     24  C   UNL d   1      46.419 -14.485  44.771  0.00  0.00     0.028 A 
ATOM     25  C   UNL d   1      45.990 -15.162  44.953  0.00  0.00     0.021 A 
ENDBRANCH  15  17
ENDBRANCH  13  14
ENDBRANCH  12  13
ENDBRANCH   2  12
BRANCH   1  26
ATOM     26  C   UNL d   1      46.433 -19.251  44.848  0.00  0.00     0.085 C 
BRANCH  26  27
ATOM     27  C   UNL d   1      46.275 -20.057  44.950  0.00  0.00     0.019 C 
ATOM     28  C   UNL d   1      45.514 -20.330  44.934  0.00  0.00     0.002 C 
ENDBRANCH  26  27
ENDBRANCH   1  26
TORSDOF 6
ENDMDL
