MODEL 1
REMARK VINA RESULT:       1.8      0.000      0.000
REMARK  4 active torsions:
REMARK  status: ('A' for Active; 'I' for Inactive)
REMARK    1  A    between atoms: C_2  and  N_1 
REMARK    2  A    between atoms: C_6  and  C_2 
REMARK    3  A    between atoms: C_7  and  C_2 
REMARK    4  A    between atoms: C_9  and  C_6 
ROOT
ATOM      1  C   UNL d   1      23.755  13.266  -0.496  0.00  0.00     0.153 C 
ENDROOT
BRANCH   1   2
ATOM      2  N   UNL d   1      24.087  12.786  -1.081  0.00  0.00    -0.224 N 
ATOM      3  N   UNL d   1      24.029  12.879  -1.887  0.00  0.00    -0.165 NA
ATOM      4  C   UNL d   1      24.443  12.275  -2.252  0.00  0.00     0.103 A 
ATOM      5  C   UNL d   1      24.529  12.160  -3.097  0.00  0.00     0.022 C 
ATOM      6  C   UNL d   1      24.768  11.792  -1.668  0.00  0.00     0.040 A 
ATOM      7  C   UNL d   1      24.549  12.105  -0.953  0.00  0.00     0.085 A 
ATOM      8  C   UNL d   1      24.764  11.780  -0.207  0.00  0.00     0.021 C 
ENDBRANCH   1   2
BRANCH   1   9
ATOM      9  C   UNL d   1      23.138  12.981  -0.017  0.00  0.00     0.096 C 
BRANCH   9  10
ATOM     10  C   UNL d   1      22.391  13.315  -0.079  0.00  0.00     0.213 C 
ATOM     11  O   UNL d   1      22.273  14.130  -0.015  0.00  0.00    -0.644 OA
ATOM     12  O   UNL d   1      21.711  12.854  -0.209  0.00  0.00    -0.644 OA
ENDBRANCH   9  10
ENDBRANCH   1   9
BRANCH   1  13
ATOM     13  C   UNL d   1      24.034  14.027  -0.386  0.00  0.00     0.230 C 
ATOM     14  O   UNL d   1      23.578  14.670  -0.643  0.00  0.00    -0.643 OA
ATOM     15  O   UNL d   1      24.768  14.164  -0.018  0.00  0.00    -0.643 OA
ENDBRANCH   1  13
TORSDOF 4
ENDMDL
