MODEL 1
REMARK VINA RESULT:       9.7      0.000      0.000
REMARK  4 active torsions:
REMARK  status: ('A' for Active; 'I' for Inactive)
REMARK    1  A    between atoms: C_4  and  C_1 
REMARK       I    between atoms: N_7  and  C_4 
REMARK    2  A    between atoms: C_8  and  N_7 
REMARK    3  A    between atoms: O_21  and  C_13 
REMARK    4  A    between atoms: O_22  and  C_16 
ROOT
ATOM      1  C   UNL d   1     -41.394-123.007 -51.906  0.00  0.00     0.263 C 
ATOM      2  N   UNL d   1     -41.206-122.623 -52.668  0.00  0.00    -0.209 NA
ATOM      3  O   UNL d   1     -41.130-123.816 -51.700  0.00  0.00    -0.270 OA
ENDROOT
BRANCH   1   4
ATOM      4  C   UNL d   1     -41.833-122.651 -51.309  0.00  0.00     0.113 A 
ATOM      5  C   UNL d   1     -43.092-122.277 -50.510  0.00  0.00     0.025 A 
ATOM      6  C   UNL d   1     -42.293-122.297 -50.709  0.00  0.00     0.074 A 
ATOM      7  C   UNL d   1     -43.338-121.856 -49.863  0.00  0.00     0.002 C 
ATOM      8  C   UNL d   1     -43.770-122.597 -50.814  0.00  0.00     0.002 C 
ATOM      9  C   UNL d   1     -42.546-121.868 -50.050  0.00  0.00     0.012 C 
ATOM     10  C   UNL d   1     -42.655-122.760 -51.285  0.00  0.00    -0.023 A 
ATOM     11  C   UNL d   1     -41.596-121.975 -50.407  0.00  0.00     0.172 A 
ATOM     12  C   UNL d   1     -42.212-123.102 -51.863  0.00  0.00    -0.018 A 
ATOM     13  C   UNL d   1     -41.158-122.328 -50.999  0.00  0.00     0.024 A 
ATOM     14  O   UNL d   1     -41.426-121.485 -49.752  0.00  0.00    -0.291 OA
ENDBRANCH   1   4
BRANCH   2  15
ATOM     15  C   UNL d   1     -41.492-121.814 -52.825  0.00  0.00     0.108 A 
ATOM     16  C   UNL d   1     -41.204-121.156 -52.321  0.00  0.00     0.045 A 
ATOM     17  C   UNL d   1     -41.491-120.342 -52.480  0.00  0.00     0.096 A 
ATOM     18  C   UNL d   1     -42.065-120.194 -53.141  0.00  0.00     0.026 A 
ATOM     19  C   UNL d   1     -42.339-120.866 -53.631  0.00  0.00     0.028 A 
ATOM     20  C   UNL d   1     -42.051-121.680 -53.472  0.00  0.00     0.112 A 
BRANCH  17  21
ATOM     21  O   UNL d   1     -41.215-119.678 -51.989  0.00  0.00    -0.328 OA
ATOM     22  C   UNL d   1     -41.133-118.879 -52.333  0.00  0.00     0.181 C 
ENDBRANCH  17  21
BRANCH  20  23
ATOM     23  O   UNL d   1     -42.325-122.353 -53.963  0.00  0.00    -0.327 OA
ATOM     24  C   UNL d   1     -42.547-122.205 -54.797  0.00  0.00     0.181 C 
ENDBRANCH  20  23
ENDBRANCH   2  15
TORSDOF 4
ENDMDL
MODEL 2
REMARK VINA RESULT:      10.0      1.275      2.674
REMARK  4 active torsions:
REMARK  status: ('A' for Active; 'I' for Inactive)
REMARK    1  A    between atoms: C_4  and  C_1 
REMARK       I    between atoms: N_7  and  C_4 
REMARK    2  A    between atoms: C_8  and  N_7 
REMARK    3  A    between atoms: O_21  and  C_13 
REMARK    4  A    between atoms: O_22  and  C_16 
ROOT
ATOM      1  C   UNL d   1     -41.738-122.732 -49.630  0.00  0.00     0.263 C 
ATOM      2  N   UNL d   1     -41.125-122.654 -50.247  0.00  0.00    -0.209 NA
ATOM      3  O   UNL d   1     -41.552-122.893 -48.790  0.00  0.00    -0.270 OA
ENDROOT
BRANCH   1   4
ATOM      4  C   UNL d   1     -42.544-122.664 -49.773  0.00  0.00     0.113 A 
ATOM      5  C   UNL d   1     -43.930-121.997 -49.774  0.00  0.00     0.025 A 
ATOM      6  C   UNL d   1     -43.363-122.579 -49.912  0.00  0.00     0.074 A 
ATOM      7  C   UNL d   1     -44.699-122.120 -49.995  0.00  0.00     0.002 C 
ATOM      8  C   UNL d   1     -43.928-121.258 -49.445  0.00  0.00     0.002 C 
ATOM      9  C   UNL d   1     -44.148-122.703 -50.136  0.00  0.00     0.012 C 
ATOM     10  C   UNL d   1     -42.943-121.971 -49.550  0.00  0.00    -0.023 A 
ATOM     11  C   UNL d   1     -43.354-123.333 -50.246  0.00  0.00     0.172 A 
ATOM     12  C   UNL d   1     -42.154-122.053 -49.417  0.00  0.00    -0.018 A 
ATOM     13  C   UNL d   1     -42.553-123.403 -50.105  0.00  0.00     0.024 A 
ATOM     14  O   UNL d   1     -43.942-123.817 -50.589  0.00  0.00    -0.291 OA
ENDBRANCH   1   4
BRANCH   2  15
ATOM     15  C   UNL d   1     -41.361-122.493 -51.072  0.00  0.00     0.108 A 
ATOM     16  C   UNL d   1     -41.588-123.166 -51.587  0.00  0.00     0.045 A 
ATOM     17  C   UNL d   1     -41.826-123.004 -52.417  0.00  0.00     0.096 A 
ATOM     18  C   UNL d   1     -41.833-122.171 -52.723  0.00  0.00     0.026 A 
ATOM     19  C   UNL d   1     -41.602-121.516 -52.191  0.00  0.00     0.028 A 
ATOM     20  C   UNL d   1     -41.365-121.677 -51.361  0.00  0.00     0.112 A 
BRANCH  17  21
ATOM     21  O   UNL d   1     -42.055-123.661 -52.941  0.00  0.00    -0.328 OA
ATOM     22  C   UNL d   1     -41.611-123.811 -53.679  0.00  0.00     0.181 C 
ENDBRANCH  17  21
BRANCH  20  23
ATOM     23  O   UNL d   1     -41.133-121.021 -50.827  0.00  0.00    -0.327 OA
ATOM     24  C   UNL d   1     -41.124-120.204 -51.142  0.00  0.00     0.181 C 
ENDBRANCH  20  23
ENDBRANCH   2  15
TORSDOF 4
ENDMDL
MODEL 3
REMARK VINA RESULT:      11.4      1.333      3.158
REMARK  4 active torsions:
REMARK  status: ('A' for Active; 'I' for Inactive)
REMARK    1  A    between atoms: C_4  and  C_1 
REMARK       I    between atoms: N_7  and  C_4 
REMARK    2  A    between atoms: C_8  and  N_7 
REMARK    3  A    between atoms: O_21  and  C_13 
REMARK    4  A    between atoms: O_22  and  C_16 
ROOT
ATOM      1  C   UNL d   1     -41.518-123.368 -51.480  0.00  0.00     0.263 C 
ATOM      2  N   UNL d   1     -41.756-123.816 -50.769  0.00  0.00    -0.209 NA
ATOM      3  O   UNL d   1     -41.173-123.747 -52.190  0.00  0.00    -0.270 OA
ENDROOT
BRANCH   1   4
ATOM      4  C   UNL d   1     -41.593-122.553 -51.555  0.00  0.00     0.113 A 
ATOM      5  C   UNL d   1     -41.979-121.223 -52.223  0.00  0.00     0.025 A 
ATOM      6  C   UNL d   1     -41.676-121.727 -51.646  0.00  0.00     0.074 A 
ATOM      7  C   UNL d   1     -41.962-120.421 -52.109  0.00  0.00     0.002 C 
ATOM      8  C   UNL d   1     -42.324-121.319 -52.948  0.00  0.00     0.002 C 
ATOM      9  C   UNL d   1     -41.660-120.910 -51.532  0.00  0.00     0.012 C 
ATOM     10  C   UNL d   1     -41.938-122.235 -52.238  0.00  0.00    -0.023 A 
ATOM     11  C   UNL d   1     -41.323-121.641 -50.906  0.00  0.00     0.172 A 
ATOM     12  C   UNL d   1     -41.858-123.030 -52.151  0.00  0.00    -0.018 A 
ATOM     13  C   UNL d   1     -41.247-122.450 -50.829  0.00  0.00     0.024 A 
ATOM     14  O   UNL d   1     -41.127-120.978 -50.436  0.00  0.00    -0.291 OA
ENDBRANCH   1   4
BRANCH   2  15
ATOM     15  C   UNL d   1     -42.097-123.392 -50.085  0.00  0.00     0.108 A 
ATOM     16  C   UNL d   1     -41.557-122.977 -49.532  0.00  0.00     0.045 A 
ATOM     17  C   UNL d   1     -41.899-122.551 -48.845  0.00  0.00     0.096 A 
ATOM     18  C   UNL d   1     -42.777-122.544 -48.718  0.00  0.00     0.026 A 
ATOM     19  C   UNL d   1     -43.296-122.965 -49.284  0.00  0.00     0.028 A 
ATOM     20  C   UNL d   1     -42.954-123.392 -49.971  0.00  0.00     0.112 A 
BRANCH  17  21
ATOM     21  O   UNL d   1     -41.377-122.134 -48.286  0.00  0.00    -0.328 OA
ATOM     22  C   UNL d   1     -41.149-122.510 -47.531  0.00  0.00     0.181 C 
ENDBRANCH  17  21
BRANCH  20  23
ATOM     23  O   UNL d   1     -43.473-123.813 -50.538  0.00  0.00    -0.327 OA
ATOM     24  C   UNL d   1     -44.338-123.815 -50.397  0.00  0.00     0.181 C 
ENDBRANCH  20  23
ENDBRANCH   2  15
TORSDOF 4
ENDMDL
