MODEL 1
REMARK VINA RESULT:      -5.5      0.000      0.000
REMARK  10 active torsions:
REMARK  status: ('A' for Active; 'I' for Inactive)
REMARK    1  A    between atoms: C_3  and  C_1 
REMARK    2  A    between atoms: C_4  and  C_1 
REMARK    3  A    between atoms: N_2  and  C_8 
REMARK    4  A    between atoms: O_19  and  C_3 
REMARK    5  A    between atoms: C_14  and  C_4 
REMARK    6  A    between atoms: C_20  and  N_7 
REMARK    7  A    between atoms: C_9  and  C_20 
REMARK    8  A    between atoms: C_13  and  C_9 
REMARK    9  A    between atoms: C_23  and  C_13 
REMARK   10  A    between atoms: C_24  and  O_19 
ROOT
ATOM      1  C   UNL d   1     -48.841  12.928  22.993  0.00  0.00     0.132 C 
ATOM      2  C   UNL d   1     -48.980  12.155  22.734  0.00  0.00     0.106 C 
ATOM      3  N   UNL d   1     -49.121  11.383  22.474  0.00  0.00    -0.191 NA
ENDROOT
BRANCH   1   4
ATOM      4  C   UNL d   1     -49.331  13.540  22.766  0.00  0.00     0.310 C 
ATOM      5  O   UNL d   1     -49.462  13.704  21.985  0.00  0.00    -0.258 OA
BRANCH   4   6
ATOM      6  O   UNL d   1     -49.695  13.996  23.342  0.00  0.00    -0.271 OA
BRANCH   6   7
ATOM      7  C   UNL d   1     -50.242  14.575  23.120  0.00  0.00     0.126 C 
ATOM      8  C   UNL d   1     -50.748  14.894  23.698  0.00  0.00     0.029 C 
ENDBRANCH   6   7
ENDBRANCH   4   6
ENDBRANCH   1   4
BRANCH   1   9
ATOM      9  C   UNL d   1     -48.204  13.085  23.483  0.00  0.00     0.016 C 
BRANCH   9  10
ATOM     10  C   UNL d   1     -47.421  13.028  23.169  0.00  0.00     0.001 A 
ATOM     11  C   UNL d   1     -47.097  13.639  22.687  0.00  0.00     0.002 A 
ATOM     12  C   UNL d   1     -46.342  13.564  22.395  0.00  0.00     0.018 A 
ATOM     13  C   UNL d   1     -45.882  12.909  22.556  0.00  0.00     0.064 A 
ATOM     14  C   UNL d   1     -46.189  12.314  23.021  0.00  0.00     0.018 A 
ATOM     15  C   UNL d   1     -46.957  12.373  23.328  0.00  0.00     0.002 A 
BRANCH  13  16
ATOM     16  N   UNL d   1     -45.113  12.850  22.249  0.00  0.00    -0.301 N 
ATOM     17  C   UNL d   1     -44.832  13.405  21.718  0.00  0.00     0.100 A 
ATOM     18  C   UNL d   1     -44.063  13.347  21.411  0.00  0.00     0.100 A 
ATOM     19  N   UNL d   1     -43.574  12.733  21.634  0.00  0.00    -0.300 N 
ATOM     20  C   UNL d   1     -43.854  12.150  22.184  0.00  0.00     0.100 A 
ATOM     21  C   UNL d   1     -44.622  12.224  22.480  0.00  0.00     0.100 A 
BRANCH  19  22
ATOM     22  C   UNL d   1     -42.805  12.674  21.327  0.00  0.00     0.080 C 
BRANCH  22  23
ATOM     23  C   UNL d   1     -42.351  13.362  21.193  0.00  0.00     0.019 C 
BRANCH  23  24
ATOM     24  C   UNL d   1     -41.710  13.473  20.790  0.00  0.00     0.002 C 
BRANCH  24  25
ATOM     25  C   UNL d   1     -41.241  14.119  20.952  0.00  0.00     0.000 A 
ATOM     26  C   UNL d   1     -40.510  14.001  21.284  0.00  0.00     0.000 A 
ATOM     27  C   UNL d   1     -40.024  14.646  21.453  0.00  0.00     0.000 A 
ATOM     28  C   UNL d   1     -40.275  15.406  21.287  0.00  0.00     0.000 A 
ATOM     29  C   UNL d   1     -41.025  15.518  20.947  0.00  0.00     0.000 A 
ATOM     30  C   UNL d   1     -41.507  14.868  20.780  0.00  0.00     0.000 A 
ENDBRANCH  24  25
ENDBRANCH  23  24
ENDBRANCH  22  23
ENDBRANCH  19  22
ENDBRANCH  13  16
ENDBRANCH   9  10
ENDBRANCH   1   9
TORSDOF 10
ENDMDL
MODEL 2
REMARK VINA RESULT:      -3.9      2.483      7.044
REMARK  10 active torsions:
REMARK  status: ('A' for Active; 'I' for Inactive)
REMARK    1  A    between atoms: C_3  and  C_1 
REMARK    2  A    between atoms: C_4  and  C_1 
REMARK    3  A    between atoms: N_2  and  C_8 
REMARK    4  A    between atoms: O_19  and  C_3 
REMARK    5  A    between atoms: C_14  and  C_4 
REMARK    6  A    between atoms: C_20  and  N_7 
REMARK    7  A    between atoms: C_9  and  C_20 
REMARK    8  A    between atoms: C_13  and  C_9 
REMARK    9  A    between atoms: C_23  and  C_13 
REMARK   10  A    between atoms: C_24  and  O_19 
ROOT
ATOM      1  C   UNL d   1     -41.328  13.945  20.948  0.00  0.00     0.132 C 
ATOM      2  C   UNL d   1     -40.895  13.712  21.613  0.00  0.00     0.106 C 
ATOM      3  N   UNL d   1     -40.461  13.482  22.278  0.00  0.00    -0.191 NA
ENDROOT
BRANCH   1   4
ATOM      4  C   UNL d   1     -41.224  14.684  20.619  0.00  0.00     0.310 C 
ATOM      5  O   UNL d   1     -41.409  15.356  21.030  0.00  0.00    -0.258 OA
BRANCH   4   6
ATOM      6  O   UNL d   1     -40.927  14.746  19.857  0.00  0.00    -0.271 OA
BRANCH   6   7
ATOM      7  C   UNL d   1     -40.641  15.473  19.586  0.00  0.00     0.126 C 
ATOM      8  C   UNL d   1     -40.369  15.533  18.803  0.00  0.00     0.029 C 
ENDBRANCH   6   7
ENDBRANCH   4   6
ENDBRANCH   1   4
BRANCH   1   9
ATOM      9  C   UNL d   1     -41.869  13.429  20.613  0.00  0.00     0.016 C 
BRANCH   9  10
ATOM     10  C   UNL d   1     -42.585  13.258  21.029  0.00  0.00     0.001 A 
ATOM     11  C   UNL d   1     -42.696  12.522  21.425  0.00  0.00     0.002 A 
ATOM     12  C   UNL d   1     -43.392  12.379  21.820  0.00  0.00     0.018 A 
ATOM     13  C   UNL d   1     -43.994  12.930  21.845  0.00  0.00     0.064 A 
ATOM     14  C   UNL d   1     -43.893  13.644  21.464  0.00  0.00     0.018 A 
ATOM     15  C   UNL d   1     -43.189  13.808  21.057  0.00  0.00     0.002 A 
BRANCH  13  16
ATOM     16  N   UNL d   1     -44.698  12.766  22.253  0.00  0.00    -0.301 N 
ATOM     17  C   UNL d   1     -44.799  12.052  22.641  0.00  0.00     0.100 A 
ATOM     18  C   UNL d   1     -45.502  11.888  23.049  0.00  0.00     0.100 A 
ATOM     19  N   UNL d   1     -46.106  12.436  23.069  0.00  0.00    -0.300 N 
ATOM     20  C   UNL d   1     -46.013  13.180  22.671  0.00  0.00     0.100 A 
ATOM     21  C   UNL d   1     -45.307  13.328  22.270  0.00  0.00     0.100 A 
BRANCH  19  22
ATOM     22  C   UNL d   1     -46.811  12.271  23.478  0.00  0.00     0.080 C 
BRANCH  22  23
ATOM     23  C   UNL d   1     -47.514  12.110  23.056  0.00  0.00     0.019 C 
BRANCH  23  24
ATOM     24  C   UNL d   1     -48.101  11.646  23.215  0.00  0.00     0.002 C 
BRANCH  24  25
ATOM     25  C   UNL d   1     -48.854  11.861  22.990  0.00  0.00     0.000 A 
ATOM     26  C   UNL d   1     -49.409  12.006  23.563  0.00  0.00     0.000 A 
ATOM     27  C   UNL d   1     -50.176  12.225  23.351  0.00  0.00     0.000 A 
ATOM     28  C   UNL d   1     -50.380  12.296  22.563  0.00  0.00     0.000 A 
ATOM     29  C   UNL d   1     -49.806  12.146  21.981  0.00  0.00     0.000 A 
ATOM     30  C   UNL d   1     -49.040  11.928  22.201  0.00  0.00     0.000 A 
ENDBRANCH  24  25
ENDBRANCH  23  24
ENDBRANCH  22  23
ENDBRANCH  19  22
ENDBRANCH  13  16
ENDBRANCH   9  10
ENDBRANCH   1   9
TORSDOF 10
ENDMDL
MODEL 3
REMARK VINA RESULT:      -3.4      3.512      7.782
REMARK  10 active torsions:
REMARK  status: ('A' for Active; 'I' for Inactive)
REMARK    1  A    between atoms: C_3  and  C_1 
REMARK    2  A    between atoms: C_4  and  C_1 
REMARK    3  A    between atoms: N_2  and  C_8 
REMARK    4  A    between atoms: O_19  and  C_3 
REMARK    5  A    between atoms: C_14  and  C_4 
REMARK    6  A    between atoms: C_20  and  N_7 
REMARK    7  A    between atoms: C_9  and  C_20 
REMARK    8  A    between atoms: C_13  and  C_9 
REMARK    9  A    between atoms: C_23  and  C_13 
REMARK   10  A    between atoms: C_24  and  O_19 
ROOT
ATOM      1  C   UNL d   1     -38.742  14.392  19.808  0.00  0.00     0.132 C 
ATOM      2  C   UNL d   1     -38.367  13.818  20.269  0.00  0.00     0.106 C 
ATOM      3  N   UNL d   1     -37.990  13.242  20.729  0.00  0.00    -0.191 NA
ENDROOT
BRANCH   1   4
ATOM      4  C   UNL d   1     -38.563  14.476  19.017  0.00  0.00     0.310 C 
ATOM      5  O   UNL d   1     -38.409  15.203  18.698  0.00  0.00    -0.258 OA
BRANCH   4   6
ATOM      6  O   UNL d   1     -38.541  13.811  18.538  0.00  0.00    -0.271 OA
BRANCH   6   7
ATOM      7  C   UNL d   1     -38.302  13.882  17.750  0.00  0.00     0.126 C 
ATOM      8  C   UNL d   1     -38.403  13.235  17.238  0.00  0.00     0.029 C 
ENDBRANCH   6   7
ENDBRANCH   4   6
ENDBRANCH   1   4
BRANCH   1   9
ATOM      9  C   UNL d   1     -39.302  14.885  20.148  0.00  0.00     0.016 C 
BRANCH   9  10
ATOM     10  C   UNL d   1     -40.045  14.560  20.385  0.00  0.00     0.001 A 
ATOM     11  C   UNL d   1     -40.661  14.421  19.826  0.00  0.00     0.002 A 
ATOM     12  C   UNL d   1     -41.367  14.107  20.076  0.00  0.00     0.018 A 
ATOM     13  C   UNL d   1     -41.502  13.920  20.859  0.00  0.00     0.064 A 
ATOM     14  C   UNL d   1     -40.912  14.051  21.405  0.00  0.00     0.018 A 
ATOM     15  C   UNL d   1     -40.183  14.371  21.169  0.00  0.00     0.002 A 
BRANCH  13  16
ATOM     16  N   UNL d   1     -42.231  13.600  21.095  0.00  0.00    -0.301 N 
ATOM     17  C   UNL d   1     -42.293  12.812  21.305  0.00  0.00     0.100 A 
ATOM     18  C   UNL d   1     -43.021  12.492  21.542  0.00  0.00     0.100 A 
ATOM     19  N   UNL d   1     -43.689  12.960  21.568  0.00  0.00    -0.300 N 
ATOM     20  C   UNL d   1     -43.638  13.779  21.353  0.00  0.00     0.100 A 
ATOM     21  C   UNL d   1     -42.906  14.081  21.120  0.00  0.00     0.100 A 
BRANCH  19  22
ATOM     22  C   UNL d   1     -44.418  12.639  21.805  0.00  0.00     0.080 C 
BRANCH  22  23
ATOM     23  C   UNL d   1     -45.011  13.134  22.124  0.00  0.00     0.019 C 
BRANCH  23  24
ATOM     24  C   UNL d   1     -45.546  13.000  22.655  0.00  0.00     0.002 C 
BRANCH  24  25
ATOM     25  C   UNL d   1     -46.260  13.390  22.612  0.00  0.00     0.000 A 
ATOM     26  C   UNL d   1     -46.316  14.143  22.909  0.00  0.00     0.000 A 
ATOM     27  C   UNL d   1     -47.032  14.550  22.872  0.00  0.00     0.000 A 
ATOM     28  C   UNL d   1     -47.689  14.198  22.537  0.00  0.00     0.000 A 
ATOM     29  C   UNL d   1     -47.624  13.426  22.235  0.00  0.00     0.000 A 
ATOM     30  C   UNL d   1     -46.904  13.025  22.275  0.00  0.00     0.000 A 
ENDBRANCH  24  25
ENDBRANCH  23  24
ENDBRANCH  22  23
ENDBRANCH  19  22
ENDBRANCH  13  16
ENDBRANCH   9  10
ENDBRANCH   1   9
TORSDOF 10
ENDMDL
