MODEL 1
REMARK VINA RESULT:      -5.7      0.000      0.000
REMARK  3 active torsions:
REMARK  status: ('A' for Active; 'I' for Inactive)
REMARK    1  A    between atoms: N_3  and  S_1 
REMARK    2  A    between atoms: C_5  and  S_1 
REMARK       I    between atoms: C_2  and  N_4 
REMARK       I    between atoms: N_6  and  C_2 
REMARK    3  A    between atoms: C_13  and  N_6 
ROOT
ATOM      1  C   UNL d   1     -48.354  13.252  23.284  0.00  0.00     0.339 C 
ATOM      2  N   UNL d   1     -46.313  11.831  23.358  0.00  0.00    -0.226 N 
ATOM      3  N   UNL d   1     -47.677  12.781  23.309  0.00  0.00    -0.254 N 
ATOM      4  N   UNL d   1     -48.333  13.993  22.922  0.00  0.00    -0.257 N 
ATOM      5  C   UNL d   1     -46.284  12.577  22.992  0.00  0.00     0.111 A 
ATOM      6  C   UNL d   1     -47.018  11.565  23.696  0.00  0.00     0.111 A 
ATOM      7  O   UNL d   1     -49.055  12.970  23.628  0.00  0.00    -0.245 OA
ATOM      8  C   UNL d   1     -46.964  13.050  22.967  0.00  0.00     0.104 A 
ATOM      9  C   UNL d   1     -47.695  12.036  23.671  0.00  0.00     0.104 A 
ATOM     10  C   UNL d   1     -47.638  14.266  22.585  0.00  0.00     0.104 C 
ENDROOT
BRANCH   2  11
ATOM     11  S   UNL d   1     -45.639  11.362  23.383  0.00  0.00     0.271 S 
ATOM     12  O   UNL d   1     -45.175  12.043  23.347  0.00  0.00    -0.200 OA
ATOM     13  O   UNL d   1     -46.118  10.692  23.418  0.00  0.00    -0.200 OA
BRANCH  11  14
ATOM     14  C   UNL d   1     -44.963  10.892  23.407  0.00  0.00     0.104 A 
ATOM     15  C   UNL d   1     -44.246  11.201  23.161  0.00  0.00     0.013 A 
ATOM     16  C   UNL d   1     -43.579  10.737  23.185  0.00  0.00     0.001 A 
ATOM     17  C   UNL d   1     -42.855  11.042  22.939  0.00  0.00     0.000 C 
ATOM     18  C   UNL d   1     -43.619   9.970  23.452  0.00  0.00     0.000 A 
ATOM     19  C   UNL d   1     -44.343   9.666  23.698  0.00  0.00     0.001 A 
ATOM     20  C   UNL d   1     -42.942   9.499  23.476  0.00  0.00     0.000 C 
ATOM     21  C   UNL d   1     -45.010  10.130  23.674  0.00  0.00     0.013 A 
ENDBRANCH  11  14
ENDBRANCH   2  11
BRANCH   4  22
ATOM     22  C   UNL d   1     -49.023  14.460  22.903  0.00  0.00     0.068 A 
ATOM     23  C   UNL d   1     -49.525  14.445  22.247  0.00  0.00     0.018 A 
ATOM     24  C   UNL d   1     -50.204  14.913  22.242  0.00  0.00     0.002 A 
ATOM     25  C   UNL d   1     -50.383  15.394  22.887  0.00  0.00     0.000 A 
ATOM     26  C   UNL d   1     -49.873  15.405  23.547  0.00  0.00     0.002 A 
ATOM     27  C   UNL d   1     -51.063  15.860  22.879  0.00  0.00     0.000 C 
ATOM     28  C   UNL d   1     -49.194  14.935  23.547  0.00  0.00     0.018 A 
ENDBRANCH   4  22
TORSDOF 3
ENDMDL
MODEL 2
REMARK VINA RESULT:      -5.3      1.022      6.095
REMARK  3 active torsions:
REMARK  status: ('A' for Active; 'I' for Inactive)
REMARK    1  A    between atoms: N_3  and  S_1 
REMARK    2  A    between atoms: C_5  and  S_1 
REMARK       I    between atoms: C_2  and  N_4 
REMARK       I    between atoms: N_6  and  C_2 
REMARK    3  A    between atoms: C_13  and  N_6 
ROOT
ATOM      1  C   UNL d   1     -45.610  12.156  22.859  0.00  0.00     0.339 C 
ATOM      2  N   UNL d   1     -47.668  13.553  22.810  0.00  0.00    -0.226 N 
ATOM      3  N   UNL d   1     -46.292  12.619  22.843  0.00  0.00    -0.254 N 
ATOM      4  N   UNL d   1     -45.595  11.449  23.285  0.00  0.00    -0.257 N 
ATOM      5  C   UNL d   1     -47.661  12.843  23.242  0.00  0.00     0.111 A 
ATOM      6  C   UNL d   1     -46.992  13.791  22.399  0.00  0.00     0.111 A 
ATOM      7  O   UNL d   1     -44.939  12.409  22.440  0.00  0.00    -0.245 OA
ATOM      8  C   UNL d   1     -46.975  12.377  23.258  0.00  0.00     0.104 A 
ATOM      9  C   UNL d   1     -46.310  13.328  22.415  0.00  0.00     0.104 A 
ATOM     10  C   UNL d   1     -46.261  11.204  23.696  0.00  0.00     0.104 C 
ENDROOT
BRANCH   2  11
ATOM     11  S   UNL d   1     -48.347  14.014  22.794  0.00  0.00     0.271 S 
ATOM     12  O   UNL d   1     -48.803  13.327  22.837  0.00  0.00    -0.200 OA
ATOM     13  O   UNL d   1     -47.876  14.690  22.753  0.00  0.00    -0.200 OA
BRANCH  11  14
ATOM     14  C   UNL d   1     -49.029  14.477  22.778  0.00  0.00     0.104 A 
ATOM     15  C   UNL d   1     -49.621  14.307  22.239  0.00  0.00     0.013 A 
ATOM     16  C   UNL d   1     -50.293  14.763  22.223  0.00  0.00     0.001 A 
ATOM     17  C   UNL d   1     -50.892  14.597  21.682  0.00  0.00     0.000 C 
ATOM     18  C   UNL d   1     -50.381  15.385  22.738  0.00  0.00     0.000 A 
ATOM     19  C   UNL d   1     -49.783  15.550  23.278  0.00  0.00     0.001 A 
ATOM     20  C   UNL d   1     -51.064  15.848  22.722  0.00  0.00     0.000 C 
ATOM     21  C   UNL d   1     -49.111  15.094  23.294  0.00  0.00     0.013 A 
ENDBRANCH  11  14
ENDBRANCH   2  11
BRANCH   4  22
ATOM     22  C   UNL d   1     -44.901  10.990  23.294  0.00  0.00     0.068 A 
ATOM     23  C   UNL d   1     -44.179  11.310  23.048  0.00  0.00     0.018 A 
ATOM     24  C   UNL d   1     -43.499  10.842  23.063  0.00  0.00     0.002 A 
ATOM     25  C   UNL d   1     -43.537  10.060  23.321  0.00  0.00     0.000 A 
ATOM     26  C   UNL d   1     -44.268   9.743  23.568  0.00  0.00     0.002 A 
ATOM     27  C   UNL d   1     -42.856   9.596  23.334  0.00  0.00     0.000 C 
ATOM     28  C   UNL d   1     -44.945  10.214  23.552  0.00  0.00     0.018 A 
ENDBRANCH   4  22
TORSDOF 3
ENDMDL
MODEL 3
REMARK VINA RESULT:      -3.7      2.227      2.977
REMARK  3 active torsions:
REMARK  status: ('A' for Active; 'I' for Inactive)
REMARK    1  A    between atoms: N_3  and  S_1 
REMARK    2  A    between atoms: C_5  and  S_1 
REMARK       I    between atoms: C_2  and  N_4 
REMARK       I    between atoms: N_6  and  C_2 
REMARK    3  A    between atoms: C_13  and  N_6 
ROOT
ATOM      1  C   UNL d   1     -47.362  12.426  22.942  0.00  0.00     0.339 C 
ATOM      2  N   UNL d   1     -45.049  12.869  22.140  0.00  0.00    -0.226 N 
ATOM      3  N   UNL d   1     -46.595  12.573  22.676  0.00  0.00    -0.254 N 
ATOM      4  N   UNL d   1     -48.005  12.806  22.591  0.00  0.00    -0.257 N 
ATOM      5  C   UNL d   1     -45.691  13.256  21.782  0.00  0.00     0.111 A 
ATOM      6  C   UNL d   1     -45.181  12.340  22.760  0.00  0.00     0.111 A 
ATOM      7  O   UNL d   1     -47.478  11.891  23.566  0.00  0.00    -0.245 OA
ATOM      8  C   UNL d   1     -46.462  13.108  22.049  0.00  0.00     0.104 A 
ATOM      9  C   UNL d   1     -45.948  12.193  23.026  0.00  0.00     0.104 A 
ATOM     10  C   UNL d   1     -47.884  13.334  21.975  0.00  0.00     0.104 C 
ENDROOT
BRANCH   2  11
ATOM     11  S   UNL d   1     -44.286  13.016  21.875  0.00  0.00     0.271 S 
ATOM     12  O   UNL d   1     -44.199  12.212  21.708  0.00  0.00    -0.200 OA
ATOM     13  O   UNL d   1     -44.389  13.816  22.049  0.00  0.00    -0.200 OA
BRANCH  11  14
ATOM     14  C   UNL d   1     -43.519  13.162  21.610  0.00  0.00     0.104 A 
ATOM     15  C   UNL d   1     -43.275  13.934  21.485  0.00  0.00     0.013 A 
ATOM     16  C   UNL d   1     -42.520  14.079  21.223  0.00  0.00     0.001 A 
ATOM     17  C   UNL d   1     -42.269  14.853  21.096  0.00  0.00     0.000 C 
ATOM     18  C   UNL d   1     -42.006  13.465  21.085  0.00  0.00     0.000 A 
ATOM     19  C   UNL d   1     -42.258  12.691  21.212  0.00  0.00     0.001 A 
ATOM     20  C   UNL d   1     -41.239  13.612  20.819  0.00  0.00     0.000 C 
ATOM     21  C   UNL d   1     -43.013  12.547  21.474  0.00  0.00     0.013 A 
ENDBRANCH  11  14
ENDBRANCH   2  11
BRANCH   4  22
ATOM     22  C   UNL d   1     -48.775  12.650  22.868  0.00  0.00     0.068 A 
ATOM     23  C   UNL d   1     -49.137  13.153  23.416  0.00  0.00     0.018 A 
ATOM     24  C   UNL d   1     -49.900  12.985  23.680  0.00  0.00     0.002 A 
ATOM     25  C   UNL d   1     -50.301  12.322  23.402  0.00  0.00     0.000 A 
ATOM     26  C   UNL d   1     -49.931  11.818  22.850  0.00  0.00     0.002 A 
ATOM     27  C   UNL d   1     -51.064  12.157  23.669  0.00  0.00     0.000 C 
ATOM     28  C   UNL d   1     -49.168  11.989  22.587  0.00  0.00     0.018 A 
ENDBRANCH   4  22
TORSDOF 3
ENDMDL
MODEL 4
REMARK VINA RESULT:      -3.5      2.176      5.645
REMARK  3 active torsions:
REMARK  status: ('A' for Active; 'I' for Inactive)
REMARK    1  A    between atoms: N_3  and  S_1 
REMARK    2  A    between atoms: C_5  and  S_1 
REMARK       I    between atoms: C_2  and  N_4 
REMARK       I    between atoms: N_6  and  C_2 
REMARK    3  A    between atoms: C_13  and  N_6 
ROOT
ATOM      1  C   UNL d   1     -44.828  13.499  22.057  0.00  0.00     0.339 C 
ATOM      2  N   UNL d   1     -47.182  12.986  22.678  0.00  0.00    -0.226 N 
ATOM      3  N   UNL d   1     -45.609  13.329  22.263  0.00  0.00    -0.254 N 
ATOM      4  N   UNL d   1     -44.352  12.920  21.712  0.00  0.00    -0.257 N 
ATOM      5  C   UNL d   1     -46.709  12.398  22.330  0.00  0.00     0.111 A 
ATOM      6  C   UNL d   1     -46.869  13.737  22.815  0.00  0.00     0.111 A 
ATOM      7  O   UNL d   1     -44.529  14.260  22.202  0.00  0.00    -0.245 OA
ATOM      8  C   UNL d   1     -45.925  12.569  22.123  0.00  0.00     0.104 A 
ATOM      9  C   UNL d   1     -46.089  13.908  22.610  0.00  0.00     0.104 A 
ATOM     10  C   UNL d   1     -44.654  12.171  21.571  0.00  0.00     0.104 C 
ENDROOT
BRANCH   2  11
ATOM     11  S   UNL d   1     -47.959  12.816  22.882  0.00  0.00     0.271 S 
ATOM     12  O   UNL d   1     -48.149  12.762  22.081  0.00  0.00    -0.200 OA
ATOM     13  O   UNL d   1     -47.752  12.874  23.679  0.00  0.00    -0.200 OA
BRANCH  11  14
ATOM     14  C   UNL d   1     -48.739  12.646  23.088  0.00  0.00     0.104 A 
ATOM     15  C   UNL d   1     -49.306  13.235  23.045  0.00  0.00     0.013 A 
ATOM     16  C   UNL d   1     -50.075  13.067  23.248  0.00  0.00     0.001 A 
ATOM     17  C   UNL d   1     -50.650  13.655  23.207  0.00  0.00     0.000 C 
ATOM     18  C   UNL d   1     -50.284  12.321  23.492  0.00  0.00     0.000 A 
ATOM     19  C   UNL d   1     -49.709  11.733  23.533  0.00  0.00     0.001 A 
ATOM     20  C   UNL d   1     -51.064  12.150  23.698  0.00  0.00     0.000 C 
ATOM     21  C   UNL d   1     -48.940  11.901  23.330  0.00  0.00     0.013 A 
ENDBRANCH  11  14
ENDBRANCH   2  11
BRANCH   4  22
ATOM     22  C   UNL d   1     -43.566  13.104  21.508  0.00  0.00     0.068 A 
ATOM     23  C   UNL d   1     -43.390  13.781  21.067  0.00  0.00     0.018 A 
ATOM     24  C   UNL d   1     -42.606  13.949  20.872  0.00  0.00     0.002 A 
ATOM     25  C   UNL d   1     -42.000  13.447  21.116  0.00  0.00     0.000 A 
ATOM     26  C   UNL d   1     -42.183  12.765  21.561  0.00  0.00     0.002 A 
ATOM     27  C   UNL d   1     -41.217  13.618  20.920  0.00  0.00     0.000 C 
ATOM     28  C   UNL d   1     -42.968  12.600  21.753  0.00  0.00     0.018 A 
ENDBRANCH   4  22
TORSDOF 3
ENDMDL
MODEL 5
REMARK VINA RESULT:      -3.3      3.407      4.728
REMARK  3 active torsions:
REMARK  status: ('A' for Active; 'I' for Inactive)
REMARK    1  A    between atoms: N_3  and  S_1 
REMARK    2  A    between atoms: C_5  and  S_1 
REMARK       I    between atoms: C_2  and  N_4 
REMARK       I    between atoms: N_6  and  C_2 
REMARK    3  A    between atoms: C_13  and  N_6 
ROOT
ATOM      1  C   UNL d   1     -45.031  12.601  22.203  0.00  0.00     0.339 C 
ATOM      2  N   UNL d   1     -42.862  13.390  21.274  0.00  0.00    -0.226 N 
ATOM      3  N   UNL d   1     -44.312  12.863  21.895  0.00  0.00    -0.254 N 
ATOM      4  N   UNL d   1     -45.649  13.134  22.330  0.00  0.00    -0.257 N 
ATOM      5  C   UNL d   1     -43.479  13.932  21.400  0.00  0.00     0.111 A 
ATOM      6  C   UNL d   1     -42.971  12.592  21.458  0.00  0.00     0.111 A 
ATOM      7  O   UNL d   1     -45.125  11.797  22.383  0.00  0.00    -0.245 OA
ATOM      8  C   UNL d   1     -44.202  13.669  21.709  0.00  0.00     0.104 A 
ATOM      9  C   UNL d   1     -43.691  12.331  21.766  0.00  0.00     0.104 A 
ATOM     10  C   UNL d   1     -45.550  13.928  22.151  0.00  0.00     0.104 C 
ENDROOT
BRANCH   2  11
ATOM     11  S   UNL d   1     -42.146  13.650  20.968  0.00  0.00     0.271 S 
ATOM     12  O   UNL d   1     -42.232  14.355  21.389  0.00  0.00    -0.200 OA
ATOM     13  O   UNL d   1     -42.076  12.940  20.553  0.00  0.00    -0.200 OA
BRANCH  11  14
ATOM     14  C   UNL d   1     -41.428  13.911  20.660  0.00  0.00     0.104 A 
ATOM     15  C   UNL d   1     -41.345  14.010  19.851  0.00  0.00     0.013 A 
ATOM     16  C   UNL d   1     -40.638  14.267  19.548  0.00  0.00     0.001 A 
ATOM     17  C   UNL d   1     -40.549  14.368  18.735  0.00  0.00     0.000 C 
ATOM     18  C   UNL d   1     -40.011  14.428  20.040  0.00  0.00     0.000 A 
ATOM     19  C   UNL d   1     -40.101  14.327  20.852  0.00  0.00     0.001 A 
ATOM     20  C   UNL d   1     -39.292  14.689  19.732  0.00  0.00     0.000 C 
ATOM     21  C   UNL d   1     -40.809  14.070  21.155  0.00  0.00     0.013 A 
ENDBRANCH  11  14
ENDBRANCH   2  11
BRANCH   4  22
ATOM     22  C   UNL d   1     -46.370  12.859  22.642  0.00  0.00     0.068 A 
ATOM     23  C   UNL d   1     -46.407  12.536  23.402  0.00  0.00     0.018 A 
ATOM     24  C   UNL d   1     -47.129  12.267  23.697  0.00  0.00     0.002 A 
ATOM     25  C   UNL d   1     -47.811  12.320  23.239  0.00  0.00     0.000 A 
ATOM     26  C   UNL d   1     -47.769  12.646  22.472  0.00  0.00     0.002 A 
ATOM     27  C   UNL d   1     -48.532  12.050  23.537  0.00  0.00     0.000 C 
ATOM     28  C   UNL d   1     -47.045  12.914  22.181  0.00  0.00     0.018 A 
ENDBRANCH   4  22
TORSDOF 3
ENDMDL
MODEL 6
REMARK VINA RESULT:      -3.1      3.365      6.404
REMARK  3 active torsions:
REMARK  status: ('A' for Active; 'I' for Inactive)
REMARK    1  A    between atoms: N_3  and  S_1 
REMARK    2  A    between atoms: C_5  and  S_1 
REMARK       I    between atoms: C_2  and  N_4 
REMARK       I    between atoms: N_6  and  C_2 
REMARK    3  A    between atoms: C_13  and  N_6 
ROOT
ATOM      1  C   UNL d   1     -42.334  13.433  21.082  0.00  0.00     0.339 C 
ATOM      2  N   UNL d   1     -44.656  13.157  21.932  0.00  0.00    -0.226 N 
ATOM      3  N   UNL d   1     -43.104  13.342  21.364  0.00  0.00    -0.254 N 
ATOM      4  N   UNL d   1     -42.024  14.187  20.954  0.00  0.00    -0.257 N 
ATOM      5  C   UNL d   1     -44.351  13.919  21.806  0.00  0.00     0.111 A 
ATOM      6  C   UNL d   1     -44.188  12.495  21.775  0.00  0.00     0.111 A 
ATOM      7  O   UNL d   1     -41.877  12.758  20.929  0.00  0.00    -0.245 OA
ATOM      8  C   UNL d   1     -43.577  14.011  21.522  0.00  0.00     0.104 A 
ATOM      9  C   UNL d   1     -43.418  12.587  21.493  0.00  0.00     0.104 A 
ATOM     10  C   UNL d   1     -42.481  14.851  21.107  0.00  0.00     0.104 C 
ENDROOT
BRANCH   2  11
ATOM     11  S   UNL d   1     -45.422  13.066  22.213  0.00  0.00     0.271 S 
ATOM     12  O   UNL d   1     -45.161  13.274  22.967  0.00  0.00    -0.200 OA
ATOM     13  O   UNL d   1     -45.667  12.861  21.452  0.00  0.00    -0.200 OA
BRANCH  11  14
ATOM     14  C   UNL d   1     -46.191  12.975  22.494  0.00  0.00     0.104 A 
ATOM     15  C   UNL d   1     -46.379  12.324  22.955  0.00  0.00     0.013 A 
ATOM     16  C   UNL d   1     -47.137  12.234  23.233  0.00  0.00     0.001 A 
ATOM     17  C   UNL d   1     -47.332  11.582  23.697  0.00  0.00     0.000 C 
ATOM     18  C   UNL d   1     -47.709  12.784  23.057  0.00  0.00     0.000 A 
ATOM     19  C   UNL d   1     -47.514  13.435  22.593  0.00  0.00     0.001 A 
ATOM     20  C   UNL d   1     -48.479  12.692  23.339  0.00  0.00     0.000 C 
ATOM     21  C   UNL d   1     -46.756  13.525  22.315  0.00  0.00     0.013 A 
ENDBRANCH  11  14
ENDBRANCH   2  11
BRANCH   4  22
ATOM     22  C   UNL d   1     -41.245  14.267  20.669  0.00  0.00     0.068 A 
ATOM     23  C   UNL d   1     -41.094  14.302  19.856  0.00  0.00     0.018 A 
ATOM     24  C   UNL d   1     -40.318  14.382  19.589  0.00  0.00     0.002 A 
ATOM     25  C   UNL d   1     -39.695  14.427  20.127  0.00  0.00     0.000 A 
ATOM     26  C   UNL d   1     -39.853  14.392  20.945  0.00  0.00     0.002 A 
ATOM     27  C   UNL d   1     -38.920  14.507  19.856  0.00  0.00     0.000 C 
ATOM     28  C   UNL d   1     -40.631  14.312  21.208  0.00  0.00     0.018 A 
ENDBRANCH   4  22
TORSDOF 3
ENDMDL
