MODEL 1
REMARK VINA RESULT:      -3.0      0.000      0.000
REMARK  1 active torsions:
REMARK  status: ('A' for Active; 'I' for Inactive)
REMARK    1  A    between atoms: C_6  and  C_2 
ROOT
ATOM      1  C   UNL d   1      30.728  16.225 -23.860  0.00  0.00     0.018 A 
ATOM      2  C   UNL d   1      30.933  17.016 -23.999  0.00  0.00     0.002 A 
ATOM      3  C   UNL d   1      31.708  17.275 -23.858  0.00  0.00     0.000 A 
ATOM      4  C   UNL d   1      31.288  15.702 -23.584  0.00  0.00     0.002 A 
ATOM      5  C   UNL d   1      32.286  16.735 -23.574  0.00  0.00     0.000 A 
ATOM      6  C   UNL d   1      32.075  15.950 -23.438  0.00  0.00     0.000 A 
ATOM      7  C   UNL d   1      31.906  18.059 -23.998  0.00  0.00     0.000 A 
ATOM      8  C   UNL d   1      33.047  16.993 -23.437  0.00  0.00     0.000 A 
ATOM      9  C   UNL d   1      32.681  18.317 -23.857  0.00  0.00     0.000 A 
ATOM     10  C   UNL d   1      33.241  17.795 -23.582  0.00  0.00     0.000 A 
ENDROOT
BRANCH   1  11
ATOM     11  C   UNL d   1      29.956  15.970 -24.000  0.00  0.00     0.090 A 
ATOM     12  N   UNL d   1      29.309  15.971 -23.534  0.00  0.00    -0.219 NA
ATOM     13  C   UNL d   1      28.682  15.648 -23.962  0.00  0.00     0.215 A 
ATOM     14  S   UNL d   1      28.983  15.453 -24.709  0.00  0.00    -0.045 SA
ATOM     15  N   UNL d   1      27.888  15.538 -23.692  0.00  0.00    -0.120 N 
ATOM     16  C   UNL d   1      29.755  15.651 -24.722  0.00  0.00     0.058 A 
ENDBRANCH   1  11
TORSDOF 1
ENDMDL
MODEL 2
REMARK VINA RESULT:      -2.9      4.464      5.729
REMARK  1 active torsions:
REMARK  status: ('A' for Active; 'I' for Inactive)
REMARK    1  A    between atoms: C_6  and  C_2 
ROOT
ATOM      1  C   UNL d   1      33.072  20.567 -21.771  0.00  0.00     0.018 A 
ATOM      2  C   UNL d   1      32.867  21.340 -21.991  0.00  0.00     0.002 A 
ATOM      3  C   UNL d   1      32.808  21.933 -21.414  0.00  0.00     0.000 A 
ATOM      4  C   UNL d   1      33.214  20.390 -20.990  0.00  0.00     0.002 A 
ATOM      5  C   UNL d   1      32.955  21.750 -20.606  0.00  0.00     0.000 A 
ATOM      6  C   UNL d   1      33.157  20.979 -20.397  0.00  0.00     0.000 A 
ATOM      7  C   UNL d   1      32.605  22.696 -21.636  0.00  0.00     0.000 A 
ATOM      8  C   UNL d   1      32.895  22.335 -20.042  0.00  0.00     0.000 A 
ATOM      9  C   UNL d   1      32.546  23.289 -21.058  0.00  0.00     0.000 A 
ATOM     10  C   UNL d   1      32.688  23.111 -20.277  0.00  0.00     0.000 A 
ENDROOT
BRANCH   1  11
ATOM     11  C   UNL d   1      33.130  19.979 -22.348  0.00  0.00     0.090 A 
ATOM     12  N   UNL d   1      33.139  20.023 -23.143  0.00  0.00    -0.219 NA
ATOM     13  C   UNL d   1      33.208  19.257 -23.443  0.00  0.00     0.215 A 
ATOM     14  S   UNL d   1      33.241  18.750 -22.788  0.00  0.00    -0.045 SA
ATOM     15  N   UNL d   1      33.240  19.032 -24.258  0.00  0.00    -0.120 N 
ATOM     16  C   UNL d   1      33.193  19.197 -22.129  0.00  0.00     0.058 A 
ENDBRANCH   1  11
TORSDOF 1
ENDMDL
MODEL 3
REMARK VINA RESULT:      -2.8      6.004      7.347
REMARK  1 active torsions:
REMARK  status: ('A' for Active; 'I' for Inactive)
REMARK    1  A    between atoms: C_6  and  C_2 
ROOT
ATOM      1  C   UNL d   1      33.033  22.198 -20.426  0.00  0.00     0.018 A 
ATOM      2  C   UNL d   1      33.097  21.372 -20.385  0.00  0.00     0.002 A 
ATOM      3  C   UNL d   1      33.137  20.925 -21.083  0.00  0.00     0.000 A 
ATOM      4  C   UNL d   1      33.010  22.569 -21.150  0.00  0.00     0.002 A 
ATOM      5  C   UNL d   1      33.113  21.309 -21.831  0.00  0.00     0.000 A 
ATOM      6  C   UNL d   1      33.049  22.130 -21.862  0.00  0.00     0.000 A 
ATOM      7  C   UNL d   1      33.201  20.108 -21.038  0.00  0.00     0.000 A 
ATOM      8  C   UNL d   1      33.153  20.866 -22.514  0.00  0.00     0.000 A 
ATOM      9  C   UNL d   1      33.241  19.661 -21.735  0.00  0.00     0.000 A 
ATOM     10  C   UNL d   1      33.217  20.032 -22.459  0.00  0.00     0.000 A 
ENDROOT
BRANCH   1  11
ATOM     11  C   UNL d   1      32.993  22.641 -19.731  0.00  0.00     0.090 A 
ATOM     12  N   UNL d   1      33.229  22.474 -18.988  0.00  0.00    -0.219 NA
ATOM     13  C   UNL d   1      33.052  23.123 -18.510  0.00  0.00     0.215 A 
ATOM     14  S   UNL d   1      32.698  23.688 -19.002  0.00  0.00    -0.045 SA
ATOM     15  N   UNL d   1      33.202  23.198 -17.680  0.00  0.00    -0.120 N 
ATOM     16  C   UNL d   1      32.667  23.387 -19.739  0.00  0.00     0.058 A 
ENDBRANCH   1  11
TORSDOF 1
ENDMDL
MODEL 4
REMARK VINA RESULT:      -2.8      2.448      3.721
REMARK  1 active torsions:
REMARK  status: ('A' for Active; 'I' for Inactive)
REMARK    1  A    between atoms: C_6  and  C_2 
ROOT
ATOM      1  C   UNL d   1      32.209  17.681 -23.696  0.00  0.00     0.018 A 
ATOM      2  C   UNL d   1      31.480  17.663 -24.091  0.00  0.00     0.002 A 
ATOM      3  C   UNL d   1      31.124  16.936 -24.269  0.00  0.00     0.000 A 
ATOM      4  C   UNL d   1      32.574  16.985 -23.483  0.00  0.00     0.002 A 
ATOM      5  C   UNL d   1      31.501  16.217 -24.049  0.00  0.00     0.000 A 
ATOM      6  C   UNL d   1      32.225  16.244 -23.657  0.00  0.00     0.000 A 
ATOM      7  C   UNL d   1      30.403  16.923 -24.661  0.00  0.00     0.000 A 
ATOM      8  C   UNL d   1      31.147  15.504 -24.227  0.00  0.00     0.000 A 
ATOM      9  C   UNL d   1      30.046  16.196 -24.839  0.00  0.00     0.000 A 
ATOM     10  C   UNL d   1      30.411  15.500 -24.626  0.00  0.00     0.000 A 
ENDROOT
BRANCH   1  11
ATOM     11  C   UNL d   1      32.563  18.406 -23.519  0.00  0.00     0.090 A 
ATOM     12  N   UNL d   1      32.603  18.818 -22.838  0.00  0.00    -0.219 NA
ATOM     13  C   UNL d   1      33.027  19.511 -22.981  0.00  0.00     0.215 A 
ATOM     14  S   UNL d   1      33.241  19.495 -23.782  0.00  0.00    -0.045 SA
ATOM     15  N   UNL d   1      33.209  20.119 -22.421  0.00  0.00    -0.120 N 
ATOM     16  C   UNL d   1      32.955  18.822 -24.099  0.00  0.00     0.058 A 
ENDBRANCH   1  11
TORSDOF 1
ENDMDL
MODEL 5
REMARK VINA RESULT:      -2.7      3.557      4.903
REMARK  1 active torsions:
REMARK  status: ('A' for Active; 'I' for Inactive)
REMARK    1  A    between atoms: C_6  and  C_2 
ROOT
ATOM      1  C   UNL d   1      33.048  19.864 -22.556  0.00  0.00     0.018 A 
ATOM      2  C   UNL d   1      32.884  20.029 -21.760  0.00  0.00     0.002 A 
ATOM      3  C   UNL d   1      32.898  20.812 -21.488  0.00  0.00     0.000 A 
ATOM      4  C   UNL d   1      33.223  20.470 -23.070  0.00  0.00     0.002 A 
ATOM      5  C   UNL d   1      33.079  21.439 -22.019  0.00  0.00     0.000 A 
ATOM      6  C   UNL d   1      33.241  21.266 -22.808  0.00  0.00     0.000 A 
ATOM      7  C   UNL d   1      32.735  20.970 -20.700  0.00  0.00     0.000 A 
ATOM      8  C   UNL d   1      33.092  22.207 -21.748  0.00  0.00     0.000 A 
ATOM      9  C   UNL d   1      32.750  21.753 -20.428  0.00  0.00     0.000 A 
ATOM     10  C   UNL d   1      32.925  22.360 -20.942  0.00  0.00     0.000 A 
ENDROOT
BRANCH   1  11
ATOM     11  C   UNL d   1      33.033  19.083 -22.825  0.00  0.00     0.090 A 
ATOM     12  N   UNL d   1      33.231  18.400 -22.465  0.00  0.00    -0.219 NA
ATOM     13  C   UNL d   1      33.107  17.783 -22.998  0.00  0.00     0.215 A 
ATOM     14  S   UNL d   1      32.823  18.128 -23.696  0.00  0.00    -0.045 SA
ATOM     15  N   UNL d   1      33.241  16.959 -22.860  0.00  0.00    -0.120 N 
ATOM     16  C   UNL d   1      32.783  18.916 -23.582  0.00  0.00     0.058 A 
ENDBRANCH   1  11
TORSDOF 1
ENDMDL
MODEL 6
REMARK VINA RESULT:      -2.6      6.011      7.258
REMARK  1 active torsions:
REMARK  status: ('A' for Active; 'I' for Inactive)
REMARK    1  A    between atoms: C_6  and  C_2 
ROOT
ATOM      1  C   UNL d   1      32.771  21.996 -20.600  0.00  0.00     0.018 A 
ATOM      2  C   UNL d   1      33.058  21.856 -19.835  0.00  0.00     0.002 A 
ATOM      3  C   UNL d   1      32.950  22.426 -19.242  0.00  0.00     0.000 A 
ATOM      4  C   UNL d   1      32.384  22.692 -20.769  0.00  0.00     0.002 A 
ATOM      5  C   UNL d   1      32.550  23.145 -19.417  0.00  0.00     0.000 A 
ATOM      6  C   UNL d   1      32.268  23.275 -20.180  0.00  0.00     0.000 A 
ATOM      7  C   UNL d   1      33.235  22.283 -18.486  0.00  0.00     0.000 A 
ATOM      8  C   UNL d   1      32.446  23.702 -18.831  0.00  0.00     0.000 A 
ATOM      9  C   UNL d   1      33.127  22.852 -17.893  0.00  0.00     0.000 A 
ATOM     10  C   UNL d   1      32.740  23.548 -18.062  0.00  0.00     0.000 A 
ENDROOT
BRANCH   1  11
ATOM     11  C   UNL d   1      32.879  21.428 -21.189  0.00  0.00     0.090 A 
ATOM     12  N   UNL d   1      32.723  20.646 -21.199  0.00  0.00    -0.219 NA
ATOM     13  C   UNL d   1      32.943  20.349 -21.937  0.00  0.00     0.215 A 
ATOM     14  S   UNL d   1      33.240  20.991 -22.370  0.00  0.00    -0.045 SA
ATOM     15  N   UNL d   1      32.880  19.547 -22.201  0.00  0.00    -0.120 N 
ATOM     16  C   UNL d   1      33.196  21.639 -21.909  0.00  0.00     0.058 A 
ENDBRANCH   1  11
TORSDOF 1
ENDMDL
MODEL 7
REMARK VINA RESULT:      -2.6      2.539      3.783
REMARK  1 active torsions:
REMARK  status: ('A' for Active; 'I' for Inactive)
REMARK    1  A    between atoms: C_6  and  C_2 
ROOT
ATOM      1  C   UNL d   1      32.914  18.625 -23.252  0.00  0.00     0.018 A 
ATOM      2  C   UNL d   1      32.871  18.890 -22.467  0.00  0.00     0.002 A 
ATOM      3  C   UNL d   1      32.978  19.695 -22.295  0.00  0.00     0.000 A 
ATOM      4  C   UNL d   1      33.062  19.154 -23.853  0.00  0.00     0.002 A 
ATOM      5  C   UNL d   1      33.131  20.241 -22.916  0.00  0.00     0.000 A 
ATOM      6  C   UNL d   1      33.172  19.969 -23.693  0.00  0.00     0.000 A 
ATOM      7  C   UNL d   1      32.935  19.952 -21.517  0.00  0.00     0.000 A 
ATOM      8  C   UNL d   1      33.236  21.030 -22.743  0.00  0.00     0.000 A 
ATOM      9  C   UNL d   1      33.043  20.756 -21.345  0.00  0.00     0.000 A 
ATOM     10  C   UNL d   1      33.191  21.285 -21.946  0.00  0.00     0.000 A 
ENDROOT
BRANCH   1  11
ATOM     11  C   UNL d   1      32.806  17.824 -23.421  0.00  0.00     0.090 A 
ATOM     12  N   UNL d   1      33.226  17.182 -23.206  0.00  0.00    -0.219 NA
ATOM     13  C   UNL d   1      32.865  16.517 -23.535  0.00  0.00     0.215 A 
ATOM     14  S   UNL d   1      32.207  16.791 -23.958  0.00  0.00    -0.045 SA
ATOM     15  N   UNL d   1      33.116  15.712 -23.456  0.00  0.00    -0.120 N 
ATOM     16  C   UNL d   1      32.180  17.584 -23.883  0.00  0.00     0.058 A 
ENDBRANCH   1  11
TORSDOF 1
ENDMDL
MODEL 8
REMARK VINA RESULT:      -2.5      0.936      1.488
REMARK  1 active torsions:
REMARK  status: ('A' for Active; 'I' for Inactive)
REMARK    1  A    between atoms: C_6  and  C_2 
ROOT
ATOM      1  C   UNL d   1      29.789  16.903 -24.237  0.00  0.00     0.018 A 
ATOM      2  C   UNL d   1      30.495  16.789 -23.817  0.00  0.00     0.002 A 
ATOM      3  C   UNL d   1      31.179  17.204 -24.036  0.00  0.00     0.000 A 
ATOM      4  C   UNL d   1      29.768  17.421 -24.865  0.00  0.00     0.002 A 
ATOM      5  C   UNL d   1      31.156  17.740 -24.684  0.00  0.00     0.000 A 
ATOM      6  C   UNL d   1      30.451  17.846 -25.096  0.00  0.00     0.000 A 
ATOM      7  C   UNL d   1      31.875  17.088 -23.617  0.00  0.00     0.000 A 
ATOM      8  C   UNL d   1      31.831  18.145 -24.896  0.00  0.00     0.000 A 
ATOM      9  C   UNL d   1      32.559  17.503 -23.836  0.00  0.00     0.000 A 
ATOM     10  C   UNL d   1      32.537  18.021 -24.464  0.00  0.00     0.000 A 
ENDROOT
BRANCH   1  11
ATOM     11  C   UNL d   1      29.109  16.489 -24.018  0.00  0.00     0.090 A 
ATOM     12  N   UNL d   1      28.479  16.709 -23.583  0.00  0.00    -0.219 NA
ATOM     13  C   UNL d   1      27.960  16.069 -23.539  0.00  0.00     0.215 A 
ATOM     14  S   UNL d   1      28.310  15.453 -23.969  0.00  0.00    -0.045 SA
ATOM     15  N   UNL d   1      27.217  16.044 -23.135  0.00  0.00    -0.120 N 
ATOM     16  C   UNL d   1      29.005  15.717 -24.255  0.00  0.00     0.058 A 
ENDBRANCH   1  11
TORSDOF 1
ENDMDL
MODEL 9
REMARK VINA RESULT:      -2.5      3.997      5.146
REMARK  1 active torsions:
REMARK  status: ('A' for Active; 'I' for Inactive)
REMARK    1  A    between atoms: C_6  and  C_2 
ROOT
ATOM      1  C   UNL d   1      33.045  19.951 -22.240  0.00  0.00     0.018 A 
ATOM      2  C   UNL d   1      32.917  19.849 -23.053  0.00  0.00     0.002 A 
ATOM      3  C   UNL d   1      32.950  19.090 -23.386  0.00  0.00     0.000 A 
ATOM      4  C   UNL d   1      33.204  19.307 -21.769  0.00  0.00     0.002 A 
ATOM      5  C   UNL d   1      33.114  18.425 -22.899  0.00  0.00     0.000 A 
ATOM      6  C   UNL d   1      33.240  18.535 -22.093  0.00  0.00     0.000 A 
ATOM      7  C   UNL d   1      32.823  18.995 -24.191  0.00  0.00     0.000 A 
ATOM      8  C   UNL d   1      33.147  17.680 -23.230  0.00  0.00     0.000 A 
ATOM      9  C   UNL d   1      32.857  18.236 -24.524  0.00  0.00     0.000 A 
ATOM     10  C   UNL d   1      33.015  17.591 -24.052  0.00  0.00     0.000 A 
ENDROOT
BRANCH   1  11
ATOM     11  C   UNL d   1      33.011  20.708 -21.911  0.00  0.00     0.090 A 
ATOM     12  N   UNL d   1      33.240  21.415 -22.197  0.00  0.00    -0.219 NA
ATOM     13  C   UNL d   1      33.074  21.989 -21.628  0.00  0.00     0.215 A 
ATOM     14  S   UNL d   1      32.733  21.592 -20.986  0.00  0.00    -0.045 SA
ATOM     15  N   UNL d   1      33.222  22.820 -21.687  0.00  0.00    -0.120 N 
ATOM     16  C   UNL d   1      32.699  20.816 -21.167  0.00  0.00     0.058 A 
ENDBRANCH   1  11
TORSDOF 1
ENDMDL
