MODEL 1
REMARK VINA RESULT:      66.5      0.000      0.000
REMARK  8 active torsions:
REMARK  status: ('A' for Active; 'I' for Inactive)
REMARK    1  A    between atoms: C_20  and  N_7 
REMARK    2  A    between atoms: C_10  and  C_8 
REMARK       I    between atoms: N_18  and  C_10 
REMARK    3  A    between atoms: N_14  and  C_22 
REMARK    4  A    between atoms: C_21  and  N_18 
REMARK    5  A    between atoms: C_23  and  C_20 
REMARK    6  A    between atoms: C_22  and  C_21 
REMARK    7  A    between atoms: C_30  and  C_23 
REMARK    8  A    between atoms: O_27  and  C_30 
ROOT
ATOM      1  C   UNL d   1     -51.439  25.575  33.507  0.00  0.00     0.154 A 
ATOM      2  C   UNL d   1     -52.071  26.104  33.515  0.00  0.00     0.093 A 
ATOM      3  N   UNL d   1     -51.574  24.780  33.452  0.00  0.00    -0.210 NA
ATOM      4  N   UNL d   1     -52.958  25.047  33.414  0.00  0.00    -0.258 N 
ATOM      5  C   UNL d   1     -52.326  24.517  33.406  0.00  0.00     0.152 A 
ATOM      6  C   UNL d   1     -52.834  25.846  33.469  0.00  0.00     0.269 A 
ATOM      7  N   UNL d   1     -50.690  25.834  33.552  0.00  0.00    -0.285 N 
ATOM      8  C   UNL d   1     -50.560  26.622  33.607  0.00  0.00     0.137 A 
ATOM      9  C   UNL d   1     -51.182  27.144  33.615  0.00  0.00     0.031 A 
ATOM     10  C   UNL d   1     -52.457  23.736  33.352  0.00  0.00     0.035 A 
ATOM     11  C   UNL d   1     -53.722  24.795  33.369  0.00  0.00     0.084 A 
ATOM     12  O   UNL d   1     -53.466  26.375  33.478  0.00  0.00    -0.266 OA
ATOM     13  C   UNL d   1     -53.836  24.000  33.314  0.00  0.00     0.019 A 
ATOM     14  C   UNL d   1     -53.204  23.470  33.306  0.00  0.00     0.005 A 
ATOM     15  C   UNL d   1     -51.809  23.204  33.344  0.00  0.00     0.003 C 
ENDROOT
BRANCH   8  16
ATOM     16  C   UNL d   1     -49.791  26.887  33.653  0.00  0.00     0.344 C 
ATOM     17  O   UNL d   1     -49.184  26.448  33.317  0.00  0.00    -0.249 OA
ATOM     18  N   UNL d   1     -49.635  27.607  34.047  0.00  0.00    -0.359 NA
BRANCH  18  19
ATOM     19  C   UNL d   1     -49.471  28.323  34.437  0.00  0.00     0.184 C 
BRANCH  19  20
ATOM     20  C   UNL d   1     -48.845  28.366  34.992  0.00  0.00     0.116 C 
BRANCH  20  21
ATOM     21  N   UNL d   1     -48.266  28.964  34.916  0.00  0.00    -0.297 N 
ATOM     22  C   UNL d   1     -47.864  29.548  34.475  0.00  0.00     0.107 A 
ATOM     23  C   UNL d   1     -47.249  29.994  34.829  0.00  0.00     0.142 A 
ATOM     24  O   UNL d   1     -47.036  29.851  35.633  0.00  0.00    -0.300 OA
ATOM     25  C   UNL d   1     -47.442  29.261  36.078  0.00  0.00     0.142 A 
ATOM     26  C   UNL d   1     -48.056  28.818  35.719  0.00  0.00     0.107 A 
ENDBRANCH  20  21
ENDBRANCH  19  20
ENDBRANCH  18  19
ENDBRANCH   8  16
BRANCH   7  27
ATOM     27  C   UNL d   1     -50.057  25.292  33.543  0.00  0.00     0.084 C 
BRANCH  27  28
ATOM     28  C   UNL d   1     -49.386  25.424  34.015  0.00  0.00     0.045 C 
BRANCH  28  29
ATOM     29  C   UNL d   1     -49.048  24.791  34.437  0.00  0.00     0.118 C 
BRANCH  29  30
ATOM     30  O   UNL d   1     -48.990  24.043  34.078  0.00  0.00    -0.326 OA
ATOM     31  C   UNL d   1     -48.544  23.952  33.374  0.00  0.00     0.181 C 
ENDBRANCH  29  30
ENDBRANCH  28  29
ENDBRANCH  27  28
ENDBRANCH   7  27
TORSDOF 8
ENDMDL
MODEL 2
REMARK VINA RESULT:      69.2      1.121      2.122
REMARK  8 active torsions:
REMARK  status: ('A' for Active; 'I' for Inactive)
REMARK    1  A    between atoms: C_20  and  N_7 
REMARK    2  A    between atoms: C_10  and  C_8 
REMARK       I    between atoms: N_18  and  C_10 
REMARK    3  A    between atoms: N_14  and  C_22 
REMARK    4  A    between atoms: C_21  and  N_18 
REMARK    5  A    between atoms: C_23  and  C_20 
REMARK    6  A    between atoms: C_22  and  C_21 
REMARK    7  A    between atoms: C_30  and  C_23 
REMARK    8  A    between atoms: O_27  and  C_30 
ROOT
ATOM      1  C   UNL d   1     -50.679  25.738  33.547  0.00  0.00     0.154 A 
ATOM      2  C   UNL d   1     -50.083  25.174  33.467  0.00  0.00     0.093 A 
ATOM      3  N   UNL d   1     -51.455  25.514  33.545  0.00  0.00    -0.210 NA
ATOM      4  N   UNL d   1     -51.038  24.176  33.387  0.00  0.00    -0.258 N 
ATOM      5  C   UNL d   1     -51.635  24.740  33.466  0.00  0.00     0.152 A 
ATOM      6  C   UNL d   1     -50.257  24.390  33.387  0.00  0.00     0.269 A 
ATOM      7  N   UNL d   1     -50.503  26.508  33.625  0.00  0.00    -0.285 N 
ATOM      8  C   UNL d   1     -49.732  26.727  33.626  0.00  0.00     0.137 A 
ATOM      9  C   UNL d   1     -49.146  26.171  33.548  0.00  0.00     0.031 A 
ATOM     10  C   UNL d   1     -52.398  24.522  33.465  0.00  0.00     0.035 A 
ATOM     11  C   UNL d   1     -51.206  23.392  33.306  0.00  0.00     0.084 A 
ATOM     12  O   UNL d   1     -49.661  23.826  33.307  0.00  0.00    -0.266 OA
ATOM     13  C   UNL d   1     -51.984  23.188  33.307  0.00  0.00     0.019 A 
ATOM     14  C   UNL d   1     -52.581  23.753  33.386  0.00  0.00     0.005 A 
ATOM     15  C   UNL d   1     -52.998  25.101  33.546  0.00  0.00     0.003 C 
ENDROOT
BRANCH   8  16
ATOM     16  C   UNL d   1     -49.553  27.517  33.707  0.00  0.00     0.344 C 
ATOM     17  O   UNL d   1     -49.995  28.082  33.307  0.00  0.00    -0.249 OA
ATOM     18  N   UNL d   1     -48.917  27.739  34.202  0.00  0.00    -0.359 NA
BRANCH  18  19
ATOM     19  C   UNL d   1     -48.285  27.967  34.692  0.00  0.00     0.184 C 
BRANCH  19  20
ATOM     20  C   UNL d   1     -48.431  28.414  35.386  0.00  0.00     0.116 C 
BRANCH  20  21
ATOM     21  N   UNL d   1     -48.145  29.197  35.439  0.00  0.00    -0.297 N 
ATOM     22  C   UNL d   1     -48.263  30.021  35.515  0.00  0.00     0.107 A 
ATOM     23  C   UNL d   1     -47.605  30.540  35.529  0.00  0.00     0.142 A 
ATOM     24  O   UNL d   1     -46.823  30.228  35.467  0.00  0.00    -0.300 OA
ATOM     25  C   UNL d   1     -46.705  29.397  35.391  0.00  0.00     0.142 A 
ATOM     26  C   UNL d   1     -47.366  28.883  35.377  0.00  0.00     0.107 A 
ENDBRANCH  20  21
ENDBRANCH  19  20
ENDBRANCH  18  19
ENDBRANCH   8  16
BRANCH   7  27
ATOM     27  C   UNL d   1     -51.111  27.072  33.705  0.00  0.00     0.084 C 
BRANCH  27  28
ATOM     28  C   UNL d   1     -51.531  27.136  34.420  0.00  0.00     0.045 C 
BRANCH  28  29
ATOM     29  C   UNL d   1     -51.251  26.743  35.099  0.00  0.00     0.118 C 
BRANCH  29  30
ATOM     30  O   UNL d   1     -51.352  27.093  35.846  0.00  0.00    -0.326 OA
ATOM     31  C   UNL d   1     -51.101  26.687  36.535  0.00  0.00     0.181 C 
ENDBRANCH  29  30
ENDBRANCH  28  29
ENDBRANCH  27  28
ENDBRANCH   7  27
TORSDOF 8
ENDMDL
