MODEL 1
REMARK VINA RESULT:      -2.2      0.000      0.000
REMARK  5 active torsions:
REMARK  status: ('A' for Active; 'I' for Inactive)
REMARK    1  A    between atoms: C_7  and  N_1 
REMARK    2  A    between atoms: C_14  and  N_5 
REMARK    3  A    between atoms: C_8  and  C_7 
REMARK    4  A    between atoms: C_16  and  C_14 
REMARK    5  A    between atoms: O_15  and  C_16 
ROOT
ATOM      1  N   UNL d   1      32.326  16.604 -23.832  0.00  0.00    -0.273 N 
ATOM      2  C   UNL d   1      32.476  15.854 -24.175  0.00  0.00     0.153 A 
ATOM      3  S   UNL d   1      31.874  15.453 -24.554  0.00  0.00    -0.039 SA
ATOM      4  C   UNL d   1      31.578  16.938 -23.874  0.00  0.00     0.168 A 
ATOM      5  N   UNL d   1      30.969  16.528 -24.259  0.00  0.00    -0.280 N 
ATOM      6  C   UNL d   1      31.118  15.779 -24.602  0.00  0.00     0.120 A 
ATOM      7  S   UNL d   1      33.241  15.522 -24.128  0.00  0.00    -0.052 SA
ENDROOT
BRANCH   1   8
ATOM      8  C   UNL d   1      32.945  17.002 -23.451  0.00  0.00     0.107 C 
BRANCH   8   9
ATOM      9  C   UNL d   1      32.982  17.829 -23.451  0.00  0.00     0.118 A 
ATOM     10  O   UNL d   1      33.159  18.305 -24.106  0.00  0.00    -0.304 OA
ATOM     11  C   UNL d   1      33.134  19.091 -23.853  0.00  0.00     0.123 A 
ATOM     12  C   UNL d   1      32.947  19.101 -23.060  0.00  0.00     0.029 A 
ATOM     13  C   UNL d   1      32.853  18.321 -22.809  0.00  0.00     0.028 A 
ENDBRANCH   8   9
ENDBRANCH   1   8
BRANCH   5  14
ATOM     14  C   UNL d   1      30.215  16.850 -24.308  0.00  0.00     0.108 C 
BRANCH  14  15
ATOM     15  C   UNL d   1      29.582  16.474 -23.934  0.00  0.00     0.135 C 
BRANCH  15  16
ATOM     16  O   UNL d   1      28.854  16.856 -23.883  0.00  0.00    -0.325 OA
ATOM     17  C   UNL d   1      28.227  16.484 -23.511  0.00  0.00     0.182 C 
ENDBRANCH  15  16
ENDBRANCH  14  15
ENDBRANCH   5  14
TORSDOF 5
ENDMDL
MODEL 2
REMARK VINA RESULT:      -2.1      1.058      3.358
REMARK  5 active torsions:
REMARK  status: ('A' for Active; 'I' for Inactive)
REMARK    1  A    between atoms: C_7  and  N_1 
REMARK    2  A    between atoms: C_14  and  N_5 
REMARK    3  A    between atoms: C_8  and  C_7 
REMARK    4  A    between atoms: C_16  and  C_14 
REMARK    5  A    between atoms: O_15  and  C_16 
ROOT
ATOM      1  N   UNL d   1      31.857  16.820 -24.067  0.00  0.00    -0.273 N 
ATOM      2  C   UNL d   1      32.422  16.297 -23.738  0.00  0.00     0.153 A 
ATOM      3  S   UNL d   1      33.039  16.592 -23.292  0.00  0.00    -0.039 SA
ATOM      4  C   UNL d   1      31.919  17.629 -23.943  0.00  0.00     0.168 A 
ATOM      5  N   UNL d   1      32.546  17.927 -23.491  0.00  0.00    -0.280 N 
ATOM      6  C   UNL d   1      33.111  17.403 -23.162  0.00  0.00     0.120 A 
ATOM      7  S   UNL d   1      32.352  15.475 -23.868  0.00  0.00    -0.052 SA
ENDROOT
BRANCH   1   8
ATOM      8  C   UNL d   1      31.235  16.509 -24.517  0.00  0.00     0.107 C 
BRANCH   8   9
ATOM      9  C   UNL d   1      30.483  16.855 -24.501  0.00  0.00     0.118 A 
ATOM     10  O   UNL d   1      29.923  16.764 -23.897  0.00  0.00    -0.304 OA
ATOM     11  C   UNL d   1      29.257  17.205 -24.111  0.00  0.00     0.123 A 
ATOM     12  C   UNL d   1      29.403  17.559 -24.830  0.00  0.00     0.029 A 
ATOM     13  C   UNL d   1      30.161  17.344 -25.073  0.00  0.00     0.028 A 
ENDBRANCH   8   9
ENDBRANCH   1   8
BRANCH   5  14
ATOM     14  C   UNL d   1      32.621  18.734 -23.359  0.00  0.00     0.108 C 
BRANCH  14  15
ATOM     15  C   UNL d   1      32.880  19.008 -22.624  0.00  0.00     0.135 C 
BRANCH  15  16
ATOM     16  O   UNL d   1      32.979  19.817 -22.504  0.00  0.00    -0.325 OA
ATOM     17  C   UNL d   1      32.997  20.113 -21.742  0.00  0.00     0.182 C 
ENDBRANCH  15  16
ENDBRANCH  14  15
ENDBRANCH   5  14
TORSDOF 5
ENDMDL
MODEL 3
REMARK VINA RESULT:      -1.6      1.182      3.431
REMARK  5 active torsions:
REMARK  status: ('A' for Active; 'I' for Inactive)
REMARK    1  A    between atoms: C_7  and  N_1 
REMARK    2  A    between atoms: C_14  and  N_5 
REMARK    3  A    between atoms: C_8  and  C_7 
REMARK    4  A    between atoms: C_16  and  C_14 
REMARK    5  A    between atoms: O_15  and  C_16 
ROOT
ATOM      1  N   UNL d   1      30.950  16.479 -24.166  0.00  0.00    -0.273 N 
ATOM      2  C   UNL d   1      31.412  16.046 -23.618  0.00  0.00     0.153 A 
ATOM      3  S   UNL d   1      32.210  16.205 -23.543  0.00  0.00    -0.039 SA
ATOM      4  C   UNL d   1      31.293  17.064 -24.628  0.00  0.00     0.168 A 
ATOM      5  N   UNL d   1      32.103  17.223 -24.551  0.00  0.00    -0.280 N 
ATOM      6  C   UNL d   1      32.565  16.790 -24.003  0.00  0.00     0.120 A 
ATOM      7  S   UNL d   1      31.055  15.453 -23.151  0.00  0.00    -0.052 SA
ENDROOT
BRANCH   1   8
ATOM      8  C   UNL d   1      30.141  16.309 -24.233  0.00  0.00     0.107 C 
BRANCH   8   9
ATOM      9  C   UNL d   1      29.590  16.910 -24.373  0.00  0.00     0.118 A 
ATOM     10  O   UNL d   1      29.271  17.416 -23.799  0.00  0.00    -0.304 OA
ATOM     11  C   UNL d   1      28.748  17.926 -24.184  0.00  0.00     0.123 A 
ATOM     12  C   UNL d   1      28.744  17.741 -24.978  0.00  0.00     0.029 A 
ATOM     13  C   UNL d   1      29.265  17.113 -25.097  0.00  0.00     0.028 A 
ENDBRANCH   8   9
ENDBRANCH   1   8
BRANCH   5  14
ATOM     14  C   UNL d   1      32.460  17.805 -25.007  0.00  0.00     0.108 C 
BRANCH  14  15
ATOM     15  C   UNL d   1      32.679  18.523 -24.661  0.00  0.00     0.135 C 
BRANCH  15  16
ATOM     16  O   UNL d   1      33.129  19.062 -25.091  0.00  0.00    -0.325 OA
ATOM     17  C   UNL d   1      32.963  19.861 -25.037  0.00  0.00     0.182 C 
ENDBRANCH  15  16
ENDBRANCH  14  15
ENDBRANCH   5  14
TORSDOF 5
ENDMDL
MODEL 4
REMARK VINA RESULT:      -1.4      3.845      5.133
REMARK  5 active torsions:
REMARK  status: ('A' for Active; 'I' for Inactive)
REMARK    1  A    between atoms: C_7  and  N_1 
REMARK    2  A    between atoms: C_14  and  N_5 
REMARK    3  A    between atoms: C_8  and  C_7 
REMARK    4  A    between atoms: C_16  and  C_14 
REMARK    5  A    between atoms: O_15  and  C_16 
ROOT
ATOM      1  N   UNL d   1      33.240  21.757 -22.599  0.00  0.00    -0.273 N 
ATOM      2  C   UNL d   1      33.239  21.912 -23.423  0.00  0.00     0.153 A 
ATOM      3  S   UNL d   1      33.239  21.291 -23.953  0.00  0.00    -0.039 SA
ATOM      4  C   UNL d   1      33.240  20.985 -22.322  0.00  0.00     0.168 A 
ATOM      5  N   UNL d   1      33.240  20.357 -22.862  0.00  0.00    -0.280 N 
ATOM      6  C   UNL d   1      33.239  20.511 -23.686  0.00  0.00     0.120 A 
ATOM      7  S   UNL d   1      33.239  22.701 -23.697  0.00  0.00    -0.052 SA
ENDROOT
BRANCH   1   8
ATOM      8  C   UNL d   1      33.240  22.395 -22.070  0.00  0.00     0.107 C 
BRANCH   8   9
ATOM      9  C   UNL d   1      32.866  22.337 -21.334  0.00  0.00     0.118 A 
ATOM     10  O   UNL d   1      32.061  22.182 -21.213  0.00  0.00    -0.304 OA
ATOM     11  C   UNL d   1      31.933  22.174 -20.396  0.00  0.00     0.123 A 
ATOM     12  C   UNL d   1      32.642  22.321 -20.022  0.00  0.00     0.029 A 
ATOM     13  C   UNL d   1      33.221  22.422 -20.601  0.00  0.00     0.028 A 
ENDBRANCH   8   9
ENDBRANCH   1   8
BRANCH   5  14
ATOM     14  C   UNL d   1      33.240  19.579 -22.600  0.00  0.00     0.108 C 
BRANCH  14  15
ATOM     15  C   UNL d   1      32.880  18.991 -23.055  0.00  0.00     0.135 C 
BRANCH  15  16
ATOM     16  O   UNL d   1      32.776  18.238 -22.738  0.00  0.00    -0.325 OA
ATOM     17  C   UNL d   1      32.669  17.599 -23.238  0.00  0.00     0.182 C 
ENDBRANCH  15  16
ENDBRANCH  14  15
ENDBRANCH   5  14
TORSDOF 5
ENDMDL
MODEL 5
REMARK VINA RESULT:      -0.8      3.181      4.915
REMARK  5 active torsions:
REMARK  status: ('A' for Active; 'I' for Inactive)
REMARK    1  A    between atoms: C_7  and  N_1 
REMARK    2  A    between atoms: C_14  and  N_5 
REMARK    3  A    between atoms: C_8  and  C_7 
REMARK    4  A    between atoms: C_16  and  C_14 
REMARK    5  A    between atoms: O_15  and  C_16 
ROOT
ATOM      1  N   UNL d   1      33.232  19.873 -23.069  0.00  0.00    -0.273 N 
ATOM      2  C   UNL d   1      33.231  20.176 -22.288  0.00  0.00     0.153 A 
ATOM      3  S   UNL d   1      33.234  20.984 -22.165  0.00  0.00    -0.039 SA
ATOM      4  C   UNL d   1      33.235  20.382 -23.712  0.00  0.00     0.168 A 
ATOM      5  N   UNL d   1      33.238  21.201 -23.585  0.00  0.00    -0.280 N 
ATOM      6  C   UNL d   1      33.237  21.504 -22.804  0.00  0.00     0.120 A 
ATOM      7  S   UNL d   1      33.228  19.651 -21.638  0.00  0.00    -0.052 SA
ENDROOT
BRANCH   1   8
ATOM      8  C   UNL d   1      33.229  19.051 -23.180  0.00  0.00     0.107 C 
BRANCH   8   9
ATOM      9  C   UNL d   1      32.864  18.714 -23.843  0.00  0.00     0.118 A 
ATOM     10  O   UNL d   1      32.056  18.547 -23.916  0.00  0.00    -0.304 OA
ATOM     11  C   UNL d   1      31.941  18.215 -24.665  0.00  0.00     0.123 A 
ATOM     12  C   UNL d   1      32.661  18.179 -25.044  0.00  0.00     0.029 A 
ATOM     13  C   UNL d   1      33.234  18.487 -24.537  0.00  0.00     0.028 A 
ENDBRANCH   8   9
ENDBRANCH   1   8
BRANCH   5  14
ATOM     14  C   UNL d   1      33.241  21.722 -24.220  0.00  0.00     0.108 C 
BRANCH  14  15
ATOM     15  C   UNL d   1      33.151  22.532 -24.086  0.00  0.00     0.135 C 
BRANCH  15  16
ATOM     16  O   UNL d   1      33.217  23.058 -24.717  0.00  0.00    -0.325 OA
ATOM     17  C   UNL d   1      32.712  23.700 -24.763  0.00  0.00     0.182 C 
ENDBRANCH  15  16
ENDBRANCH  14  15
ENDBRANCH   5  14
TORSDOF 5
ENDMDL
MODEL 6
REMARK VINA RESULT:      -0.6      2.363      3.232
REMARK  5 active torsions:
REMARK  status: ('A' for Active; 'I' for Inactive)
REMARK    1  A    between atoms: C_7  and  N_1 
REMARK    2  A    between atoms: C_14  and  N_5 
REMARK    3  A    between atoms: C_8  and  C_7 
REMARK    4  A    between atoms: C_16  and  C_14 
REMARK    5  A    between atoms: O_15  and  C_16 
ROOT
ATOM      1  N   UNL d   1      33.082  19.838 -23.725  0.00  0.00    -0.273 N 
ATOM      2  C   UNL d   1      33.074  19.981 -24.550  0.00  0.00     0.153 A 
ATOM      3  S   UNL d   1      32.930  19.367 -25.069  0.00  0.00    -0.039 SA
ATOM      4  C   UNL d   1      32.945  19.083 -23.434  0.00  0.00     0.168 A 
ATOM      5  N   UNL d   1      32.799  18.461 -23.962  0.00  0.00    -0.280 N 
ATOM      6  C   UNL d   1      32.792  18.605 -24.787  0.00  0.00     0.120 A 
ATOM      7  S   UNL d   1      33.214  20.753 -24.838  0.00  0.00    -0.052 SA
ENDROOT
BRANCH   1   8
ATOM      8  C   UNL d   1      33.229  20.469 -23.208  0.00  0.00     0.107 C 
BRANCH   8   9
ATOM      9  C   UNL d   1      32.985  20.438 -22.418  0.00  0.00     0.118 A 
ATOM     10  O   UNL d   1      33.241  19.886 -21.855  0.00  0.00    -0.304 OA
ATOM     11  C   UNL d   1      32.855  20.062 -21.146  0.00  0.00     0.123 A 
ATOM     12  C   UNL d   1      32.373  20.707 -21.268  0.00  0.00     0.029 A 
ATOM     13  C   UNL d   1      32.451  20.941 -22.054  0.00  0.00     0.028 A 
ENDBRANCH   8   9
ENDBRANCH   1   8
BRANCH   5  14
ATOM     14  C   UNL d   1      32.661  17.701 -23.685  0.00  0.00     0.108 C 
BRANCH  14  15
ATOM     15  C   UNL d   1      31.886  17.431 -23.593  0.00  0.00     0.135 C 
BRANCH  15  16
ATOM     16  O   UNL d   1      31.751  16.669 -23.311  0.00  0.00    -0.325 OA
ATOM     17  C   UNL d   1      31.031  16.307 -23.454  0.00  0.00     0.182 C 
ENDBRANCH  15  16
ENDBRANCH  14  15
ENDBRANCH   5  14
TORSDOF 5
ENDMDL
MODEL 7
REMARK VINA RESULT:      -0.5      4.497      6.084
REMARK  5 active torsions:
REMARK  status: ('A' for Active; 'I' for Inactive)
REMARK    1  A    between atoms: C_7  and  N_1 
REMARK    2  A    between atoms: C_14  and  N_5 
REMARK    3  A    between atoms: C_8  and  C_7 
REMARK    4  A    between atoms: C_16  and  C_14 
REMARK    5  A    between atoms: O_15  and  C_16 
ROOT
ATOM      1  N   UNL d   1      32.802  21.725 -21.409  0.00  0.00    -0.273 N 
ATOM      2  C   UNL d   1      32.355  22.226 -20.907  0.00  0.00     0.153 A 
ATOM      3  S   UNL d   1      32.212  23.000 -21.127  0.00  0.00    -0.039 SA
ATOM      4  C   UNL d   1      33.097  22.007 -22.121  0.00  0.00     0.168 A 
ATOM      5  N   UNL d   1      32.950  22.792 -22.342  0.00  0.00    -0.280 N 
ATOM      6  C   UNL d   1      32.504  23.293 -21.840  0.00  0.00     0.120 A 
ATOM      7  S   UNL d   1      32.059  21.932 -20.184  0.00  0.00    -0.052 SA
ENDROOT
BRANCH   1   8
ATOM      8  C   UNL d   1      32.940  20.942 -21.175  0.00  0.00     0.107 C 
BRANCH   8   9
ATOM      9  C   UNL d   1      32.875  20.319 -21.716  0.00  0.00     0.118 A 
ATOM     10  O   UNL d   1      32.430  20.331 -22.415  0.00  0.00    -0.304 OA
ATOM     11  C   UNL d   1      32.526  19.596 -22.780  0.00  0.00     0.123 A 
ATOM     12  C   UNL d   1      33.019  19.141 -22.318  0.00  0.00     0.029 A 
ATOM     13  C   UNL d   1      33.237  19.586 -21.659  0.00  0.00     0.028 A 
ENDBRANCH   8   9
ENDBRANCH   1   8
BRANCH   5  14
ATOM     14  C   UNL d   1      33.239  23.088 -23.052  0.00  0.00     0.108 C 
BRANCH  14  15
ATOM     15  C   UNL d   1      32.735  23.163 -23.702  0.00  0.00     0.135 C 
BRANCH  15  16
ATOM     16  O   UNL d   1      33.030  23.043 -24.461  0.00  0.00    -0.325 OA
ATOM     17  C   UNL d   1      32.722  23.472 -25.086  0.00  0.00     0.182 C 
ENDBRANCH  15  16
ENDBRANCH  14  15
ENDBRANCH   5  14
TORSDOF 5
ENDMDL
MODEL 8
REMARK VINA RESULT:      -0.5      1.788      3.853
REMARK  5 active torsions:
REMARK  status: ('A' for Active; 'I' for Inactive)
REMARK    1  A    between atoms: C_7  and  N_1 
REMARK    2  A    between atoms: C_14  and  N_5 
REMARK    3  A    between atoms: C_8  and  C_7 
REMARK    4  A    between atoms: C_16  and  C_14 
REMARK    5  A    between atoms: O_15  and  C_16 
ROOT
ATOM      1  N   UNL d   1      29.922  16.792 -24.633  0.00  0.00    -0.273 N 
ATOM      2  C   UNL d   1      29.905  17.571 -24.940  0.00  0.00     0.153 A 
ATOM      3  S   UNL d   1      30.605  17.963 -25.093  0.00  0.00    -0.039 SA
ATOM      4  C   UNL d   1      30.639  16.419 -24.485  0.00  0.00     0.168 A 
ATOM      5  N   UNL d   1      31.347  16.819 -24.642  0.00  0.00    -0.280 N 
ATOM      6  C   UNL d   1      31.330  17.599 -24.949  0.00  0.00     0.120 A 
ATOM      7  S   UNL d   1      29.172  17.943 -25.088  0.00  0.00    -0.052 SA
ENDROOT
BRANCH   1   8
ATOM      8  C   UNL d   1      29.206  16.404 -24.481  0.00  0.00     0.107 C 
BRANCH   8   9
ATOM      9  C   UNL d   1      29.032  16.111 -23.727  0.00  0.00     0.118 A 
ATOM     10  O   UNL d   1      29.515  15.604 -23.283  0.00  0.00    -0.304 OA
ATOM     11  C   UNL d   1      29.125  15.457 -22.569  0.00  0.00     0.123 A 
ATOM     12  C   UNL d   1      28.418  15.863 -22.572  0.00  0.00     0.029 A 
ATOM     13  C   UNL d   1      28.359  16.269 -23.288  0.00  0.00     0.028 A 
ENDBRANCH   8   9
ENDBRANCH   1   8
BRANCH   5  14
ATOM     14  C   UNL d   1      32.071  16.459 -24.499  0.00  0.00     0.108 C 
BRANCH  14  15
ATOM     15  C   UNL d   1      32.476  16.614 -23.796  0.00  0.00     0.135 C 
BRANCH  15  16
ATOM     16  O   UNL d   1      33.121  16.148 -23.586  0.00  0.00    -0.325 OA
ATOM     17  C   UNL d   1      33.238  15.948 -22.801  0.00  0.00     0.182 C 
ENDBRANCH  15  16
ENDBRANCH  14  15
ENDBRANCH   5  14
TORSDOF 5
ENDMDL
MODEL 9
REMARK VINA RESULT:       0.1      2.392      4.215
REMARK  5 active torsions:
REMARK  status: ('A' for Active; 'I' for Inactive)
REMARK    1  A    between atoms: C_7  and  N_1 
REMARK    2  A    between atoms: C_14  and  N_5 
REMARK    3  A    between atoms: C_8  and  C_7 
REMARK    4  A    between atoms: C_16  and  C_14 
REMARK    5  A    between atoms: O_15  and  C_16 
ROOT
ATOM      1  N   UNL d   1      32.802  18.712 -23.721  0.00  0.00    -0.273 N 
ATOM      2  C   UNL d   1      33.024  18.909 -22.938  0.00  0.00     0.153 A 
ATOM      3  S   UNL d   1      33.239  19.676 -22.756  0.00  0.00    -0.039 SA
ATOM      4  C   UNL d   1      32.798  19.286 -24.308  0.00  0.00     0.168 A 
ATOM      5  N   UNL d   1      33.016  20.063 -24.122  0.00  0.00    -0.280 N 
ATOM      6  C   UNL d   1      33.239  20.260 -23.338  0.00  0.00     0.120 A 
ATOM      7  S   UNL d   1      33.025  18.320 -22.346  0.00  0.00    -0.052 SA
ENDROOT
BRANCH   1   8
ATOM      8  C   UNL d   1      32.586  17.931 -23.894  0.00  0.00     0.107 C 
BRANCH   8   9
ATOM      9  C   UNL d   1      31.849  17.757 -24.229  0.00  0.00     0.118 A 
ATOM     10  O   UNL d   1      31.116  17.843 -23.853  0.00  0.00    -0.304 OA
ATOM     11  C   UNL d   1      30.535  17.606 -24.392  0.00  0.00     0.123 A 
ATOM     12  C   UNL d   1      30.902  17.380 -25.083  0.00  0.00     0.029 A 
ATOM     13  C   UNL d   1      31.715  17.473 -24.985  0.00  0.00     0.028 A 
ENDBRANCH   8   9
ENDBRANCH   1   8
BRANCH   5  14
ATOM     14  C   UNL d   1      33.017  20.647 -24.699  0.00  0.00     0.108 C 
BRANCH  14  15
ATOM     15  C   UNL d   1      33.014  21.443 -24.478  0.00  0.00     0.135 C 
BRANCH  15  16
ATOM     16  O   UNL d   1      32.766  22.014 -25.018  0.00  0.00    -0.325 OA
ATOM     17  C   UNL d   1      33.045  22.780 -24.953  0.00  0.00     0.182 C 
ENDBRANCH  15  16
ENDBRANCH  14  15
ENDBRANCH   5  14
TORSDOF 5
ENDMDL
