MODEL 1
REMARK VINA RESULT:      -8.7      0.000      0.000
REMARK  4 active torsions:
REMARK  status: ('A' for Active; 'I' for Inactive)
REMARK    1  A    between atoms: C_9  and  C_2 
REMARK    2  A    between atoms: C_7  and  C_9 
REMARK       I    between atoms: N_13  and  C_7 
REMARK    3  A    between atoms: C_10  and  C_19 
REMARK    4  A    between atoms: C_19  and  N_13 
ROOT
ATOM      1  C   UNL d   1      53.074  33.030  53.716  0.00  0.00     0.100 A 
ATOM      2  C   UNL d   1      51.988  33.631  53.232  0.00  0.00     0.032 A 
ATOM      3  O   UNL d   1      52.718  32.525  53.177  0.00  0.00    -0.305 OA
ATOM      4  C   UNL d   1      52.621  33.722  53.754  0.00  0.00     0.025 A 
ATOM      5  C   UNL d   1      52.041  32.896  52.874  0.00  0.00     0.123 A 
ATOM      6  C   UNL d   1      53.753  32.950  54.179  0.00  0.00     0.023 A 
ATOM      7  C   UNL d   1      52.849  34.331  54.254  0.00  0.00     0.002 A 
ATOM      8  C   UNL d   1      53.981  33.568  54.684  0.00  0.00     0.002 A 
ATOM      9  C   UNL d   1      53.525  34.259  54.719  0.00  0.00     0.000 A 
ATOM     10  C   UNL d   1      54.203  32.265  54.143  0.00  0.00     0.002 C 
ATOM     11  C   UNL d   1      54.654  33.494  55.145  0.00  0.00     0.000 C 
ENDROOT
BRANCH   2  12
ATOM     12  C   UNL d   1      51.390  34.189  53.090  0.00  0.00     0.065 C 
BRANCH  12  13
ATOM     13  C   UNL d   1      51.024  34.234  52.355  0.00  0.00     0.279 C 
ATOM     14  N   UNL d   1      50.266  34.541  52.292  0.00  0.00    -0.204 NA
ATOM     15  O   UNL d   1      51.419  33.969  51.682  0.00  0.00    -0.265 OA
BRANCH  14  16
ATOM     16  C   UNL d   1      49.862  34.808  52.956  0.00  0.00     0.127 C 
BRANCH  16  17
ATOM     17  C   UNL d   1      49.139  35.189  52.884  0.00  0.00     0.119 A 
ATOM     18  O   UNL d   1      48.662  35.203  52.223  0.00  0.00    -0.304 OA
ATOM     19  C   UNL d   1      47.987  35.652  52.399  0.00  0.00     0.123 A 
ATOM     20  C   UNL d   1      48.051  35.917  53.179  0.00  0.00     0.029 A 
ATOM     21  C   UNL d   1      48.764  35.631  53.482  0.00  0.00     0.028 A 
ENDBRANCH  16  17
ENDBRANCH  14  16
ENDBRANCH  12  13
ENDBRANCH   2  12
TORSDOF 4
ENDMDL
MODEL 2
REMARK VINA RESULT:      -8.3      2.344      4.833
REMARK  4 active torsions:
REMARK  status: ('A' for Active; 'I' for Inactive)
REMARK    1  A    between atoms: C_9  and  C_2 
REMARK    2  A    between atoms: C_7  and  C_9 
REMARK       I    between atoms: N_13  and  C_7 
REMARK    3  A    between atoms: C_10  and  C_19 
REMARK    4  A    between atoms: C_19  and  N_13 
ROOT
ATOM      1  C   UNL d   1      52.461  33.707  53.365  0.00  0.00     0.100 A 
ATOM      2  C   UNL d   1      52.829  32.431  53.264  0.00  0.00     0.032 A 
ATOM      3  O   UNL d   1      51.963  33.337  52.829  0.00  0.00    -0.305 OA
ATOM      4  C   UNL d   1      53.003  33.145  53.639  0.00  0.00     0.025 A 
ATOM      5  C   UNL d   1      52.190  32.542  52.763  0.00  0.00     0.123 A 
ATOM      6  C   UNL d   1      52.492  34.485  53.640  0.00  0.00     0.023 A 
ATOM      7  C   UNL d   1      53.573  33.362  54.187  0.00  0.00     0.002 A 
ATOM      8  C   UNL d   1      53.070  34.702  54.194  0.00  0.00     0.002 A 
ATOM      9  C   UNL d   1      53.611  34.136  54.466  0.00  0.00     0.000 A 
ATOM     10  C   UNL d   1      51.956  35.044  53.370  0.00  0.00     0.002 C 
ATOM     11  C   UNL d   1      53.105  35.472  54.471  0.00  0.00     0.000 C 
ENDROOT
BRANCH   2  12
ATOM     12  C   UNL d   1      53.232  31.713  53.371  0.00  0.00     0.065 C 
BRANCH  12  13
ATOM     13  C   UNL d   1      53.015  31.043  52.947  0.00  0.00     0.279 C 
ATOM     14  N   UNL d   1      53.064  30.302  53.296  0.00  0.00    -0.204 NA
ATOM     15  O   UNL d   1      52.750  31.116  52.170  0.00  0.00    -0.265 OA
BRANCH  14  16
ATOM     16  C   UNL d   1      53.327  30.217  54.069  0.00  0.00     0.127 C 
BRANCH  16  17
ATOM     17  C   UNL d   1      53.350  29.479  54.427  0.00  0.00     0.119 A 
ATOM     18  O   UNL d   1      53.417  28.759  54.051  0.00  0.00    -0.304 OA
ATOM     19  C   UNL d   1      53.418  28.163  54.627  0.00  0.00     0.123 A 
ATOM     20  C   UNL d   1      53.352  28.522  55.368  0.00  0.00     0.029 A 
ATOM     21  C   UNL d   1      53.309  29.338  55.248  0.00  0.00     0.028 A 
ENDBRANCH  16  17
ENDBRANCH  14  16
ENDBRANCH  12  13
ENDBRANCH   2  12
TORSDOF 4
ENDMDL
MODEL 3
REMARK VINA RESULT:      -8.2      1.236      1.787
REMARK  4 active torsions:
REMARK  status: ('A' for Active; 'I' for Inactive)
REMARK    1  A    between atoms: C_9  and  C_2 
REMARK    2  A    between atoms: C_7  and  C_9 
REMARK       I    between atoms: N_13  and  C_7 
REMARK    3  A    between atoms: C_10  and  C_19 
REMARK    4  A    between atoms: C_19  and  N_13 
ROOT
ATOM      1  C   UNL d   1      53.164  33.052  53.367  0.00  0.00     0.100 A 
ATOM      2  C   UNL d   1      52.055  33.699  53.014  0.00  0.00     0.032 A 
ATOM      3  O   UNL d   1      53.289  33.855  53.473  0.00  0.00    -0.305 OA
ATOM      4  C   UNL d   1      52.395  32.949  53.080  0.00  0.00     0.025 A 
ATOM      5  C   UNL d   1      52.600  34.261  53.254  0.00  0.00     0.123 A 
ATOM      6  C   UNL d   1      53.653  32.398  53.494  0.00  0.00     0.023 A 
ATOM      7  C   UNL d   1      52.116  32.195  52.922  0.00  0.00     0.002 A 
ATOM      8  C   UNL d   1      53.368  31.635  53.333  0.00  0.00     0.002 A 
ATOM      9  C   UNL d   1      52.597  31.537  53.046  0.00  0.00     0.000 A 
ATOM     10  C   UNL d   1      54.416  32.497  53.778  0.00  0.00     0.002 C 
ATOM     11  C   UNL d   1      53.848  30.983  53.457  0.00  0.00     0.000 C 
ENDROOT
BRANCH   2  12
ATOM     12  C   UNL d   1      51.286  33.863  52.747  0.00  0.00     0.065 C 
BRANCH  12  13
ATOM     13  C   UNL d   1      50.891  34.539  52.996  0.00  0.00     0.279 C 
ATOM     14  N   UNL d   1      50.188  34.760  52.637  0.00  0.00    -0.204 NA
ATOM     15  O   UNL d   1      51.202  34.995  53.608  0.00  0.00    -0.265 OA
BRANCH  14  16
ATOM     16  C   UNL d   1      49.868  34.314  52.026  0.00  0.00     0.127 C 
BRANCH  16  17
ATOM     17  C   UNL d   1      49.191  34.560  51.634  0.00  0.00     0.119 A 
ATOM     18  O   UNL d   1      48.590  35.016  51.944  0.00  0.00    -0.304 OA
ATOM     19  C   UNL d   1      48.018  35.130  51.353  0.00  0.00     0.123 A 
ATOM     20  C   UNL d   1      48.272  34.738  50.672  0.00  0.00     0.029 A 
ATOM     21  C   UNL d   1      48.998  34.384  50.842  0.00  0.00     0.028 A 
ENDBRANCH  16  17
ENDBRANCH  14  16
ENDBRANCH  12  13
ENDBRANCH   2  12
TORSDOF 4
ENDMDL
MODEL 4
REMARK VINA RESULT:      -7.3      1.694      2.673
REMARK  4 active torsions:
REMARK  status: ('A' for Active; 'I' for Inactive)
REMARK    1  A    between atoms: C_9  and  C_2 
REMARK    2  A    between atoms: C_7  and  C_9 
REMARK       I    between atoms: N_13  and  C_7 
REMARK    3  A    between atoms: C_10  and  C_19 
REMARK    4  A    between atoms: C_19  and  N_13 
ROOT
ATOM      1  C   UNL d   1      53.466  31.213  53.964  0.00  0.00     0.100 A 
ATOM      2  C   UNL d   1      53.182  32.429  53.503  0.00  0.00     0.032 A 
ATOM      3  O   UNL d   1      53.834  31.763  54.447  0.00  0.00    -0.305 OA
ATOM      4  C   UNL d   1      53.058  31.623  53.373  0.00  0.00     0.025 A 
ATOM      5  C   UNL d   1      53.659  32.523  54.162  0.00  0.00     0.123 A 
ATOM      6  C   UNL d   1      53.450  30.387  53.986  0.00  0.00     0.023 A 
ATOM      7  C   UNL d   1      52.635  31.208  52.807  0.00  0.00     0.002 A 
ATOM      8  C   UNL d   1      53.021  29.970  53.411  0.00  0.00     0.002 A 
ATOM      9  C   UNL d   1      52.614  30.385  52.821  0.00  0.00     0.000 A 
ATOM     10  C   UNL d   1      53.853  29.977  54.571  0.00  0.00     0.002 C 
ATOM     11  C   UNL d   1      53.001  29.151  53.428  0.00  0.00     0.000 C 
ENDROOT
BRANCH   2  12
ATOM     12  C   UNL d   1      52.876  33.049  53.043  0.00  0.00     0.065 C 
BRANCH  12  13
ATOM     13  C   UNL d   1      52.765  33.796  53.366  0.00  0.00     0.279 C 
ATOM     14  N   UNL d   1      52.099  34.234  53.171  0.00  0.00    -0.204 NA
ATOM     15  O   UNL d   1      53.324  34.106  53.887  0.00  0.00    -0.265 OA
BRANCH  14  16
ATOM     16  C   UNL d   1      51.536  33.936  52.653  0.00  0.00     0.127 C 
BRANCH  16  17
ATOM     17  C   UNL d   1      50.788  34.270  52.607  0.00  0.00     0.119 A 
ATOM     18  O   UNL d   1      50.417  34.711  53.184  0.00  0.00    -0.304 OA
ATOM     19  C   UNL d   1      49.671  34.935  52.900  0.00  0.00     0.123 A 
ATOM     20  C   UNL d   1      49.582  34.627  52.139  0.00  0.00     0.029 A 
ATOM     21  C   UNL d   1      50.273  34.214  51.954  0.00  0.00     0.028 A 
ENDBRANCH  16  17
ENDBRANCH  14  16
ENDBRANCH  12  13
ENDBRANCH   2  12
TORSDOF 4
ENDMDL
MODEL 5
REMARK VINA RESULT:      -7.1      1.478      4.987
REMARK  4 active torsions:
REMARK  status: ('A' for Active; 'I' for Inactive)
REMARK    1  A    between atoms: C_9  and  C_2 
REMARK    2  A    between atoms: C_7  and  C_9 
REMARK       I    between atoms: N_13  and  C_7 
REMARK    3  A    between atoms: C_10  and  C_19 
REMARK    4  A    between atoms: C_19  and  N_13 
ROOT
ATOM      1  C   UNL d   1      49.321  34.969  52.558  0.00  0.00     0.100 A 
ATOM      2  C   UNL d   1      50.493  34.346  52.669  0.00  0.00     0.032 A 
ATOM      3  O   UNL d   1      49.628  35.127  53.302  0.00  0.00    -0.305 OA
ATOM      4  C   UNL d   1      49.858  34.482  52.159  0.00  0.00     0.025 A 
ATOM      5  C   UNL d   1      50.358  34.740  53.374  0.00  0.00     0.123 A 
ATOM      6  C   UNL d   1      48.620  35.207  52.191  0.00  0.00     0.023 A 
ATOM      7  C   UNL d   1      49.693  34.234  51.395  0.00  0.00     0.002 A 
ATOM      8  C   UNL d   1      48.456  34.954  51.418  0.00  0.00     0.002 A 
ATOM      9  C   UNL d   1      48.996  34.466  51.022  0.00  0.00     0.000 A 
ATOM     10  C   UNL d   1      48.087  35.690  52.584  0.00  0.00     0.002 C 
ATOM     11  C   UNL d   1      47.763  35.187  51.049  0.00  0.00     0.000 C 
ENDROOT
BRANCH   2  12
ATOM     12  C   UNL d   1      51.163  33.886  52.500  0.00  0.00     0.065 C 
BRANCH  12  13
ATOM     13  C   UNL d   1      51.884  34.044  52.862  0.00  0.00     0.279 C 
ATOM     14  N   UNL d   1      52.388  33.429  53.061  0.00  0.00    -0.204 NA
ATOM     15  O   UNL d   1      52.099  34.823  53.025  0.00  0.00    -0.265 OA
BRANCH  14  16
ATOM     16  C   UNL d   1      52.184  32.649  52.903  0.00  0.00     0.127 C 
BRANCH  16  17
ATOM     17  C   UNL d   1      52.684  32.033  53.111  0.00  0.00     0.119 A 
ATOM     18  O   UNL d   1      53.355  32.086  53.572  0.00  0.00    -0.304 OA
ATOM     19  C   UNL d   1      53.687  31.329  53.637  0.00  0.00     0.123 A 
ATOM     20  C   UNL d   1      53.214  30.804  53.211  0.00  0.00     0.029 A 
ATOM     21  C   UNL d   1      52.592  31.236  52.883  0.00  0.00     0.028 A 
ENDBRANCH  16  17
ENDBRANCH  14  16
ENDBRANCH  12  13
ENDBRANCH   2  12
TORSDOF 4
ENDMDL
MODEL 6
REMARK VINA RESULT:      -6.8      1.154      4.706
REMARK  4 active torsions:
REMARK  status: ('A' for Active; 'I' for Inactive)
REMARK    1  A    between atoms: C_9  and  C_2 
REMARK    2  A    between atoms: C_7  and  C_9 
REMARK       I    between atoms: N_13  and  C_7 
REMARK    3  A    between atoms: C_10  and  C_19 
REMARK    4  A    between atoms: C_19  and  N_13 
ROOT
ATOM      1  C   UNL d   1      49.978  34.502  52.032  0.00  0.00     0.100 A 
ATOM      2  C   UNL d   1      51.114  34.089  52.591  0.00  0.00     0.032 A 
ATOM      3  O   UNL d   1      50.432  34.140  51.454  0.00  0.00    -0.305 OA
ATOM      4  C   UNL d   1      50.400  34.473  52.744  0.00  0.00     0.025 A 
ATOM      5  C   UNL d   1      51.141  33.881  51.799  0.00  0.00     0.123 A 
ATOM      6  C   UNL d   1      49.232  34.857  52.003  0.00  0.00     0.023 A 
ATOM      7  C   UNL d   1      50.075  34.797  53.423  0.00  0.00     0.002 A 
ATOM      8  C   UNL d   1      48.907  35.184  52.693  0.00  0.00     0.002 A 
ATOM      9  C   UNL d   1      49.332  35.152  53.403  0.00  0.00     0.000 A 
ATOM     10  C   UNL d   1      48.813  34.888  51.300  0.00  0.00     0.002 C 
ATOM     11  C   UNL d   1      48.168  35.537  52.670  0.00  0.00     0.000 C 
ENDROOT
BRANCH   2  12
ATOM     12  C   UNL d   1      51.713  33.934  53.145  0.00  0.00     0.065 C 
BRANCH  12  13
ATOM     13  C   UNL d   1      52.233  33.307  53.038  0.00  0.00     0.279 C 
ATOM     14  N   UNL d   1      52.897  33.237  53.514  0.00  0.00    -0.204 NA
ATOM     15  O   UNL d   1      52.087  32.748  52.450  0.00  0.00    -0.265 OA
BRANCH  14  16
ATOM     16  C   UNL d   1      53.053  33.789  54.103  0.00  0.00     0.127 C 
BRANCH  16  17
ATOM     17  C   UNL d   1      53.723  33.726  54.571  0.00  0.00     0.119 A 
ATOM     18  O   UNL d   1      54.212  34.337  54.803  0.00  0.00    -0.304 OA
ATOM     19  C   UNL d   1      54.820  34.021  55.270  0.00  0.00     0.123 A 
ATOM     20  C   UNL d   1      54.703  33.205  55.326  0.00  0.00     0.029 A 
ATOM     21  C   UNL d   1      54.024  33.019  54.894  0.00  0.00     0.028 A 
ENDBRANCH  16  17
ENDBRANCH  14  16
ENDBRANCH  12  13
ENDBRANCH   2  12
TORSDOF 4
ENDMDL
MODEL 7
REMARK VINA RESULT:      -6.7      2.646      3.775
REMARK  4 active torsions:
REMARK  status: ('A' for Active; 'I' for Inactive)
REMARK    1  A    between atoms: C_9  and  C_2 
REMARK    2  A    between atoms: C_7  and  C_9 
REMARK       I    between atoms: N_13  and  C_7 
REMARK    3  A    between atoms: C_10  and  C_19 
REMARK    4  A    between atoms: C_19  and  N_13 
ROOT
ATOM      1  C   UNL d   1      52.898  30.244  53.226  0.00  0.00     0.100 A 
ATOM      2  C   UNL d   1      53.033  31.568  53.173  0.00  0.00     0.032 A 
ATOM      3  O   UNL d   1      52.581  30.507  52.518  0.00  0.00    -0.305 OA
ATOM      4  C   UNL d   1      53.181  30.903  53.639  0.00  0.00     0.025 A 
ATOM      5  C   UNL d   1      52.663  31.332  52.482  0.00  0.00     0.123 A 
ATOM      6  C   UNL d   1      52.966  29.487  53.551  0.00  0.00     0.023 A 
ATOM      7  C   UNL d   1      53.532  30.804  54.374  0.00  0.00     0.002 A 
ATOM      8  C   UNL d   1      53.321  29.390  54.295  0.00  0.00     0.002 A 
ATOM      9  C   UNL d   1      53.603  30.053  54.704  0.00  0.00     0.000 A 
ATOM     10  C   UNL d   1      52.686  28.833  53.144  0.00  0.00     0.002 C 
ATOM     11  C   UNL d   1      53.391  28.642  54.621  0.00  0.00     0.000 C 
ENDROOT
BRANCH   2  12
ATOM     12  C   UNL d   1      53.224  32.352  53.368  0.00  0.00     0.065 C 
BRANCH  12  13
ATOM     13  C   UNL d   1      52.861  32.981  52.983  0.00  0.00     0.279 C 
ATOM     14  N   UNL d   1      52.858  33.726  53.326  0.00  0.00    -0.204 NA
ATOM     15  O   UNL d   1      52.500  32.862  52.252  0.00  0.00    -0.265 OA
BRANCH  14  16
ATOM     16  C   UNL d   1      53.215  33.857  54.054  0.00  0.00     0.127 C 
BRANCH  16  17
ATOM     17  C   UNL d   1      53.189  34.596  54.409  0.00  0.00     0.119 A 
ATOM     18  O   UNL d   1      53.451  34.784  55.158  0.00  0.00    -0.304 OA
ATOM     19  C   UNL d   1      53.317  35.592  55.286  0.00  0.00     0.123 A 
ATOM     20  C   UNL d   1      52.968  35.905  54.605  0.00  0.00     0.029 A 
ATOM     21  C   UNL d   1      52.888  35.291  54.060  0.00  0.00     0.028 A 
ENDBRANCH  16  17
ENDBRANCH  14  16
ENDBRANCH  12  13
ENDBRANCH   2  12
TORSDOF 4
ENDMDL
MODEL 8
REMARK VINA RESULT:      -6.4      0.974      5.190
REMARK  4 active torsions:
REMARK  status: ('A' for Active; 'I' for Inactive)
REMARK    1  A    between atoms: C_9  and  C_2 
REMARK    2  A    between atoms: C_7  and  C_9 
REMARK       I    between atoms: N_13  and  C_7 
REMARK    3  A    between atoms: C_10  and  C_19 
REMARK    4  A    between atoms: C_19  and  N_13 
ROOT
ATOM      1  C   UNL d   1      47.831  35.528  52.072  0.00  0.00     0.100 A 
ATOM      2  C   UNL d   1      49.043  34.994  52.205  0.00  0.00     0.032 A 
ATOM      3  O   UNL d   1      48.020  35.142  51.374  0.00  0.00    -0.305 OA
ATOM      4  C   UNL d   1      48.467  35.439  52.594  0.00  0.00     0.025 A 
ATOM      5  C   UNL d   1      48.775  34.808  51.454  0.00  0.00     0.123 A 
ATOM      6  C   UNL d   1      47.160  35.952  52.301  0.00  0.00     0.023 A 
ATOM      7  C   UNL d   1      48.430  35.772  53.342  0.00  0.00     0.002 A 
ATOM      8  C   UNL d   1      47.125  36.288  53.059  0.00  0.00     0.002 A 
ATOM      9  C   UNL d   1      47.764  36.196  53.578  0.00  0.00     0.000 A 
ATOM     10  C   UNL d   1      46.528  36.042  51.786  0.00  0.00     0.002 C 
ATOM     11  C   UNL d   1      46.462  36.709  53.291  0.00  0.00     0.000 C 
ENDROOT
BRANCH   2  12
ATOM     12  C   UNL d   1      49.778  34.768  52.519  0.00  0.00     0.065 C 
BRANCH  12  13
ATOM     13  C   UNL d   1      50.311  34.332  52.070  0.00  0.00     0.279 C 
ATOM     14  N   UNL d   1      51.044  34.133  52.379  0.00  0.00    -0.204 NA
ATOM     15  O   UNL d   1      50.107  34.095  51.307  0.00  0.00    -0.265 OA
BRANCH  14  16
ATOM     16  C   UNL d   1      51.258  34.364  53.138  0.00  0.00     0.127 C 
BRANCH  16  17
ATOM     17  C   UNL d   1      51.997  34.179  53.442  0.00  0.00     0.119 A 
ATOM     18  O   UNL d   1      52.301  33.432  53.556  0.00  0.00    -0.304 OA
ATOM     19  C   UNL d   1      53.064  33.507  53.874  0.00  0.00     0.123 A 
ATOM     20  C   UNL d   1      53.230  34.312  53.956  0.00  0.00     0.029 A 
ATOM     21  C   UNL d   1      52.571  34.732  53.689  0.00  0.00     0.028 A 
ENDBRANCH  16  17
ENDBRANCH  14  16
ENDBRANCH  12  13
ENDBRANCH   2  12
TORSDOF 4
ENDMDL
MODEL 9
REMARK VINA RESULT:      -6.4     10.086     10.809
REMARK  4 active torsions:
REMARK  status: ('A' for Active; 'I' for Inactive)
REMARK    1  A    between atoms: C_9  and  C_2 
REMARK    2  A    between atoms: C_7  and  C_9 
REMARK       I    between atoms: N_13  and  C_7 
REMARK    3  A    between atoms: C_10  and  C_19 
REMARK    4  A    between atoms: C_19  and  N_13 
ROOT
ATOM      1  C   UNL d   1      45.152  28.213  58.189  0.00  0.00     0.100 A 
ATOM      2  C   UNL d   1      44.936  29.278  58.960  0.00  0.00     0.032 A 
ATOM      3  O   UNL d   1      45.300  28.887  57.746  0.00  0.00    -0.305 OA
ATOM      4  C   UNL d   1      44.925  28.452  58.948  0.00  0.00     0.025 A 
ATOM      5  C   UNL d   1      45.166  29.552  58.223  0.00  0.00     0.123 A 
ATOM      6  C   UNL d   1      45.196  27.410  58.000  0.00  0.00     0.023 A 
ATOM      7  C   UNL d   1      44.742  27.889  59.515  0.00  0.00     0.002 A 
ATOM      8  C   UNL d   1      45.010  26.842  58.576  0.00  0.00     0.002 A 
ATOM      9  C   UNL d   1      44.783  27.086  59.334  0.00  0.00     0.000 A 
ATOM     10  C   UNL d   1      45.421  27.171  57.249  0.00  0.00     0.002 C 
ATOM     11  C   UNL d   1      45.052  26.045  58.394  0.00  0.00     0.000 C 
ENDROOT
BRANCH   2  12
ATOM     12  C   UNL d   1      44.746  29.758  59.610  0.00  0.00     0.065 C 
BRANCH  12  13
ATOM     13  C   UNL d   1      44.940  30.557  59.612  0.00  0.00     0.279 C 
ATOM     14  N   UNL d   1      44.818  31.007  60.287  0.00  0.00    -0.204 NA
ATOM     15  O   UNL d   1      45.258  30.905  58.937  0.00  0.00    -0.265 OA
BRANCH  14  16
ATOM     16  C   UNL d   1      44.501  30.672  60.966  0.00  0.00     0.127 C 
BRANCH  16  17
ATOM     17  C   UNL d   1      44.430  31.107  61.658  0.00  0.00     0.119 A 
ATOM     18  O   UNL d   1      44.399  31.920  61.718  0.00  0.00    -0.304 OA
ATOM     19  C   UNL d   1      44.327  32.119  62.520  0.00  0.00     0.123 A 
ATOM     20  C   UNL d   1      44.314  31.419  62.958  0.00  0.00     0.029 A 
ATOM     21  C   UNL d   1      44.378  30.790  62.427  0.00  0.00     0.028 A 
ENDBRANCH  16  17
ENDBRANCH  14  16
ENDBRANCH  12  13
ENDBRANCH   2  12
TORSDOF 4
ENDMDL
