MODEL 1
REMARK VINA RESULT:      -5.7      0.000      0.000
REMARK  4 active torsions:
REMARK  status: ('A' for Active; 'I' for Inactive)
REMARK    1  A    between atoms: C_4  and  S_1 
REMARK    2  A    between atoms: N_8  and  S_1 
REMARK    3  A    between atoms: C_5  and  C_11 
REMARK    4  A    between atoms: C_16  and  N_8 
ROOT
ATOM      1  C   UNL d   1     -41.353-122.094 -52.136  0.00  0.00     0.021 A 
ATOM      2  C   UNL d   1     -41.487-122.250 -50.713  0.00  0.00     0.094 A 
ATOM      3  C   UNL d   1     -41.520-122.572 -51.469  0.00  0.00     0.021 A 
ATOM      4  C   UNL d   1     -41.158-121.304 -52.032  0.00  0.00     0.002 A 
ATOM      5  C   UNL d   1     -41.123-120.970 -51.272  0.00  0.00     0.002 A 
ATOM      6  C   UNL d   1     -41.289-121.448 -50.605  0.00  0.00     0.020 A 
ENDROOT
BRANCH   2   7
ATOM      7  N   UNL d   1     -41.650-122.717 -50.062  0.00  0.00    -0.158 NA
BRANCH   7   8
ATOM      8  S   UNL d   1     -42.428-122.836 -49.824  0.00  0.00     0.287 S 
ATOM      9  O   UNL d   1     -42.692-122.613 -50.563  0.00  0.00    -0.198 OA
ATOM     10  O   UNL d   1     -43.217-122.951 -49.596  0.00  0.00    -0.198 OA
BRANCH   8  11
ATOM     11  C   UNL d   1     -42.170-123.062 -49.075  0.00  0.00     0.133 A 
ATOM     12  C   UNL d   1     -42.542-122.757 -48.407  0.00  0.00     0.155 A 
ATOM     13  C   UNL d   1     -42.291-122.977 -47.657  0.00  0.00     0.060 A 
ATOM     14  F   UNL d   1     -43.169-122.227 -48.488  0.00  0.00    -0.203 F 
ATOM     15  C   UNL d   1     -41.658-123.512 -47.572  0.00  0.00     0.142 A 
ATOM     16  C   UNL d   1     -41.288-123.815 -48.244  0.00  0.00     0.030 A 
ATOM     17  F   UNL d   1     -41.403-123.735 -46.818  0.00  0.00    -0.204 F 
ATOM     18  C   UNL d   1     -41.540-123.594 -48.988  0.00  0.00     0.018 A 
ENDBRANCH   8  11
ENDBRANCH   7   8
ENDBRANCH   2   7
BRANCH   1  19
ATOM     19  C   UNL d   1     -41.386-122.416 -52.892  0.00  0.00     0.101 A 
ATOM     20  N   UNL d   1     -41.618-122.019 -53.574  0.00  0.00    -0.221 NA
ATOM     21  C   UNL d   1     -41.570-122.547 -54.213  0.00  0.00     0.179 A 
ATOM     22  S   UNL d   1     -41.679-122.634 -55.015  0.00  0.00    -0.048 SA
ATOM     23  N   UNL d   1     -41.303-123.278 -53.906  0.00  0.00    -0.282 N 
ATOM     24  C   UNL d   1     -41.486-123.410 -55.224  0.00  0.00     0.057 A 
ATOM     25  C   UNL d   1     -41.252-123.811 -54.539  0.00  0.00     0.089 A 
ATOM     26  C   UNL d   1     -41.193-123.184 -53.090  0.00  0.00     0.101 A 
ENDBRANCH   1  19
TORSDOF 4
ENDMDL
MODEL 2
REMARK VINA RESULT:      -4.6      2.411      5.222
REMARK  4 active torsions:
REMARK  status: ('A' for Active; 'I' for Inactive)
REMARK    1  A    between atoms: C_4  and  S_1 
REMARK    2  A    between atoms: N_8  and  S_1 
REMARK    3  A    between atoms: C_5  and  C_11 
REMARK    4  A    between atoms: C_16  and  N_8 
ROOT
ATOM      1  C   UNL d   1     -41.686-122.040 -51.277  0.00  0.00     0.021 A 
ATOM      2  C   UNL d   1     -41.760-121.893 -52.705  0.00  0.00     0.094 A 
ATOM      3  C   UNL d   1     -41.923-122.328 -52.026  0.00  0.00     0.021 A 
ATOM      4  C   UNL d   1     -41.292-121.322 -51.221  0.00  0.00     0.002 A 
ATOM      5  C   UNL d   1     -41.123-120.875 -51.902  0.00  0.00     0.002 A 
ATOM      6  C   UNL d   1     -41.359-121.164 -52.652  0.00  0.00     0.020 A 
ENDROOT
BRANCH   2   7
ATOM      7  N   UNL d   1     -41.991-122.174 -53.436  0.00  0.00    -0.158 NA
BRANCH   7   8
ATOM      8  S   UNL d   1     -41.564-122.776 -53.800  0.00  0.00     0.287 S 
ATOM      9  O   UNL d   1     -41.282-123.019 -53.074  0.00  0.00    -0.198 OA
ATOM     10  O   UNL d   1     -41.129-123.386 -54.155  0.00  0.00    -0.198 OA
BRANCH   8  11
ATOM     11  C   UNL d   1     -41.844-122.537 -54.537  0.00  0.00     0.133 A 
ATOM     12  C   UNL d   1     -42.455-122.955 -54.896  0.00  0.00     0.155 A 
ATOM     13  C   UNL d   1     -42.739-122.724 -55.630  0.00  0.00     0.060 A 
ATOM     14  F   UNL d   1     -42.785-123.611 -54.519  0.00  0.00    -0.203 F 
ATOM     15  C   UNL d   1     -42.408-122.062 -56.014  0.00  0.00     0.142 A 
ATOM     16  C   UNL d   1     -41.796-121.645 -55.650  0.00  0.00     0.030 A 
ATOM     17  F   UNL d   1     -42.693-121.827 -56.753  0.00  0.00    -0.204 F 
ATOM     18  C   UNL d   1     -41.515-121.878 -54.920  0.00  0.00     0.018 A 
ENDBRANCH   8  11
ENDBRANCH   7   8
ENDBRANCH   2   7
BRANCH   1  19
ATOM     19  C   UNL d   1     -41.849-122.475 -50.598  0.00  0.00     0.101 A 
ATOM     20  N   UNL d   1     -42.562-122.477 -50.188  0.00  0.00    -0.221 NA
ATOM     21  C   UNL d   1     -42.489-122.990 -49.539  0.00  0.00     0.179 A 
ATOM     22  S   UNL d   1     -42.872-123.307 -48.894  0.00  0.00    -0.048 SA
ATOM     23  N   UNL d   1     -41.713-123.302 -49.560  0.00  0.00    -0.282 N 
ATOM     24  C   UNL d   1     -42.351-123.816 -48.504  0.00  0.00     0.057 A 
ATOM     25  C   UNL d   1     -41.632-123.815 -48.915  0.00  0.00     0.089 A 
ATOM     26  C   UNL d   1     -41.329-122.976 -50.218  0.00  0.00     0.101 A 
ENDBRANCH   1  19
TORSDOF 4
ENDMDL
