MODEL 1
REMARK VINA RESULT:       8.3      0.000      0.000
REMARK  5 active torsions:
REMARK  status: ('A' for Active; 'I' for Inactive)
REMARK    1  A    between atoms: C_2  and  S_1 
REMARK    2  A    between atoms: C_12  and  S_1 
REMARK    3  A    between atoms: N_5  and  C_3 
REMARK    4  A    between atoms: C_18  and  N_7 
REMARK    5  A    between atoms: O_22  and  C_20 
ROOT
ATOM      1  C   UNL d   1      60.284  -2.407  29.118  0.00  0.00     0.123 A 
ATOM      2  C   UNL d   1      59.523  -2.691  29.277  0.00  0.00     0.078 A 
ATOM      3  C   UNL d   1      59.317  -3.457  29.057  0.00  0.00     0.036 A 
ATOM      4  C   UNL d   1      60.834  -2.891  28.739  0.00  0.00     0.112 A 
ATOM      5  N   UNL d   1      60.623  -3.660  28.519  0.00  0.00    -0.243 NA
ATOM      6  C   UNL d   1      59.867  -3.941  28.677  0.00  0.00     0.083 A 
ATOM      7  C   UNL d   1      58.559  -3.738  29.216  0.00  0.00     0.027 A 
ATOM      8  C   UNL d   1      59.658  -4.707  28.457  0.00  0.00     0.021 A 
ATOM      9  C   UNL d   1      58.346  -4.511  28.995  0.00  0.00     0.094 A 
ATOM     10  C   UNL d   1      58.896  -4.995  28.616  0.00  0.00     0.026 A 
ENDROOT
BRANCH   2  11
ATOM     11  N   UNL d   1      58.968  -2.202  29.660  0.00  0.00    -0.301 N 
ATOM     12  C   UNL d   1      58.472  -1.712  29.211  0.00  0.00     0.100 A 
ATOM     13  C   UNL d   1      57.922  -1.228  29.600  0.00  0.00     0.100 A 
ATOM     14  N   UNL d   1      57.867  -1.233  30.425  0.00  0.00    -0.301 N 
ATOM     15  C   UNL d   1      58.367  -1.727  30.872  0.00  0.00     0.100 A 
ATOM     16  C   UNL d   1      58.914  -2.208  30.486  0.00  0.00     0.100 A 
BRANCH  14  17
ATOM     17  C   UNL d   1      57.318  -0.749  30.804  0.00  0.00     0.064 A 
ATOM     18  C   UNL d   1      57.257   0.052  30.591  0.00  0.00     0.018 A 
ATOM     19  C   UNL d   1      56.708   0.540  30.968  0.00  0.00     0.002 A 
ATOM     20  C   UNL d   1      56.222   0.230  31.555  0.00  0.00     0.000 A 
ATOM     21  C   UNL d   1      56.284  -0.567  31.766  0.00  0.00     0.002 A 
ATOM     22  C   UNL d   1      56.833  -1.052  31.387  0.00  0.00     0.018 A 
ENDBRANCH  14  17
ENDBRANCH   2  11
BRANCH   1  23
ATOM     23  S   UNL d   1      60.496  -1.635  29.339  0.00  0.00     0.213 S 
ATOM     24  O   UNL d   1      60.903  -1.933  29.995  0.00  0.00    -0.217 OA
ATOM     25  O   UNL d   1      60.087  -1.330  28.679  0.00  0.00    -0.217 OA
BRANCH  23  26
ATOM     26  C   UNL d   1      60.707  -0.866  29.558  0.00  0.00     0.088 A 
ATOM     27  C   UNL d   1      60.789  -0.276  28.988  0.00  0.00     0.011 A 
ATOM     28  C   UNL d   1      60.999   0.491  29.204  0.00  0.00     0.001 A 
ATOM     29  C   UNL d   1      61.132   0.680  30.005  0.00  0.00     0.000 A 
ATOM     30  C   UNL d   1      61.051   0.087  30.579  0.00  0.00     0.001 A 
ATOM     31  C   UNL d   1      60.838  -0.684  30.351  0.00  0.00     0.011 A 
ENDBRANCH  23  26
ENDBRANCH   1  23
BRANCH   9  32
ATOM     32  O   UNL d   1      57.584  -4.787  29.158  0.00  0.00    -0.328 OA
ATOM     33  C   UNL d   1      57.300  -5.456  28.763  0.00  0.00     0.181 C 
ENDBRANCH   9  32
TORSDOF 5
ENDMDL
MODEL 2
REMARK VINA RESULT:       8.6      1.465      4.000
REMARK  5 active torsions:
REMARK  status: ('A' for Active; 'I' for Inactive)
REMARK    1  A    between atoms: C_2  and  S_1 
REMARK    2  A    between atoms: C_12  and  S_1 
REMARK    3  A    between atoms: N_5  and  C_3 
REMARK    4  A    between atoms: C_18  and  N_7 
REMARK    5  A    between atoms: O_22  and  C_20 
ROOT
ATOM      1  C   UNL d   1      58.308   0.031  31.120  0.00  0.00     0.123 A 
ATOM      2  C   UNL d   1      57.895  -0.683  31.186  0.00  0.00     0.078 A 
ATOM      3  C   UNL d   1      57.260  -0.743  31.706  0.00  0.00     0.036 A 
ATOM      4  C   UNL d   1      58.083   0.681  31.575  0.00  0.00     0.112 A 
ATOM      5  N   UNL d   1      57.444   0.618  32.096  0.00  0.00    -0.243 NA
ATOM      6  C   UNL d   1      57.034  -0.092  32.160  0.00  0.00     0.083 A 
ATOM      7  C   UNL d   1      56.849  -1.454  31.771  0.00  0.00     0.027 A 
ATOM      8  C   UNL d   1      56.398  -0.154  32.680  0.00  0.00     0.021 A 
ATOM      9  C   UNL d   1      56.207  -1.519  32.294  0.00  0.00     0.094 A 
ATOM     10  C   UNL d   1      55.981  -0.869  32.748  0.00  0.00     0.026 A 
ENDROOT
BRANCH   2  11
ATOM     11  N   UNL d   1      58.123  -1.339  30.727  0.00  0.00    -0.301 N 
ATOM     12  C   UNL d   1      57.737  -1.494  30.009  0.00  0.00     0.100 A 
ATOM     13  C   UNL d   1      57.970  -2.150  29.557  0.00  0.00     0.100 A 
ATOM     14  N   UNL d   1      58.579  -2.644  29.818  0.00  0.00    -0.301 N 
ATOM     15  C   UNL d   1      58.964  -2.486  30.540  0.00  0.00     0.100 A 
ATOM     16  C   UNL d   1      58.732  -1.834  30.989  0.00  0.00     0.100 A 
BRANCH  14  17
ATOM     17  C   UNL d   1      58.805  -3.294  29.364  0.00  0.00     0.064 A 
ATOM     18  C   UNL d   1      59.611  -3.445  29.230  0.00  0.00     0.018 A 
ATOM     19  C   UNL d   1      59.840  -4.095  28.776  0.00  0.00     0.002 A 
ATOM     20  C   UNL d   1      59.269  -4.592  28.456  0.00  0.00     0.000 A 
ATOM     21  C   UNL d   1      58.467  -4.441  28.589  0.00  0.00     0.002 A 
ATOM     22  C   UNL d   1      58.241  -3.790  29.044  0.00  0.00     0.018 A 
ENDBRANCH  14  17
ENDBRANCH   2  11
BRANCH   1  23
ATOM     23  S   UNL d   1      58.950   0.095  30.597  0.00  0.00     0.213 S 
ATOM     24  O   UNL d   1      59.475  -0.028  31.224  0.00  0.00    -0.217 OA
ATOM     25  O   UNL d   1      58.424   0.220  29.962  0.00  0.00    -0.217 OA
BRANCH  23  26
ATOM     26  C   UNL d   1      59.589   0.160  30.076  0.00  0.00     0.088 A 
ATOM     27  C   UNL d   1      60.361   0.058  30.346  0.00  0.00     0.011 A 
ATOM     28  C   UNL d   1      60.999   0.121  29.829  0.00  0.00     0.001 A 
ATOM     29  C   UNL d   1      60.871   0.290  29.022  0.00  0.00     0.000 A 
ATOM     30  C   UNL d   1      60.095   0.392  28.750  0.00  0.00     0.001 A 
ATOM     31  C   UNL d   1      59.457   0.326  29.280  0.00  0.00     0.011 A 
ENDBRANCH  23  26
ENDBRANCH   1  23
BRANCH   9  32
ATOM     32  O   UNL d   1      55.800  -2.237  32.354  0.00  0.00    -0.328 OA
ATOM     33  C   UNL d   1      55.197  -2.317  32.915  0.00  0.00     0.181 C 
ENDBRANCH   9  32
TORSDOF 5
ENDMDL
