MODEL 1
REMARK VINA RESULT:      -7.5      0.000      0.000
REMARK  6 active torsions:
REMARK  status: ('A' for Active; 'I' for Inactive)
REMARK       I    between atoms: C_8  and  N_1 
REMARK    1  A    between atoms: C_10  and  C_3 
REMARK    2  A    between atoms: C_4  and  S_14 
REMARK    3  A    between atoms: C_15  and  C_6 
REMARK    4  A    between atoms: C_16  and  C_8 
REMARK    5  A    between atoms: S_14  and  C_16 
REMARK    6  A    between atoms: O_26  and  C_23 
ROOT
ATOM      1  N   UNL d   1      52.874  32.274  53.511  0.00  0.00    -0.195 N 
ATOM      2  N   UNL d   1      52.570  31.571  53.264  0.00  0.00    -0.162 NA
ATOM      3  C   UNL d   1      53.056  30.961  53.551  0.00  0.00     0.109 A 
ATOM      4  C   UNL d   1      53.558  32.118  53.958  0.00  0.00     0.088 A 
ATOM      5  C   UNL d   1      53.648  31.312  53.969  0.00  0.00     0.041 A 
ATOM      6  C   UNL d   1      52.645  33.043  53.406  0.00  0.00     0.275 C 
ATOM      7  O   UNL d   1      53.081  33.673  53.736  0.00  0.00    -0.266 OA
ENDROOT
BRANCH   4   8
ATOM      8  C   UNL d   1      54.059  32.641  54.325  0.00  0.00     0.018 A 
ATOM      9  C   UNL d   1      54.674  32.988  53.903  0.00  0.00     0.004 A 
ATOM     10  C   UNL d   1      55.185  33.524  54.286  0.00  0.00     0.024 A 
ATOM     11  C   UNL d   1      55.076  33.706  55.079  0.00  0.00     0.094 A 
ATOM     12  C   UNL d   1      54.458  33.356  55.498  0.00  0.00     0.024 A 
ATOM     13  C   UNL d   1      53.944  32.820  55.124  0.00  0.00     0.004 A 
BRANCH  11  14
ATOM     14  O   UNL d   1      55.576  34.239  55.476  0.00  0.00    -0.328 OA
ATOM     15  C   UNL d   1      55.938  34.860  55.072  0.00  0.00     0.181 C 
ENDBRANCH  11  14
ENDBRANCH   4   8
BRANCH   6  16
ATOM     16  C   UNL d   1      51.960  33.217  52.959  0.00  0.00     0.128 C 
BRANCH  16  17
ATOM     17  S   UNL d   1      51.712  34.003  52.860  0.00  0.00    -0.069 SA
BRANCH  17  18
ATOM     18  C   UNL d   1      50.975  34.173  52.512  0.00  0.00     0.140 A 
ATOM     19  N   UNL d   1      50.801  34.077  51.716  0.00  0.00    -0.232 NA
ATOM     20  C   UNL d   1      50.018  34.306  51.603  0.00  0.00     0.088 A 
ATOM     21  C   UNL d   1      49.545  34.328  50.922  0.00  0.00     0.020 A 
ATOM     22  C   UNL d   1      49.711  34.542  52.323  0.00  0.00     0.049 A 
ATOM     23  C   UNL d   1      48.763  34.588  50.969  0.00  0.00     0.002 A 
ATOM     24  C   UNL d   1      48.457  34.827  51.708  0.00  0.00     0.001 A 
ATOM     25  C   UNL d   1      48.935  34.801  52.377  0.00  0.00     0.008 A 
ATOM     26  S   UNL d   1      50.304  34.461  52.897  0.00  0.00    -0.060 SA
ENDBRANCH  17  18
ENDBRANCH  16  17
ENDBRANCH   6  16
BRANCH   3  27
ATOM     27  C   UNL d   1      52.927  30.156  53.416  0.00  0.00     0.049 A 
ATOM     28  S   UNL d   1      52.554  29.717  52.841  0.00  0.00    -0.085 SA
ATOM     29  C   UNL d   1      52.633  28.922  53.046  0.00  0.00     0.035 A 
ATOM     30  C   UNL d   1      53.048  28.867  53.738  0.00  0.00     0.007 A 
ATOM     31  C   UNL d   1      53.240  29.638  53.982  0.00  0.00     0.009 A 
ENDBRANCH   3  27
TORSDOF 6
ENDMDL
MODEL 2
REMARK VINA RESULT:      -6.1      9.966     11.448
REMARK  6 active torsions:
REMARK  status: ('A' for Active; 'I' for Inactive)
REMARK       I    between atoms: C_8  and  N_1 
REMARK    1  A    between atoms: C_10  and  C_3 
REMARK    2  A    between atoms: C_4  and  S_14 
REMARK    3  A    between atoms: C_15  and  C_6 
REMARK    4  A    between atoms: C_16  and  C_8 
REMARK    5  A    between atoms: S_14  and  C_16 
REMARK    6  A    between atoms: O_26  and  C_23 
ROOT
ATOM      1  N   UNL d   1      44.676  29.179  58.142  0.00  0.00    -0.195 N 
ATOM      2  N   UNL d   1      44.559  29.974  58.096  0.00  0.00    -0.162 NA
ATOM      3  C   UNL d   1      44.613  30.201  57.298  0.00  0.00     0.109 A 
ATOM      4  C   UNL d   1      44.807  28.892  57.373  0.00  0.00     0.088 A 
ATOM      5  C   UNL d   1      44.764  29.531  56.876  0.00  0.00     0.041 A 
ATOM      6  C   UNL d   1      44.687  28.657  58.760  0.00  0.00     0.275 C 
ATOM      7  O   UNL d   1      44.827  27.844  58.636  0.00  0.00    -0.266 OA
ENDROOT
BRANCH   4   8
ATOM      8  C   UNL d   1      44.952  28.131  57.130  0.00  0.00     0.018 A 
ATOM      9  C   UNL d   1      45.725  27.863  57.053  0.00  0.00     0.004 A 
ATOM     10  C   UNL d   1      45.867  27.080  56.803  0.00  0.00     0.024 A 
ATOM     11  C   UNL d   1      45.240  26.580  56.634  0.00  0.00     0.094 A 
ATOM     12  C   UNL d   1      44.466  26.852  56.712  0.00  0.00     0.024 A 
ATOM     13  C   UNL d   1      44.315  27.631  56.961  0.00  0.00     0.004 A 
BRANCH  11  14
ATOM     14  O   UNL d   1      45.364  25.796  56.384  0.00  0.00    -0.328 OA
ATOM     15  C   UNL d   1      44.753  25.358  56.043  0.00  0.00     0.181 C 
ENDBRANCH  11  14
ENDBRANCH   4   8
BRANCH   6  16
ATOM     16  C   UNL d   1      44.557  28.930  59.540  0.00  0.00     0.128 C 
BRANCH  16  17
ATOM     17  S   UNL d   1      44.633  28.412  60.184  0.00  0.00    -0.069 SA
BRANCH  17  18
ATOM     18  C   UNL d   1      44.562  28.694  60.964  0.00  0.00     0.140 A 
ATOM     19  N   UNL d   1      44.503  29.486  61.171  0.00  0.00    -0.232 NA
ATOM     20  C   UNL d   1      44.443  29.525  61.991  0.00  0.00     0.088 A 
ATOM     21  C   UNL d   1      44.370  30.172  62.506  0.00  0.00     0.020 A 
ATOM     22  C   UNL d   1      44.463  28.764  62.289  0.00  0.00     0.049 A 
ATOM     23  C   UNL d   1      44.319  30.048  63.321  0.00  0.00     0.002 A 
ATOM     24  C   UNL d   1      44.341  29.267  63.617  0.00  0.00     0.001 A 
ATOM     25  C   UNL d   1      44.413  28.634  63.097  0.00  0.00     0.008 A 
ATOM     26  S   UNL d   1      44.537  28.238  61.652  0.00  0.00    -0.060 SA
ENDBRANCH  17  18
ENDBRANCH  16  17
ENDBRANCH   6  16
BRANCH   3  27
ATOM     27  C   UNL d   1      44.525  30.975  57.024  0.00  0.00     0.049 A 
ATOM     28  S   UNL d   1      44.539  31.716  57.361  0.00  0.00    -0.085 SA
ATOM     29  C   UNL d   1      44.409  32.264  56.759  0.00  0.00     0.035 A 
ATOM     30  C   UNL d   1      44.314  31.872  56.058  0.00  0.00     0.007 A 
ATOM     31  C   UNL d   1      44.385  31.058  56.211  0.00  0.00     0.009 A 
ENDBRANCH   3  27
TORSDOF 6
ENDMDL
MODEL 3
REMARK VINA RESULT:      -5.3      1.707      5.267
REMARK  6 active torsions:
REMARK  status: ('A' for Active; 'I' for Inactive)
REMARK       I    between atoms: C_8  and  N_1 
REMARK    1  A    between atoms: C_10  and  C_3 
REMARK    2  A    between atoms: C_4  and  S_14 
REMARK    3  A    between atoms: C_15  and  C_6 
REMARK    4  A    between atoms: C_16  and  C_8 
REMARK    5  A    between atoms: S_14  and  C_16 
REMARK    6  A    between atoms: O_26  and  C_23 
ROOT
ATOM      1  N   UNL d   1      52.848  32.870  53.356  0.00  0.00    -0.195 N 
ATOM      2  N   UNL d   1      53.501  32.930  53.822  0.00  0.00    -0.162 NA
ATOM      3  C   UNL d   1      53.524  33.697  54.143  0.00  0.00     0.109 A 
ATOM      4  C   UNL d   1      52.448  33.599  53.377  0.00  0.00     0.088 A 
ATOM      5  C   UNL d   1      52.877  34.086  53.861  0.00  0.00     0.041 A 
ATOM      6  C   UNL d   1      52.542  32.269  52.909  0.00  0.00     0.275 C 
ATOM      7  O   UNL d   1      51.838  32.371  52.474  0.00  0.00    -0.266 OA
ENDROOT
BRANCH   4   8
ATOM      8  C   UNL d   1      51.762  33.815  52.999  0.00  0.00     0.018 A 
ATOM      9  C   UNL d   1      51.037  33.724  53.377  0.00  0.00     0.004 A 
ATOM     10  C   UNL d   1      50.337  33.948  52.983  0.00  0.00     0.024 A 
ATOM     11  C   UNL d   1      50.369  34.258  52.225  0.00  0.00     0.094 A 
ATOM     12  C   UNL d   1      51.098  34.348  51.850  0.00  0.00     0.024 A 
ATOM     13  C   UNL d   1      51.801  34.127  52.234  0.00  0.00     0.004 A 
BRANCH  11  14
ATOM     14  O   UNL d   1      49.680  34.487  51.819  0.00  0.00    -0.328 OA
ATOM     15  C   UNL d   1      49.067  34.874  52.210  0.00  0.00     0.181 C 
ENDBRANCH  11  14
ENDBRANCH   4   8
BRANCH   6  16
ATOM     16  C   UNL d   1      52.932  31.530  52.879  0.00  0.00     0.128 C 
BRANCH  16  17
ATOM     17  S   UNL d   1      52.501  30.825  52.954  0.00  0.00    -0.069 SA
BRANCH  17  18
ATOM     18  C   UNL d   1      52.770  30.217  53.455  0.00  0.00     0.140 A 
ATOM     19  N   UNL d   1      52.593  30.158  54.254  0.00  0.00    -0.232 NA
ATOM     20  C   UNL d   1      52.965  29.482  54.542  0.00  0.00     0.088 A 
ATOM     21  C   UNL d   1      52.983  29.146  55.301  0.00  0.00     0.020 A 
ATOM     22  C   UNL d   1      53.368  29.126  53.927  0.00  0.00     0.049 A 
ATOM     23  C   UNL d   1      53.409  28.451  55.436  0.00  0.00     0.002 A 
ATOM     24  C   UNL d   1      53.818  28.095  54.801  0.00  0.00     0.001 A 
ATOM     25  C   UNL d   1      53.793  28.437  54.054  0.00  0.00     0.008 A 
ATOM     26  S   UNL d   1      53.251  29.581  53.243  0.00  0.00    -0.060 SA
ENDBRANCH  17  18
ENDBRANCH  16  17
ENDBRANCH   6  16
BRANCH   3  27
ATOM     27  C   UNL d   1      54.112  33.975  54.652  0.00  0.00     0.049 A 
ATOM     28  S   UNL d   1      54.216  34.639  55.111  0.00  0.00    -0.085 SA
ATOM     29  C   UNL d   1      54.944  34.567  55.491  0.00  0.00     0.035 A 
ATOM     30  C   UNL d   1      55.289  33.868  55.272  0.00  0.00     0.007 A 
ATOM     31  C   UNL d   1      54.775  33.485  54.744  0.00  0.00     0.009 A 
ENDBRANCH   3  27
TORSDOF 6
ENDMDL
MODEL 4
REMARK VINA RESULT:      -5.3      1.399      3.377
REMARK  6 active torsions:
REMARK  status: ('A' for Active; 'I' for Inactive)
REMARK       I    between atoms: C_8  and  N_1 
REMARK    1  A    between atoms: C_10  and  C_3 
REMARK    2  A    between atoms: C_4  and  S_14 
REMARK    3  A    between atoms: C_15  and  C_6 
REMARK    4  A    between atoms: C_16  and  C_8 
REMARK    5  A    between atoms: S_14  and  C_16 
REMARK    6  A    between atoms: O_26  and  C_23 
ROOT
ATOM      1  N   UNL d   1      52.931  32.787  53.693  0.00  0.00    -0.195 N 
ATOM      2  N   UNL d   1      53.348  33.382  54.039  0.00  0.00    -0.162 NA
ATOM      3  C   UNL d   1      54.041  33.060  54.367  0.00  0.00     0.109 A 
ATOM      4  C   UNL d   1      53.355  32.079  53.798  0.00  0.00     0.088 A 
ATOM      5  C   UNL d   1      54.026  32.270  54.210  0.00  0.00     0.041 A 
ATOM      6  C   UNL d   1      52.228  32.765  53.294  0.00  0.00     0.275 C 
ATOM      7  O   UNL d   1      51.926  32.049  52.990  0.00  0.00    -0.266 OA
ENDROOT
BRANCH   4   8
ATOM      8  C   UNL d   1      53.166  31.330  53.551  0.00  0.00     0.018 A 
ATOM      9  C   UNL d   1      53.357  31.086  52.789  0.00  0.00     0.004 A 
ATOM     10  C   UNL d   1      53.160  30.314  52.541  0.00  0.00     0.024 A 
ATOM     11  C   UNL d   1      52.777  29.801  53.053  0.00  0.00     0.094 A 
ATOM     12  C   UNL d   1      52.587  30.048  53.816  0.00  0.00     0.024 A 
ATOM     13  C   UNL d   1      52.780  30.816  54.071  0.00  0.00     0.004 A 
BRANCH  11  14
ATOM     14  O   UNL d   1      52.573  29.028  52.822  0.00  0.00    -0.328 OA
ATOM     15  C   UNL d   1      52.586  28.406  53.364  0.00  0.00     0.181 C 
ENDBRANCH  11  14
ENDBRANCH   4   8
BRANCH   6  16
ATOM     16  C   UNL d   1      51.790  33.468  53.180  0.00  0.00     0.128 C 
BRANCH  16  17
ATOM     17  S   UNL d   1      51.382  33.598  52.469  0.00  0.00    -0.069 SA
BRANCH  17  18
ATOM     18  C   UNL d   1      50.680  34.045  52.460  0.00  0.00     0.140 A 
ATOM     19  N   UNL d   1      50.401  34.489  53.091  0.00  0.00    -0.232 NA
ATOM     20  C   UNL d   1      49.696  34.843  52.854  0.00  0.00     0.088 A 
ATOM     21  C   UNL d   1      49.172  35.347  53.254  0.00  0.00     0.020 A 
ATOM     22  C   UNL d   1      49.540  34.619  52.083  0.00  0.00     0.049 A 
ATOM     23  C   UNL d   1      48.493  35.624  52.875  0.00  0.00     0.002 A 
ATOM     24  C   UNL d   1      48.342  35.390  52.088  0.00  0.00     0.001 A 
ATOM     25  C   UNL d   1      48.867  34.890  51.701  0.00  0.00     0.008 A 
ATOM     26  S   UNL d   1      50.152  34.119  51.830  0.00  0.00    -0.060 SA
ENDBRANCH  17  18
ENDBRANCH  16  17
ENDBRANCH   6  16
BRANCH   3  27
ATOM     27  C   UNL d   1      54.615  33.495  54.771  0.00  0.00     0.049 A 
ATOM     28  S   UNL d   1      54.716  33.753  55.536  0.00  0.00    -0.085 SA
ATOM     29  C   UNL d   1      55.427  34.169  55.566  0.00  0.00     0.035 A 
ATOM     30  C   UNL d   1      55.764  34.171  54.831  0.00  0.00     0.007 A 
ATOM     31  C   UNL d   1      55.262  33.750  54.320  0.00  0.00     0.009 A 
ENDBRANCH   3  27
TORSDOF 6
ENDMDL
MODEL 5
REMARK VINA RESULT:      -4.7      1.479      1.925
REMARK  6 active torsions:
REMARK  status: ('A' for Active; 'I' for Inactive)
REMARK       I    between atoms: C_8  and  N_1 
REMARK    1  A    between atoms: C_10  and  C_3 
REMARK    2  A    between atoms: C_4  and  S_14 
REMARK    3  A    between atoms: C_15  and  C_6 
REMARK    4  A    between atoms: C_16  and  C_8 
REMARK    5  A    between atoms: S_14  and  C_16 
REMARK    6  A    between atoms: O_26  and  C_23 
ROOT
ATOM      1  N   UNL d   1      51.822  33.148  53.077  0.00  0.00    -0.195 N 
ATOM      2  N   UNL d   1      51.770  32.365  52.899  0.00  0.00    -0.162 NA
ATOM      3  C   UNL d   1      52.427  31.977  53.228  0.00  0.00     0.109 A 
ATOM      4  C   UNL d   1      52.514  33.266  53.523  0.00  0.00     0.088 A 
ATOM      5  C   UNL d   1      52.866  32.540  53.602  0.00  0.00     0.041 A 
ATOM      6  C   UNL d   1      51.353  33.786  52.909  0.00  0.00     0.275 C 
ATOM      7  O   UNL d   1      51.553  34.550  53.175  0.00  0.00    -0.266 OA
ENDROOT
BRANCH   4   8
ATOM      8  C   UNL d   1      52.810  33.955  53.833  0.00  0.00     0.018 A 
ATOM      9  C   UNL d   1      52.742  34.108  54.639  0.00  0.00     0.004 A 
ATOM     10  C   UNL d   1      53.048  34.818  54.951  0.00  0.00     0.024 A 
ATOM     11  C   UNL d   1      53.415  35.362  54.459  0.00  0.00     0.094 A 
ATOM     12  C   UNL d   1      53.481  35.206  53.653  0.00  0.00     0.024 A 
ATOM     13  C   UNL d   1      53.179  34.501  53.333  0.00  0.00     0.004 A 
BRANCH  11  14
ATOM     14  O   UNL d   1      53.725  36.075  54.754  0.00  0.00    -0.328 OA
ATOM     15  C   UNL d   1      53.229  36.704  54.951  0.00  0.00     0.181 C 
ENDBRANCH  11  14
ENDBRANCH   4   8
BRANCH   6  16
ATOM     16  C   UNL d   1      50.654  33.683  52.462  0.00  0.00     0.128 C 
BRANCH  16  17
ATOM     17  S   UNL d   1      50.477  34.200  51.837  0.00  0.00    -0.069 SA
BRANCH  17  18
ATOM     18  C   UNL d   1      49.703  34.488  51.733  0.00  0.00     0.140 A 
ATOM     19  N   UNL d   1      49.294  34.937  52.285  0.00  0.00    -0.232 NA
ATOM     20  C   UNL d   1      48.553  35.106  51.968  0.00  0.00     0.088 A 
ATOM     21  C   UNL d   1      47.911  35.536  52.271  0.00  0.00     0.020 A 
ATOM     22  C   UNL d   1      48.503  34.764  51.227  0.00  0.00     0.049 A 
ATOM     23  C   UNL d   1      47.220  35.619  51.825  0.00  0.00     0.002 A 
ATOM     24  C   UNL d   1      47.179  35.267  51.070  0.00  0.00     0.001 A 
ATOM     25  C   UNL d   1      47.822  34.843  50.779  0.00  0.00     0.008 A 
ATOM     26  S   UNL d   1      49.220  34.375  51.073  0.00  0.00    -0.060 SA
ENDBRANCH  17  18
ENDBRANCH  16  17
ENDBRANCH   6  16
BRANCH   3  27
ATOM     27  C   UNL d   1      52.573  31.167  53.166  0.00  0.00     0.049 A 
ATOM     28  S   UNL d   1      52.140  30.488  53.285  0.00  0.00    -0.085 SA
ATOM     29  C   UNL d   1      52.632  29.847  53.120  0.00  0.00     0.035 A 
ATOM     30  C   UNL d   1      53.360  30.122  52.901  0.00  0.00     0.007 A 
ATOM     31  C   UNL d   1      53.337  30.952  52.926  0.00  0.00     0.009 A 
ENDBRANCH   3  27
TORSDOF 6
ENDMDL
