MODEL 1
REMARK VINA RESULT:       7.6      0.000      0.000
REMARK  8 active torsions:
REMARK  status: ('A' for Active; 'I' for Inactive)
REMARK    1  A    between atoms: C_4  and  C_1 
REMARK    2  A    between atoms: C_11  and  N_3 
REMARK    3  A    between atoms: N_7  and  C_4 
REMARK    4  A    between atoms: C_9  and  C_4 
REMARK       I    between atoms: C_8  and  N_7 
REMARK    5  A    between atoms: C_12  and  C_9 
REMARK    6  A    between atoms: C_18  and  C_11 
REMARK    7  A    between atoms: C_20  and  C_18 
REMARK    8  A    between atoms: C_19  and  C_20 
ROOT
ATOM      1  C   UNL d   1     -42.378-122.053 -50.478  0.00  0.00     0.166 A 
ATOM      2  N   UNL d   1     -42.371-121.231 -50.380  0.00  0.00    -0.225 NA
ATOM      3  N   UNL d   1     -41.980-122.230 -51.176  0.00  0.00    -0.288 N 
ATOM      4  C   UNL d   1     -41.722-121.522 -51.515  0.00  0.00     0.083 A 
ATOM      5  C   UNL d   1     -41.968-120.905 -51.015  0.00  0.00     0.099 A 
ATOM      6  C   UNL d   1     -41.304-121.363 -52.200  0.00  0.00     0.019 A 
ATOM      7  C   UNL d   1     -41.790-120.127 -51.212  0.00  0.00     0.021 A 
ATOM      8  C   UNL d   1     -41.123-120.582 -52.400  0.00  0.00     0.002 A 
ATOM      9  C   UNL d   1     -41.365-119.960 -51.906  0.00  0.00     0.002 A 
ENDROOT
BRANCH   1  10
ATOM     10  C   UNL d   1     -42.727-122.603 -49.964  0.00  0.00     0.119 C 
BRANCH  10  11
ATOM     11  N   UNL d   1     -43.510-122.508 -49.731  0.00  0.00    -0.205 NA
ATOM     12  C   UNL d   1     -44.059-123.110 -49.860  0.00  0.00     0.280 C 
ATOM     13  O   UNL d   1     -44.843-123.015 -49.627  0.00  0.00    -0.265 OA
ATOM     14  C   UNL d   1     -43.823-123.817 -50.227  0.00  0.00     0.068 C 
ENDBRANCH  10  11
BRANCH  10  15
ATOM     15  C   UNL d   1     -42.291-123.243 -49.687  0.00  0.00     0.022 C 
BRANCH  15  16
ATOM     16  C   UNL d   1     -42.004-123.246 -48.919  0.00  0.00     0.002 A 
ATOM     17  C   UNL d   1     -42.291-123.784 -48.366  0.00  0.00     0.000 A 
ATOM     18  C   UNL d   1     -42.002-123.787 -47.595  0.00  0.00     0.000 A 
ATOM     19  C   UNL d   1     -41.421-123.248 -47.374  0.00  0.00     0.000 A 
ATOM     20  C   UNL d   1     -41.129-122.704 -47.930  0.00  0.00     0.000 A 
ATOM     21  C   UNL d   1     -41.423-122.707 -48.698  0.00  0.00     0.000 A 
ENDBRANCH  15  16
ENDBRANCH  10  15
ENDBRANCH   1  10
BRANCH   3  22
ATOM     22  C   UNL d   1     -41.856-122.989 -51.487  0.00  0.00     0.082 C 
BRANCH  22  23
ATOM     23  C   UNL d   1     -41.604-123.078 -52.269  0.00  0.00     0.019 C 
BRANCH  23  24
ATOM     24  C   UNL d   1     -42.013-123.572 -52.787  0.00  0.00     0.002 C 
BRANCH  24  25
ATOM     25  C   UNL d   1     -41.644-123.814 -53.491  0.00  0.00     0.000 C 
ATOM     26  C   UNL d   1     -41.946-123.559 -54.225  0.00  0.00     0.000 C 
ENDBRANCH  24  25
ENDBRANCH  23  24
ENDBRANCH  22  23
ENDBRANCH   3  22
TORSDOF 8
ENDMDL
MODEL 2
REMARK VINA RESULT:       9.3      1.258      3.990
REMARK  8 active torsions:
REMARK  status: ('A' for Active; 'I' for Inactive)
REMARK    1  A    between atoms: C_4  and  C_1 
REMARK    2  A    between atoms: C_11  and  N_3 
REMARK    3  A    between atoms: N_7  and  C_4 
REMARK    4  A    between atoms: C_9  and  C_4 
REMARK       I    between atoms: C_8  and  N_7 
REMARK    5  A    between atoms: C_12  and  C_9 
REMARK    6  A    between atoms: C_18  and  C_11 
REMARK    7  A    between atoms: C_20  and  C_18 
REMARK    8  A    between atoms: C_19  and  C_20 
ROOT
ATOM      1  C   UNL d   1     -41.923-123.010 -50.201  0.00  0.00     0.166 A 
ATOM      2  N   UNL d   1     -41.384-123.380 -49.692  0.00  0.00    -0.225 NA
ATOM      3  N   UNL d   1     -42.616-122.869 -49.781  0.00  0.00    -0.288 N 
ATOM      4  C   UNL d   1     -42.513-123.148 -49.010  0.00  0.00     0.083 A 
ATOM      5  C   UNL d   1     -41.746-123.464 -48.962  0.00  0.00     0.099 A 
ATOM      6  C   UNL d   1     -43.010-123.155 -48.359  0.00  0.00     0.019 A 
ATOM      7  C   UNL d   1     -41.484-123.787 -48.252  0.00  0.00     0.021 A 
ATOM      8  C   UNL d   1     -42.749-123.479 -47.646  0.00  0.00     0.002 A 
ATOM      9  C   UNL d   1     -41.984-123.797 -47.589  0.00  0.00     0.002 A 
ENDROOT
BRANCH   1  10
ATOM     10  C   UNL d   1     -41.788-122.817 -50.996  0.00  0.00     0.119 C 
BRANCH  10  11
ATOM     11  N   UNL d   1     -42.320-123.061 -51.574  0.00  0.00    -0.205 NA
ATOM     12  C   UNL d   1     -42.073-123.559 -52.184  0.00  0.00     0.280 C 
ATOM     13  O   UNL d   1     -42.605-123.804 -52.762  0.00  0.00    -0.265 OA
ATOM     14  C   UNL d   1     -41.284-123.817 -52.217  0.00  0.00     0.068 C 
ENDBRANCH  10  11
BRANCH  10  15
ATOM     15  C   UNL d   1     -41.123-122.381 -51.208  0.00  0.00     0.022 C 
BRANCH  15  16
ATOM     16  C   UNL d   1     -41.203-121.616 -51.493  0.00  0.00     0.002 A 
ATOM     17  C   UNL d   1     -41.190-120.974 -50.978  0.00  0.00     0.000 A 
ATOM     18  C   UNL d   1     -41.270-120.205 -51.265  0.00  0.00     0.000 A 
ATOM     19  C   UNL d   1     -41.365-120.078 -52.073  0.00  0.00     0.000 A 
ATOM     20  C   UNL d   1     -41.378-120.725 -52.594  0.00  0.00     0.000 A 
ATOM     21  C   UNL d   1     -41.298-121.488 -52.300  0.00  0.00     0.000 A 
ENDBRANCH  15  16
ENDBRANCH  10  15
ENDBRANCH   1  10
BRANCH   3  22
ATOM     22  C   UNL d   1     -43.300-122.508 -50.078  0.00  0.00     0.082 C 
BRANCH  22  23
ATOM     23  C   UNL d   1     -43.922-122.321 -49.568  0.00  0.00     0.019 C 
BRANCH  23  24
ATOM     24  C   UNL d   1     -44.653-122.084 -49.868  0.00  0.00     0.002 C 
BRANCH  24  25
ATOM     25  C   UNL d   1     -44.799-121.275 -49.985  0.00  0.00     0.000 C 
ATOM     26  C   UNL d   1     -45.583-121.002 -50.060  0.00  0.00     0.000 C 
ENDBRANCH  24  25
ENDBRANCH  23  24
ENDBRANCH  22  23
ENDBRANCH   3  22
TORSDOF 8
ENDMDL
MODEL 3
REMARK VINA RESULT:      10.4      1.162      4.034
REMARK  8 active torsions:
REMARK  status: ('A' for Active; 'I' for Inactive)
REMARK    1  A    between atoms: C_4  and  C_1 
REMARK    2  A    between atoms: C_11  and  N_3 
REMARK    3  A    between atoms: N_7  and  C_4 
REMARK    4  A    between atoms: C_9  and  C_4 
REMARK       I    between atoms: C_8  and  N_7 
REMARK    5  A    between atoms: C_12  and  C_9 
REMARK    6  A    between atoms: C_18  and  C_11 
REMARK    7  A    between atoms: C_20  and  C_18 
REMARK    8  A    between atoms: C_19  and  C_20 
ROOT
ATOM      1  C   UNL d   1     -41.758-122.567 -50.530  0.00  0.00     0.166 A 
ATOM      2  N   UNL d   1     -41.161-122.477 -49.963  0.00  0.00    -0.225 NA
ATOM      3  N   UNL d   1     -42.425-122.867 -50.153  0.00  0.00    -0.288 N 
ATOM      4  C   UNL d   1     -42.248-122.967 -49.352  0.00  0.00     0.083 A 
ATOM      5  C   UNL d   1     -41.461-122.723 -49.241  0.00  0.00     0.099 A 
ATOM      6  C   UNL d   1     -42.693-123.243 -48.723  0.00  0.00     0.019 A 
ATOM      7  C   UNL d   1     -41.127-122.759 -48.490  0.00  0.00     0.021 A 
ATOM      8  C   UNL d   1     -42.360-123.280 -47.968  0.00  0.00     0.002 A 
ATOM      9  C   UNL d   1     -41.575-123.038 -47.848  0.00  0.00     0.002 A 
ENDROOT
BRANCH   1  10
ATOM     10  C   UNL d   1     -41.695-122.385 -51.336  0.00  0.00     0.119 C 
BRANCH  10  11
ATOM     11  N   UNL d   1     -42.134-121.766 -51.653  0.00  0.00    -0.205 NA
ATOM     12  C   UNL d   1     -41.911-120.983 -51.516  0.00  0.00     0.280 C 
ATOM     13  O   UNL d   1     -42.351-120.364 -51.833  0.00  0.00    -0.265 OA
ATOM     14  C   UNL d   1     -41.240-120.817 -51.056  0.00  0.00     0.068 C 
ENDBRANCH  10  11
BRANCH  10  15
ATOM     15  C   UNL d   1     -41.194-122.822 -51.820  0.00  0.00     0.022 C 
BRANCH  15  16
ATOM     16  C   UNL d   1     -41.406-122.986 -52.596  0.00  0.00     0.002 A 
ATOM     17  C   UNL d   1     -41.899-123.621 -52.771  0.00  0.00     0.000 A 
ATOM     18  C   UNL d   1     -42.111-123.784 -53.550  0.00  0.00     0.000 A 
ATOM     19  C   UNL d   1     -41.829-123.308 -54.159  0.00  0.00     0.000 A 
ATOM     20  C   UNL d   1     -41.331-122.667 -53.985  0.00  0.00     0.000 A 
ATOM     21  C   UNL d   1     -41.124-122.510 -53.205  0.00  0.00     0.000 A 
ENDBRANCH  15  16
ENDBRANCH  10  15
ENDBRANCH   1  10
BRANCH   3  22
ATOM     22  C   UNL d   1     -43.150-123.041 -50.514  0.00  0.00     0.082 C 
BRANCH  22  23
ATOM     23  C   UNL d   1     -43.792-123.285 -50.054  0.00  0.00     0.019 C 
BRANCH  23  24
ATOM     24  C   UNL d   1     -44.506-122.873 -50.078  0.00  0.00     0.002 C 
BRANCH  24  25
ATOM     25  C   UNL d   1     -45.186-123.224 -49.758  0.00  0.00     0.000 C 
ATOM     26  C   UNL d   1     -45.724-123.618 -50.259  0.00  0.00     0.000 C 
ENDBRANCH  24  25
ENDBRANCH  23  24
ENDBRANCH  22  23
ENDBRANCH   3  22
TORSDOF 8
ENDMDL
MODEL 4
REMARK VINA RESULT:      10.5      1.261      4.277
REMARK  8 active torsions:
REMARK  status: ('A' for Active; 'I' for Inactive)
REMARK    1  A    between atoms: C_4  and  C_1 
REMARK    2  A    between atoms: C_11  and  N_3 
REMARK    3  A    between atoms: N_7  and  C_4 
REMARK    4  A    between atoms: C_9  and  C_4 
REMARK       I    between atoms: C_8  and  N_7 
REMARK    5  A    between atoms: C_12  and  C_9 
REMARK    6  A    between atoms: C_18  and  C_11 
REMARK    7  A    between atoms: C_20  and  C_18 
REMARK    8  A    between atoms: C_19  and  C_20 
ROOT
ATOM      1  C   UNL d   1     -42.374-122.327 -51.114  0.00  0.00     0.166 A 
ATOM      2  N   UNL d   1     -43.159-122.552 -51.248  0.00  0.00    -0.225 NA
ATOM      3  N   UNL d   1     -42.172-122.549 -50.347  0.00  0.00    -0.288 N 
ATOM      4  C   UNL d   1     -42.829-122.912 -50.001  0.00  0.00     0.083 A 
ATOM      5  C   UNL d   1     -43.438-122.911 -50.566  0.00  0.00     0.099 A 
ATOM      6  C   UNL d   1     -42.948-123.237 -49.259  0.00  0.00     0.019 A 
ATOM      7  C   UNL d   1     -44.169-123.240 -50.377  0.00  0.00     0.021 A 
ATOM      8  C   UNL d   1     -43.679-123.568 -49.067  0.00  0.00     0.002 A 
ATOM      9  C   UNL d   1     -44.294-123.571 -49.626  0.00  0.00     0.002 A 
ENDROOT
BRANCH   1  10
ATOM     10  C   UNL d   1     -41.876-121.945 -51.656  0.00  0.00     0.119 C 
BRANCH  10  11
ATOM     11  N   UNL d   1     -42.047-121.178 -51.900  0.00  0.00    -0.205 NA
ATOM     12  C   UNL d   1     -41.677-120.534 -51.540  0.00  0.00     0.280 C 
ATOM     13  O   UNL d   1     -41.847-119.767 -51.783  0.00  0.00    -0.265 OA
ATOM     14  C   UNL d   1     -41.129-120.658 -50.928  0.00  0.00     0.068 C 
ENDBRANCH  10  11
BRANCH  10  15
ATOM     15  C   UNL d   1     -41.213-122.331 -51.951  0.00  0.00     0.022 C 
BRANCH  15  16
ATOM     16  C   UNL d   1     -41.225-122.658 -52.703  0.00  0.00     0.002 A 
ATOM     17  C   UNL d   1     -41.134-122.183 -53.369  0.00  0.00     0.000 A 
ATOM     18  C   UNL d   1     -41.145-122.513 -54.124  0.00  0.00     0.000 A 
ATOM     19  C   UNL d   1     -41.249-123.324 -54.214  0.00  0.00     0.000 A 
ATOM     20  C   UNL d   1     -41.341-123.806 -53.544  0.00  0.00     0.000 A 
ATOM     21  C   UNL d   1     -41.328-123.470 -52.794  0.00  0.00     0.000 A 
ENDBRANCH  15  16
ENDBRANCH  10  15
ENDBRANCH   1  10
BRANCH   3  22
ATOM     22  C   UNL d   1     -41.437-122.429 -49.983  0.00  0.00     0.082 C 
BRANCH  22  23
ATOM     23  C   UNL d   1     -41.229-122.874 -49.319  0.00  0.00     0.019 C 
BRANCH  23  24
ATOM     24  C   UNL d   1     -41.419-122.609 -48.561  0.00  0.00     0.002 C 
BRANCH  24  25
ATOM     25  C   UNL d   1     -41.130-123.025 -47.903  0.00  0.00     0.000 C 
ATOM     26  C   UNL d   1     -41.614-123.126 -47.232  0.00  0.00     0.000 C 
ENDBRANCH  24  25
ENDBRANCH  23  24
ENDBRANCH  22  23
ENDBRANCH   3  22
TORSDOF 8
ENDMDL
