MODEL 1
REMARK VINA RESULT:      12.3      0.000      0.000
REMARK  2 active torsions:
REMARK  status: ('A' for Active; 'I' for Inactive)
REMARK    1  A    between atoms: N_7  and  C_2 
REMARK    2  A    between atoms: C_10  and  N_7 
ROOT
ATOM      1  N   UNL d   1      45.231 -15.847  37.407  0.00  0.00     0.002 N 
ATOM      2  C   UNL d   1      44.621 -15.697  36.872  0.00  0.00     0.773 A 
ATOM      3  C   UNL d   1      45.900 -15.368  37.398  0.00  0.00     0.317 A 
ATOM      4  N   UNL d   1      44.682 -15.067  36.330  0.00  0.00     0.046 NA
ATOM      5  N   UNL d   1      45.353 -14.597  36.330  0.00  0.00    -0.127 NA
ATOM      6  C   UNL d   1      45.961 -14.739  36.856  0.00  0.00     0.162 A 
ATOM      7  O   UNL d   1      46.521 -15.533  37.953  0.00  0.00    -0.263 OA
ATOM      8  N   UNL d   1      45.171 -16.466  37.939  0.00  0.00    -0.023 N 
ATOM      9  C   UNL d   1      46.646 -14.253  36.852  0.00  0.00     0.028 C 
ENDROOT
BRANCH   2  10
ATOM     10  N   UNL d   1      43.934 -16.197  36.890  0.00  0.00    -0.058 NA
BRANCH  10  11
ATOM     11  C   UNL d   1      43.167 -15.876  36.917  0.00  0.00     0.100 A 
ATOM     12  C   UNL d   1      42.965 -15.380  37.532  0.00  0.00     0.020 A 
ATOM     13  C   UNL d   1      42.193 -15.056  37.560  0.00  0.00     0.002 A 
ATOM     14  C   UNL d   1      41.659 -15.244  36.971  0.00  0.00     0.000 A 
ATOM     15  C   UNL d   1      41.864 -15.739  36.359  0.00  0.00     0.002 A 
ATOM     16  C   UNL d   1      42.636 -16.062  36.331  0.00  0.00     0.020 A 
ENDBRANCH  10  11
ENDBRANCH   2  10
TORSDOF 2
ENDMDL
MODEL 2
REMARK VINA RESULT:      14.6      7.268      8.063
REMARK  2 active torsions:
REMARK  status: ('A' for Active; 'I' for Inactive)
REMARK    1  A    between atoms: N_7  and  C_2 
REMARK    2  A    between atoms: C_10  and  N_7 
ROOT
ATOM      1  N   UNL d   1      46.392 -18.601  43.324  0.00  0.00     0.002 N 
ATOM      2  C   UNL d   1      46.286 -17.979  43.856  0.00  0.00     0.773 A 
ATOM      3  C   UNL d   1      46.497 -19.363  43.615  0.00  0.00     0.317 A 
ATOM      4  N   UNL d   1      46.284 -18.122  44.676  0.00  0.00     0.046 NA
ATOM      5  N   UNL d   1      46.389 -18.885  44.955  0.00  0.00    -0.127 NA
ATOM      6  C   UNL d   1      46.495 -19.506  44.436  0.00  0.00     0.162 A 
ATOM      7  O   UNL d   1      46.605 -19.996  43.059  0.00  0.00    -0.263 OA
ATOM      8  N   UNL d   1      46.393 -18.461  42.519  0.00  0.00    -0.023 N 
ATOM      9  C   UNL d   1      46.603 -20.287  44.727  0.00  0.00     0.028 C 
ENDROOT
BRANCH   2  10
ATOM     10  N   UNL d   1      46.178 -17.195  43.545  0.00  0.00    -0.058 NA
BRANCH  10  11
ATOM     11  C   UNL d   1      45.879 -16.580  44.021  0.00  0.00     0.100 A 
ATOM     12  C   UNL d   1      46.276 -15.868  44.047  0.00  0.00     0.020 A 
ATOM     13  C   UNL d   1      45.975 -15.250  44.525  0.00  0.00     0.002 A 
ATOM     14  C   UNL d   1      45.291 -15.372  44.955  0.00  0.00     0.000 A 
ATOM     15  C   UNL d   1      44.898 -16.084  44.926  0.00  0.00     0.002 A 
ATOM     16  C   UNL d   1      45.199 -16.702  44.448  0.00  0.00     0.020 A 
ENDBRANCH  10  11
ENDBRANCH   2  10
TORSDOF 2
ENDMDL
