MODEL 1
REMARK VINA RESULT:      -7.5      0.000      0.000
REMARK  6 active torsions:
REMARK  status: ('A' for Active; 'I' for Inactive)
REMARK    1  A    between atoms: C_7  and  C_1 
REMARK    2  A    between atoms: N_5  and  C_3 
REMARK       I    between atoms: C_9  and  N_5 
REMARK    3  A    between atoms: C_8  and  S_11 
REMARK    4  A    between atoms: C_13  and  C_9 
REMARK    5  A    between atoms: S_11  and  C_13 
REMARK    6  A    between atoms: O_17  and  C_14 
ROOT
ATOM      1  C   UNL d   1      52.208  33.281  53.047  0.00  0.00     0.137 A 
ATOM      2  S   UNL d   1      51.425  33.434  53.276  0.00  0.00    -0.026 SA
ATOM      3  C   UNL d   1      51.195  34.160  52.953  0.00  0.00     0.219 A 
ATOM      4  N   UNL d   1      52.462  33.921  52.579  0.00  0.00    -0.139 NA
ATOM      5  N   UNL d   1      51.838  34.462  52.521  0.00  0.00    -0.121 NA
ENDROOT
BRANCH   3   6
ATOM      6  N   UNL d   1      50.460  34.524  53.041  0.00  0.00    -0.181 NA
ATOM      7  C   UNL d   1      49.938  34.583  52.398  0.00  0.00     0.287 C 
ATOM      8  O   UNL d   1      50.161  34.272  51.665  0.00  0.00    -0.265 OA
BRANCH   7   9
ATOM      9  C   UNL d   1      49.202  34.950  52.493  0.00  0.00     0.089 C 
ATOM     10  C   UNL d   1      48.967  35.215  53.238  0.00  0.00     0.012 C 
BRANCH   9  11
ATOM     11  S   UNL d   1      48.705  35.048  51.832  0.00  0.00    -0.057 SA
BRANCH  11  12
ATOM     12  C   UNL d   1      48.027  35.514  51.906  0.00  0.00     0.141 A 
ATOM     13  N   UNL d   1      47.942  36.209  52.358  0.00  0.00    -0.230 NA
ATOM     14  C   UNL d   1      47.167  36.488  52.266  0.00  0.00     0.107 A 
ATOM     15  C   UNL d   1      46.762  35.969  51.756  0.00  0.00     0.058 A 
ATOM     16  S   UNL d   1      47.293  35.366  51.533  0.00  0.00    -0.059 SA
ENDBRANCH  11  12
ENDBRANCH   9  11
ENDBRANCH   7   9
ENDBRANCH   3   6
BRANCH   1  17
ATOM     17  C   UNL d   1      52.662  32.615  53.246  0.00  0.00     0.048 A 
ATOM     18  C   UNL d   1      53.231  32.658  53.823  0.00  0.00     0.096 A 
ATOM     19  C   UNL d   1      53.674  32.002  54.015  0.00  0.00     0.024 A 
ATOM     20  C   UNL d   1      53.529  31.306  53.612  0.00  0.00     0.002 A 
ATOM     21  C   UNL d   1      52.973  31.251  53.043  0.00  0.00     0.000 A 
ATOM     22  C   UNL d   1      52.527  31.909  52.850  0.00  0.00     0.004 A 
BRANCH  18  23
ATOM     23  O   UNL d   1      53.368  33.352  54.217  0.00  0.00    -0.328 OA
ATOM     24  C   UNL d   1      54.042  33.298  54.867  0.00  0.00     0.181 C 
ENDBRANCH  18  23
ENDBRANCH   1  17
TORSDOF 6
ENDMDL
MODEL 2
REMARK VINA RESULT:      -6.4      1.539      5.400
REMARK  6 active torsions:
REMARK  status: ('A' for Active; 'I' for Inactive)
REMARK    1  A    between atoms: C_7  and  C_1 
REMARK    2  A    between atoms: N_5  and  C_3 
REMARK       I    between atoms: C_9  and  N_5 
REMARK    3  A    between atoms: C_8  and  S_11 
REMARK    4  A    between atoms: C_13  and  C_9 
REMARK    5  A    between atoms: S_11  and  C_13 
REMARK    6  A    between atoms: O_17  and  C_14 
ROOT
ATOM      1  C   UNL d   1      50.279  34.479  52.595  0.00  0.00     0.137 A 
ATOM      2  S   UNL d   1      50.538  33.710  52.768  0.00  0.00    -0.026 SA
ATOM      3  C   UNL d   1      51.269  33.760  53.151  0.00  0.00     0.219 A 
ATOM      4  N   UNL d   1      50.858  35.008  52.876  0.00  0.00    -0.139 NA
ATOM      5  N   UNL d   1      51.468  34.565  53.219  0.00  0.00    -0.121 NA
ENDROOT
BRANCH   3   6
ATOM      6  N   UNL d   1      51.725  33.128  53.421  0.00  0.00    -0.181 NA
ATOM      7  C   UNL d   1      52.381  32.864  52.987  0.00  0.00     0.287 C 
ATOM      8  O   UNL d   1      52.577  33.241  52.277  0.00  0.00    -0.265 OA
BRANCH   7   9
ATOM      9  C   UNL d   1      52.835  32.228  53.264  0.00  0.00     0.089 C 
ATOM     10  C   UNL d   1      53.236  32.291  53.982  0.00  0.00     0.012 C 
BRANCH   9  11
ATOM     11  S   UNL d   1      52.881  31.531  52.812  0.00  0.00    -0.057 SA
BRANCH  11  12
ATOM     12  C   UNL d   1      53.050  30.817  53.192  0.00  0.00     0.141 A 
ATOM     13  N   UNL d   1      53.744  30.625  53.612  0.00  0.00    -0.230 NA
ATOM     14  C   UNL d   1      53.670  29.851  53.899  0.00  0.00     0.107 A 
ATOM     15  C   UNL d   1      52.930  29.554  53.660  0.00  0.00     0.058 A 
ATOM     16  S   UNL d   1      52.546  30.151  53.223  0.00  0.00    -0.059 SA
ENDBRANCH  11  12
ENDBRANCH   9  11
ENDBRANCH   7   9
ENDBRANCH   3   6
BRANCH   1  17
ATOM     17  C   UNL d   1      49.573  34.691  52.213  0.00  0.00     0.048 A 
ATOM     18  C   UNL d   1      49.019  35.149  52.590  0.00  0.00     0.096 A 
ATOM     19  C   UNL d   1      48.328  35.354  52.211  0.00  0.00     0.024 A 
ATOM     20  C   UNL d   1      48.211  35.087  51.448  0.00  0.00     0.002 A 
ATOM     21  C   UNL d   1      48.747  34.637  51.067  0.00  0.00     0.000 A 
ATOM     22  C   UNL d   1      49.442  34.430  51.447  0.00  0.00     0.004 A 
BRANCH  18  23
ATOM     23  O   UNL d   1      49.143  35.410  53.347  0.00  0.00    -0.328 OA
ATOM     24  C   UNL d   1      48.446  35.932  53.693  0.00  0.00     0.181 C 
ENDBRANCH  18  23
ENDBRANCH   1  17
TORSDOF 6
ENDMDL
MODEL 3
REMARK VINA RESULT:      -6.2      1.685      5.458
REMARK  6 active torsions:
REMARK  status: ('A' for Active; 'I' for Inactive)
REMARK    1  A    between atoms: C_7  and  C_1 
REMARK    2  A    between atoms: N_5  and  C_3 
REMARK       I    between atoms: C_9  and  N_5 
REMARK    3  A    between atoms: C_8  and  S_11 
REMARK    4  A    between atoms: C_13  and  C_9 
REMARK    5  A    between atoms: S_11  and  C_13 
REMARK    6  A    between atoms: O_17  and  C_14 
ROOT
ATOM      1  C   UNL d   1      49.826  34.333  52.452  0.00  0.00     0.137 A 
ATOM      2  S   UNL d   1      50.572  34.678  52.570  0.00  0.00    -0.026 SA
ATOM      3  C   UNL d   1      51.001  34.199  53.091  0.00  0.00     0.219 A 
ATOM      4  N   UNL d   1      49.796  33.635  52.904  0.00  0.00    -0.139 NA
ATOM      5  N   UNL d   1      50.521  33.552  53.299  0.00  0.00    -0.121 NA
ENDROOT
BRANCH   3   6
ATOM      6  N   UNL d   1      51.769  34.333  53.360  0.00  0.00    -0.181 NA
ATOM      7  C   UNL d   1      52.375  33.789  53.199  0.00  0.00     0.287 C 
ATOM      8  O   UNL d   1      52.202  33.106  52.765  0.00  0.00    -0.265 OA
BRANCH   7   9
ATOM      9  C   UNL d   1      53.144  33.930  53.473  0.00  0.00     0.089 C 
ATOM     10  C   UNL d   1      53.419  34.705  53.544  0.00  0.00     0.012 C 
BRANCH   9  11
ATOM     11  S   UNL d   1      53.632  33.286  53.672  0.00  0.00    -0.057 SA
BRANCH  11  12
ATOM     12  C   UNL d   1      54.117  33.342  54.338  0.00  0.00     0.141 A 
ATOM     13  N   UNL d   1      53.890  33.251  55.135  0.00  0.00    -0.230 NA
ATOM     14  C   UNL d   1      54.560  33.355  55.612  0.00  0.00     0.107 A 
ATOM     15  C   UNL d   1      55.210  33.512  55.116  0.00  0.00     0.058 A 
ATOM     16  S   UNL d   1      54.938  33.505  54.329  0.00  0.00    -0.059 SA
ENDBRANCH  11  12
ENDBRANCH   9  11
ENDBRANCH   7   9
ENDBRANCH   3   6
BRANCH   1  17
ATOM     17  C   UNL d   1      49.216  34.625  51.971  0.00  0.00     0.048 A 
ATOM     18  C   UNL d   1      48.674  35.155  52.264  0.00  0.00     0.096 A 
ATOM     19  C   UNL d   1      48.077  35.438  51.788  0.00  0.00     0.024 A 
ATOM     20  C   UNL d   1      48.041  35.178  51.015  0.00  0.00     0.002 A 
ATOM     21  C   UNL d   1      48.566  34.659  50.715  0.00  0.00     0.000 A 
ATOM     22  C   UNL d   1      49.167  34.373  51.192  0.00  0.00     0.004 A 
BRANCH  18  23
ATOM     23  O   UNL d   1      48.718  35.408  53.032  0.00  0.00    -0.328 OA
ATOM     24  C   UNL d   1      48.051  36.021  53.272  0.00  0.00     0.181 C 
ENDBRANCH  18  23
ENDBRANCH   1  17
TORSDOF 6
ENDMDL
MODEL 4
REMARK VINA RESULT:      -5.6      9.767     10.729
REMARK  6 active torsions:
REMARK  status: ('A' for Active; 'I' for Inactive)
REMARK    1  A    between atoms: C_7  and  C_1 
REMARK    2  A    between atoms: N_5  and  C_3 
REMARK       I    between atoms: C_9  and  N_5 
REMARK    3  A    between atoms: C_8  and  S_11 
REMARK    4  A    between atoms: C_13  and  C_9 
REMARK    5  A    between atoms: S_11  and  C_13 
REMARK    6  A    between atoms: O_17  and  C_14 
ROOT
ATOM      1  C   UNL d   1      45.031  29.076  57.809  0.00  0.00     0.137 A 
ATOM      2  S   UNL d   1      44.534  28.480  57.516  0.00  0.00    -0.026 SA
ATOM      3  C   UNL d   1      44.896  27.749  57.650  0.00  0.00     0.219 A 
ATOM      4  N   UNL d   1      45.706  28.708  58.126  0.00  0.00    -0.139 NA
ATOM      5  N   UNL d   1      45.623  27.889  58.028  0.00  0.00    -0.121 NA
ENDROOT
BRANCH   3   6
ATOM      6  N   UNL d   1      44.595  27.008  57.446  0.00  0.00    -0.181 NA
ATOM      7  C   UNL d   1      44.966  26.546  56.864  0.00  0.00     0.287 C 
ATOM      8  O   UNL d   1      45.643  26.835  56.488  0.00  0.00    -0.265 OA
BRANCH   7   9
ATOM      9  C   UNL d   1      44.658  25.804  56.664  0.00  0.00     0.089 C 
ATOM     10  C   UNL d   1      44.495  25.253  57.257  0.00  0.00     0.012 C 
BRANCH   9  11
ATOM     11  S   UNL d   1      44.516  25.621  55.865  0.00  0.00    -0.057 SA
BRANCH  11  12
ATOM     12  C   UNL d   1      44.627  24.844  55.605  0.00  0.00     0.141 A 
ATOM     13  N   UNL d   1      45.063  24.245  55.987  0.00  0.00    -0.230 NA
ATOM     14  C   UNL d   1      45.021  23.557  55.526  0.00  0.00     0.107 A 
ATOM     15  C   UNL d   1      44.558  23.723  54.853  0.00  0.00     0.058 A 
ATOM     16  S   UNL d   1      44.314  24.518  54.901  0.00  0.00    -0.059 SA
ENDBRANCH  11  12
ENDBRANCH   9  11
ENDBRANCH   7   9
ENDBRANCH   3   6
BRANCH   1  17
ATOM     17  C   UNL d   1      44.888  29.894  57.792  0.00  0.00     0.048 A 
ATOM     18  C   UNL d   1      44.833  30.320  58.482  0.00  0.00     0.096 A 
ATOM     19  C   UNL d   1      44.693  31.121  58.460  0.00  0.00     0.024 A 
ATOM     20  C   UNL d   1      44.609  31.481  57.731  0.00  0.00     0.002 A 
ATOM     21  C   UNL d   1      44.660  31.074  57.048  0.00  0.00     0.000 A 
ATOM     22  C   UNL d   1      44.802  30.268  57.068  0.00  0.00     0.004 A 
BRANCH  18  23
ATOM     23  O   UNL d   1      44.917  29.955  59.200  0.00  0.00    -0.328 OA
ATOM     24  C   UNL d   1      44.826  30.529  59.935  0.00  0.00     0.181 C 
ENDBRANCH  18  23
ENDBRANCH   1  17
TORSDOF 6
ENDMDL
