MODEL 1
REMARK VINA RESULT:      -5.0      0.000      0.000
REMARK  4 active torsions:
REMARK  status: ('A' for Active; 'I' for Inactive)
REMARK    1  A    between atoms: C_3  and  C_1 
REMARK    2  A    between atoms: C_4  and  C_1 
REMARK    3  A    between atoms: C_2  and  C_3 
REMARK    4  A    between atoms: C_6  and  C_4 
ROOT
ATOM      1  C   UNL d   1     -41.441-122.142 -51.181  0.00  0.00     0.196 C 
ATOM      2  O   UNL d   1     -41.123-121.384 -51.083  0.00  0.00    -0.287 OA
ENDROOT
BRANCH   1   3
ATOM      3  C   UNL d   1     -41.429-122.498 -51.925  0.00  0.00     0.044 C 
BRANCH   3   4
ATOM      4  C   UNL d   1     -41.135-122.284 -52.663  0.00  0.00     0.028 C 
BRANCH   4   5
ATOM      5  C   UNL d   1     -41.344-122.459 -53.442  0.00  0.00     0.100 A 
ATOM      6  O   UNL d   1     -41.758-122.011 -54.001  0.00  0.00    -0.305 OA
ATOM      7  C   UNL d   1     -41.816-122.446 -54.696  0.00  0.00     0.123 A 
ATOM      8  C   UNL d   1     -41.431-123.177 -54.570  0.00  0.00     0.029 A 
ATOM      9  C   UNL d   1     -41.140-123.190 -53.799  0.00  0.00     0.027 A 
ENDBRANCH   4   5
ENDBRANCH   3   4
ENDBRANCH   1   3
BRANCH   1  10
ATOM     10  C   UNL d   1     -41.767-122.531 -50.529  0.00  0.00     0.039 A 
ATOM     11  C   UNL d   1     -41.349-123.125 -50.137  0.00  0.00     0.006 A 
ATOM     12  C   UNL d   1     -41.686-123.505 -49.487  0.00  0.00     0.042 A 
ATOM     13  C   UNL d   1     -42.442-123.291 -49.229  0.00  0.00     0.196 A 
ATOM     14  C   UNL d   1     -42.861-122.692 -49.627  0.00  0.00     0.042 A 
ATOM     15  O   UNL d   1     -42.780-123.672 -48.580  0.00  0.00    -0.287 OA
ATOM     16  C   UNL d   1     -42.523-122.317 -50.270  0.00  0.00     0.006 A 
ENDBRANCH   1  10
TORSDOF 4
ENDMDL
MODEL 2
REMARK VINA RESULT:      -4.9      1.073      4.401
REMARK  4 active torsions:
REMARK  status: ('A' for Active; 'I' for Inactive)
REMARK    1  A    between atoms: C_3  and  C_1 
REMARK    2  A    between atoms: C_4  and  C_1 
REMARK    3  A    between atoms: C_2  and  C_3 
REMARK    4  A    between atoms: C_6  and  C_4 
ROOT
ATOM      1  C   UNL d   1     -41.394-122.995 -53.333  0.00  0.00     0.196 C 
ATOM      2  O   UNL d   1     -41.123-123.775 -53.368  0.00  0.00    -0.287 OA
ENDROOT
BRANCH   1   3
ATOM      3  C   UNL d   1     -41.408-122.597 -52.610  0.00  0.00     0.044 C 
BRANCH   3   4
ATOM      4  C   UNL d   1     -41.202-122.795 -51.839  0.00  0.00     0.028 C 
BRANCH   4   5
ATOM      5  C   UNL d   1     -41.556-122.689 -51.100  0.00  0.00     0.100 A 
ATOM      6  O   UNL d   1     -42.267-122.321 -50.892  0.00  0.00    -0.305 OA
ATOM      7  C   UNL d   1     -42.359-122.370 -50.076  0.00  0.00     0.123 A 
ATOM      8  C   UNL d   1     -41.695-122.775 -49.770  0.00  0.00     0.029 A 
ATOM      9  C   UNL d   1     -41.198-122.973 -50.396  0.00  0.00     0.027 A 
ENDBRANCH   4   5
ENDBRANCH   3   4
ENDBRANCH   1   3
BRANCH   1  10
ATOM     10  C   UNL d   1     -41.648-122.623 -54.026  0.00  0.00     0.039 A 
ATOM     11  C   UNL d   1     -42.319-122.145 -54.030  0.00  0.00     0.006 A 
ATOM     12  C   UNL d   1     -42.561-121.780 -54.729  0.00  0.00     0.042 A 
ATOM     13  C   UNL d   1     -42.131-121.894 -55.426  0.00  0.00     0.196 A 
ATOM     14  C   UNL d   1     -41.453-122.378 -55.418  0.00  0.00     0.042 A 
ATOM     15  O   UNL d   1     -42.372-121.530 -56.125  0.00  0.00    -0.287 OA
ATOM     16  C   UNL d   1     -41.217-122.738 -54.723  0.00  0.00     0.006 A 
ENDBRANCH   1  10
TORSDOF 4
ENDMDL
MODEL 3
REMARK VINA RESULT:      -4.6      0.820      4.103
REMARK  4 active torsions:
REMARK  status: ('A' for Active; 'I' for Inactive)
REMARK    1  A    between atoms: C_3  and  C_1 
REMARK    2  A    between atoms: C_4  and  C_1 
REMARK    3  A    between atoms: C_2  and  C_3 
REMARK    4  A    between atoms: C_6  and  C_4 
ROOT
ATOM      1  C   UNL d   1     -41.439-122.109 -52.167  0.00  0.00     0.196 C 
ATOM      2  O   UNL d   1     -41.123-121.353 -52.052  0.00  0.00    -0.287 OA
ENDROOT
BRANCH   1   3
ATOM      3  C   UNL d   1     -41.722-122.539 -51.522  0.00  0.00     0.044 C 
BRANCH   3   4
ATOM      4  C   UNL d   1     -41.846-122.370 -50.727  0.00  0.00     0.028 C 
BRANCH   4   5
ATOM      5  C   UNL d   1     -42.289-122.719 -50.124  0.00  0.00     0.100 A 
ATOM      6  O   UNL d   1     -43.104-122.850 -50.062  0.00  0.00    -0.305 OA
ATOM      7  C   UNL d   1     -43.256-123.219 -49.343  0.00  0.00     0.123 A 
ATOM      8  C   UNL d   1     -42.526-123.320 -48.950  0.00  0.00     0.029 A 
ATOM      9  C   UNL d   1     -41.928-123.014 -49.427  0.00  0.00     0.027 A 
ENDBRANCH   4   5
ENDBRANCH   3   4
ENDBRANCH   1   3
BRANCH   1  10
ATOM     10  C   UNL d   1     -41.465-122.423 -52.932  0.00  0.00     0.039 A 
ATOM     11  C   UNL d   1     -41.827-122.010 -53.547  0.00  0.00     0.006 A 
ATOM     12  C   UNL d   1     -41.846-122.336 -54.305  0.00  0.00     0.042 A 
ATOM     13  C   UNL d   1     -41.504-123.075 -54.447  0.00  0.00     0.196 A 
ATOM     14  C   UNL d   1     -41.140-123.489 -53.822  0.00  0.00     0.042 A 
ATOM     15  O   UNL d   1     -41.524-123.401 -55.205  0.00  0.00    -0.287 OA
ATOM     16  C   UNL d   1     -41.123-123.163 -53.073  0.00  0.00     0.006 A 
ENDBRANCH   1  10
TORSDOF 4
ENDMDL
