MODEL 1
REMARK VINA RESULT:      -7.7      0.000      0.000
REMARK  6 active torsions:
REMARK  status: ('A' for Active; 'I' for Inactive)
REMARK    1  A    between atoms: S_12  and  C_1 
REMARK    2  A    between atoms: C_2  and  S_11 
REMARK    3  A    between atoms: S_11  and  C_15 
REMARK    4  A    between atoms: C_16  and  S_12 
REMARK    5  A    between atoms: C_13  and  C_16 
REMARK    6  A    between atoms: C_15  and  C_13 
ROOT
ATOM      1  C   UNL d   1      50.530  34.215  52.417  0.00  0.00     0.209 C 
ATOM      2  O   UNL d   1      50.676  34.097  51.604  0.00  0.00    -0.285 OA
ENDROOT
BRANCH   1   3
ATOM      3  C   UNL d   1      49.813  34.559  52.659  0.00  0.00     0.080 C 
BRANCH   3   4
ATOM      4  S   UNL d   1      49.280  34.861  52.103  0.00  0.00    -0.058 SA
BRANCH   4   5
ATOM      5  C   UNL d   1      48.618  35.285  52.348  0.00  0.00     0.141 A 
ATOM      6  N   UNL d   1      48.477  35.587  53.110  0.00  0.00    -0.232 NA
ATOM      7  C   UNL d   1      47.745  35.972  53.102  0.00  0.00     0.088 A 
ATOM      8  C   UNL d   1      47.328  36.369  53.693  0.00  0.00     0.020 A 
ATOM      9  C   UNL d   1      47.424  35.914  52.335  0.00  0.00     0.049 A 
ATOM     10  C   UNL d   1      46.595  36.709  53.531  0.00  0.00     0.002 A 
ATOM     11  C   UNL d   1      46.274  36.651  52.764  0.00  0.00     0.001 A 
ATOM     12  C   UNL d   1      46.693  36.252  52.171  0.00  0.00     0.008 A 
ATOM     13  S   UNL d   1      47.961  35.490  51.868  0.00  0.00    -0.060 SA
ENDBRANCH   4   5
ENDBRANCH   3   4
ENDBRANCH   1   3
BRANCH   1  14
ATOM     14  C   UNL d   1      51.095  33.990  52.972  0.00  0.00     0.080 C 
BRANCH  14  15
ATOM     15  S   UNL d   1      51.886  33.891  52.749  0.00  0.00    -0.058 SA
BRANCH  15  16
ATOM     16  C   UNL d   1      52.463  33.736  53.315  0.00  0.00     0.141 A 
ATOM     17  N   UNL d   1      52.811  34.292  53.829  0.00  0.00    -0.232 NA
ATOM     18  C   UNL d   1      53.364  33.889  54.305  0.00  0.00     0.088 A 
ATOM     19  C   UNL d   1      53.863  34.149  54.900  0.00  0.00     0.020 A 
ATOM     20  C   UNL d   1      53.361  33.094  54.089  0.00  0.00     0.049 A 
ATOM     21  C   UNL d   1      54.365  33.621  55.287  0.00  0.00     0.002 A 
ATOM     22  C   UNL d   1      54.359  32.815  55.066  0.00  0.00     0.001 A 
ATOM     23  C   UNL d   1      53.857  32.553  54.467  0.00  0.00     0.008 A 
ATOM     24  S   UNL d   1      52.802  32.995  53.474  0.00  0.00    -0.060 SA
ENDBRANCH  15  16
ENDBRANCH  14  15
ENDBRANCH   1  14
TORSDOF 6
ENDMDL
MODEL 2
REMARK VINA RESULT:      -7.7      0.103      6.086
REMARK  6 active torsions:
REMARK  status: ('A' for Active; 'I' for Inactive)
REMARK    1  A    between atoms: S_12  and  C_1 
REMARK    2  A    between atoms: C_2  and  S_11 
REMARK    3  A    between atoms: S_11  and  C_15 
REMARK    4  A    between atoms: C_16  and  S_12 
REMARK    5  A    between atoms: C_13  and  C_16 
REMARK    6  A    between atoms: C_15  and  C_13 
ROOT
ATOM      1  C   UNL d   1      50.588  34.241  52.392  0.00  0.00     0.209 C 
ATOM      2  O   UNL d   1      50.748  34.090  51.586  0.00  0.00    -0.285 OA
ENDROOT
BRANCH   1   3
ATOM      3  C   UNL d   1      51.178  34.103  52.960  0.00  0.00     0.080 C 
BRANCH   3   4
ATOM      4  S   UNL d   1      51.905  33.771  52.743  0.00  0.00    -0.058 SA
BRANCH   4   5
ATOM      5  C   UNL d   1      52.498  33.661  53.304  0.00  0.00     0.141 A 
ATOM      6  N   UNL d   1      52.879  34.255  53.744  0.00  0.00    -0.232 NA
ATOM      7  C   UNL d   1      53.433  33.892  54.239  0.00  0.00     0.088 A 
ATOM      8  C   UNL d   1      53.964  34.202  54.790  0.00  0.00     0.020 A 
ATOM      9  C   UNL d   1      53.402  33.068  54.111  0.00  0.00     0.049 A 
ATOM     10  C   UNL d   1      54.464  33.704  55.215  0.00  0.00     0.002 A 
ATOM     11  C   UNL d   1      54.433  32.881  55.087  0.00  0.00     0.001 A 
ATOM     12  C   UNL d   1      53.900  32.570  54.534  0.00  0.00     0.008 A 
ATOM     13  S   UNL d   1      52.825  32.924  53.534  0.00  0.00    -0.060 SA
ENDBRANCH   4   5
ENDBRANCH   3   4
ENDBRANCH   1   3
BRANCH   1  14
ATOM     14  C   UNL d   1      49.849  34.525  52.617  0.00  0.00     0.080 C 
BRANCH  14  15
ATOM     15  S   UNL d   1      49.329  34.837  52.052  0.00  0.00    -0.058 SA
BRANCH  15  16
ATOM     16  C   UNL d   1      48.663  35.259  52.286  0.00  0.00     0.141 A 
ATOM     17  N   UNL d   1      48.538  35.607  53.034  0.00  0.00    -0.232 NA
ATOM     18  C   UNL d   1      47.790  35.976  53.021  0.00  0.00     0.088 A 
ATOM     19  C   UNL d   1      47.381  36.398  53.592  0.00  0.00     0.020 A 
ATOM     20  C   UNL d   1      47.456  35.860  52.277  0.00  0.00     0.049 A 
ATOM     21  C   UNL d   1      46.635  36.709  53.429  0.00  0.00     0.002 A 
ATOM     22  C   UNL d   1      46.299  36.590  52.673  0.00  0.00     0.001 A 
ATOM     23  C   UNL d   1      46.710  36.166  52.099  0.00  0.00     0.008 A 
ATOM     24  S   UNL d   1      47.996  35.415  51.818  0.00  0.00    -0.060 SA
ENDBRANCH  15  16
ENDBRANCH  14  15
ENDBRANCH   1  14
TORSDOF 6
ENDMDL
MODEL 3
REMARK VINA RESULT:      -7.5      1.462      1.846
REMARK  6 active torsions:
REMARK  status: ('A' for Active; 'I' for Inactive)
REMARK    1  A    between atoms: S_12  and  C_1 
REMARK    2  A    between atoms: C_2  and  S_11 
REMARK    3  A    between atoms: S_11  and  C_15 
REMARK    4  A    between atoms: C_16  and  S_12 
REMARK    5  A    between atoms: C_13  and  C_16 
REMARK    6  A    between atoms: C_15  and  C_13 
ROOT
ATOM      1  C   UNL d   1      51.191  34.167  52.630  0.00  0.00     0.209 C 
ATOM      2  O   UNL d   1      51.623  34.593  52.056  0.00  0.00    -0.285 OA
ENDROOT
BRANCH   1   3
ATOM      3  C   UNL d   1      50.457  34.456  52.889  0.00  0.00     0.080 C 
BRANCH   3   4
ATOM      4  S   UNL d   1      49.829  34.554  52.357  0.00  0.00    -0.058 SA
BRANCH   4   5
ATOM      5  C   UNL d   1      49.192  35.038  52.549  0.00  0.00     0.141 A 
ATOM      6  N   UNL d   1      49.080  35.450  53.263  0.00  0.00    -0.232 NA
ATOM      7  C   UNL d   1      48.366  35.864  53.212  0.00  0.00     0.088 A 
ATOM      8  C   UNL d   1      47.979  36.359  53.746  0.00  0.00     0.020 A 
ATOM      9  C   UNL d   1      48.027  35.714  52.464  0.00  0.00     0.049 A 
ATOM     10  C   UNL d   1      47.259  36.707  53.549  0.00  0.00     0.002 A 
ATOM     11  C   UNL d   1      46.920  36.557  52.802  0.00  0.00     0.001 A 
ATOM     12  C   UNL d   1      47.309  36.060  52.265  0.00  0.00     0.008 A 
ATOM     13  S   UNL d   1      48.535  35.204  52.054  0.00  0.00    -0.060 SA
ENDBRANCH   4   5
ENDBRANCH   3   4
ENDBRANCH   1   3
BRANCH   1  14
ATOM     14  C   UNL d   1      51.496  33.465  52.934  0.00  0.00     0.080 C 
BRANCH  14  15
ATOM     15  S   UNL d   1      52.290  33.266  52.815  0.00  0.00    -0.058 SA
BRANCH  15  16
ATOM     16  C   UNL d   1      52.560  32.506  52.981  0.00  0.00     0.141 A 
ATOM     17  N   UNL d   1      52.257  31.796  52.666  0.00  0.00    -0.232 NA
ATOM     18  C   UNL d   1      52.697  31.166  52.988  0.00  0.00     0.088 A 
ATOM     19  C   UNL d   1      52.648  30.356  52.880  0.00  0.00     0.020 A 
ATOM     20  C   UNL d   1      53.264  31.479  53.497  0.00  0.00     0.049 A 
ATOM     21  C   UNL d   1      53.163  29.847  53.277  0.00  0.00     0.002 A 
ATOM     22  C   UNL d   1      53.738  30.168  53.792  0.00  0.00     0.001 A 
ATOM     23  C   UNL d   1      53.787  30.984  53.901  0.00  0.00     0.008 A 
ATOM     24  S   UNL d   1      53.182  32.312  53.495  0.00  0.00    -0.060 SA
ENDBRANCH  15  16
ENDBRANCH  14  15
ENDBRANCH   1  14
TORSDOF 6
ENDMDL
MODEL 4
REMARK VINA RESULT:      -7.3      1.447      6.159
REMARK  6 active torsions:
REMARK  status: ('A' for Active; 'I' for Inactive)
REMARK    1  A    between atoms: S_12  and  C_1 
REMARK    2  A    between atoms: C_2  and  S_11 
REMARK    3  A    between atoms: S_11  and  C_15 
REMARK    4  A    between atoms: C_16  and  S_12 
REMARK    5  A    between atoms: C_13  and  C_16 
REMARK    6  A    between atoms: C_15  and  C_13 
ROOT
ATOM      1  C   UNL d   1      51.185  34.138  52.552  0.00  0.00     0.209 C 
ATOM      2  O   UNL d   1      51.533  34.460  51.864  0.00  0.00    -0.285 OA
ENDROOT
BRANCH   1   3
ATOM      3  C   UNL d   1      51.551  33.499  52.936  0.00  0.00     0.080 C 
BRANCH   3   4
ATOM      4  S   UNL d   1      52.311  33.253  52.718  0.00  0.00    -0.058 SA
BRANCH   4   5
ATOM      5  C   UNL d   1      52.582  32.504  52.925  0.00  0.00     0.141 A 
ATOM      6  N   UNL d   1      52.389  31.787  52.550  0.00  0.00    -0.232 NA
ATOM      7  C   UNL d   1      52.787  31.177  52.942  0.00  0.00     0.088 A 
ATOM      8  C   UNL d   1      52.803  30.362  52.815  0.00  0.00     0.020 A 
ATOM      9  C   UNL d   1      53.232  31.509  53.564  0.00  0.00     0.049 A 
ATOM     10  C   UNL d   1      53.257  29.872  53.298  0.00  0.00     0.002 A 
ATOM     11  C   UNL d   1      53.702  30.204  53.920  0.00  0.00     0.001 A 
ATOM     12  C   UNL d   1      53.685  31.023  54.048  0.00  0.00     0.008 A 
ATOM     13  S   UNL d   1      53.107  32.328  53.555  0.00  0.00    -0.060 SA
ENDBRANCH   4   5
ENDBRANCH   3   4
ENDBRANCH   1   3
BRANCH   1  14
ATOM     14  C   UNL d   1      50.484  34.456  52.844  0.00  0.00     0.080 C 
BRANCH  14  15
ATOM     15  S   UNL d   1      49.824  34.538  52.351  0.00  0.00    -0.058 SA
BRANCH  15  16
ATOM     16  C   UNL d   1      49.198  35.028  52.570  0.00  0.00     0.141 A 
ATOM     17  N   UNL d   1      49.118  35.430  53.295  0.00  0.00    -0.232 NA
ATOM     18  C   UNL d   1      48.403  35.857  53.273  0.00  0.00     0.088 A 
ATOM     19  C   UNL d   1      48.041  36.345  53.822  0.00  0.00     0.020 A 
ATOM     20  C   UNL d   1      48.044  35.723  52.543  0.00  0.00     0.049 A 
ATOM     21  C   UNL d   1      47.319  36.706  53.652  0.00  0.00     0.002 A 
ATOM     22  C   UNL d   1      46.957  36.567  52.911  0.00  0.00     0.001 A 
ATOM     23  C   UNL d   1      47.321  36.076  52.359  0.00  0.00     0.008 A 
ATOM     24  S   UNL d   1      48.536  35.207  52.104  0.00  0.00    -0.060 SA
ENDBRANCH  15  16
ENDBRANCH  14  15
ENDBRANCH   1  14
TORSDOF 6
ENDMDL
MODEL 5
REMARK VINA RESULT:      -6.3      0.861      1.229
REMARK  6 active torsions:
REMARK  status: ('A' for Active; 'I' for Inactive)
REMARK    1  A    between atoms: S_12  and  C_1 
REMARK    2  A    between atoms: C_2  and  S_11 
REMARK    3  A    between atoms: S_11  and  C_15 
REMARK    4  A    between atoms: C_16  and  S_12 
REMARK    5  A    between atoms: C_13  and  C_16 
REMARK    6  A    between atoms: C_15  and  C_13 
ROOT
ATOM      1  C   UNL d   1      49.535  34.663  51.914  0.00  0.00     0.209 C 
ATOM      2  O   UNL d   1      49.584  34.413  51.119  0.00  0.00    -0.285 OA
ENDROOT
BRANCH   1   3
ATOM      3  C   UNL d   1      48.843  35.036  52.185  0.00  0.00     0.080 C 
BRANCH   3   4
ATOM      4  S   UNL d   1      48.231  35.224  51.660  0.00  0.00    -0.058 SA
BRANCH   4   5
ATOM      5  C   UNL d   1      47.530  35.554  51.938  0.00  0.00     0.141 A 
ATOM      6  N   UNL d   1      47.398  35.868  52.697  0.00  0.00    -0.232 NA
ATOM      7  C   UNL d   1      46.616  36.136  52.731  0.00  0.00     0.088 A 
ATOM      8  C   UNL d   1      46.185  36.494  53.336  0.00  0.00     0.020 A 
ATOM      9  C   UNL d   1      46.255  35.991  51.993  0.00  0.00     0.049 A 
ATOM     10  C   UNL d   1      45.398  36.709  53.219  0.00  0.00     0.002 A 
ATOM     11  C   UNL d   1      45.037  36.564  52.482  0.00  0.00     0.001 A 
ATOM     12  C   UNL d   1      45.470  36.205  51.873  0.00  0.00     0.008 A 
ATOM     13  S   UNL d   1      46.817  35.631  51.503  0.00  0.00    -0.060 SA
ENDBRANCH   4   5
ENDBRANCH   3   4
ENDBRANCH   1   3
BRANCH   1  14
ATOM     14  C   UNL d   1      50.170  34.537  52.423  0.00  0.00     0.080 C 
BRANCH  14  15
ATOM     15  S   UNL d   1      50.812  34.072  52.186  0.00  0.00    -0.058 SA
BRANCH  15  16
ATOM     16  C   UNL d   1      51.460  33.972  52.683  0.00  0.00     0.141 A 
ATOM     17  N   UNL d   1      52.051  34.538  52.844  0.00  0.00    -0.232 NA
ATOM     18  C   UNL d   1      52.594  34.196  53.376  0.00  0.00     0.088 A 
ATOM     19  C   UNL d   1      53.276  34.489  53.722  0.00  0.00     0.020 A 
ATOM     20  C   UNL d   1      52.346  33.429  53.543  0.00  0.00     0.049 A 
ATOM     21  C   UNL d   1      53.719  34.023  54.238  0.00  0.00     0.002 A 
ATOM     22  C   UNL d   1      53.464  33.244  54.406  0.00  0.00     0.001 A 
ATOM     23  C   UNL d   1      52.778  32.949  54.057  0.00  0.00     0.008 A 
ATOM     24  S   UNL d   1      51.641  33.286  53.114  0.00  0.00    -0.060 SA
ENDBRANCH  15  16
ENDBRANCH  14  15
ENDBRANCH   1  14
TORSDOF 6
ENDMDL
MODEL 6
REMARK VINA RESULT:      -5.5     10.598     11.199
REMARK  6 active torsions:
REMARK  status: ('A' for Active; 'I' for Inactive)
REMARK    1  A    between atoms: S_12  and  C_1 
REMARK    2  A    between atoms: C_2  and  S_11 
REMARK    3  A    between atoms: S_11  and  C_15 
REMARK    4  A    between atoms: C_16  and  S_12 
REMARK    5  A    between atoms: C_13  and  C_16 
REMARK    6  A    between atoms: C_15  and  C_13 
ROOT
ATOM      1  C   UNL d   1      45.038  28.765  58.555  0.00  0.00     0.209 C 
ATOM      2  O   UNL d   1      45.558  29.240  58.106  0.00  0.00    -0.285 OA
ENDROOT
BRANCH   1   3
ATOM      3  C   UNL d   1      44.744  29.050  59.279  0.00  0.00     0.080 C 
BRANCH   3   4
ATOM      4  S   UNL d   1      44.838  29.844  59.490  0.00  0.00    -0.058 SA
BRANCH   4   5
ATOM      5  C   UNL d   1      44.727  30.084  60.270  0.00  0.00     0.141 A 
ATOM      6  N   UNL d   1      44.732  29.596  60.943  0.00  0.00    -0.232 NA
ATOM      7  C   UNL d   1      44.599  30.072  61.606  0.00  0.00     0.088 A 
ATOM      8  C   UNL d   1      44.547  29.891  62.410  0.00  0.00     0.020 A 
ATOM      9  C   UNL d   1      44.509  30.861  61.351  0.00  0.00     0.049 A 
ATOM     10  C   UNL d   1      44.407  30.485  62.964  0.00  0.00     0.002 A 
ATOM     11  C   UNL d   1      44.317  31.274  62.709  0.00  0.00     0.001 A 
ATOM     12  C   UNL d   1      44.370  31.455  61.902  0.00  0.00     0.008 A 
ATOM     13  S   UNL d   1      44.588  30.870  60.527  0.00  0.00    -0.060 SA
ENDBRANCH   4   5
ENDBRANCH   3   4
ENDBRANCH   1   3
BRANCH   1  14
ATOM     14  C   UNL d   1      44.820  28.021  58.278  0.00  0.00     0.080 C 
BRANCH  14  15
ATOM     15  S   UNL d   1      45.312  27.607  57.756  0.00  0.00    -0.058 SA
BRANCH  15  16
ATOM     16  C   UNL d   1      45.081  26.876  57.458  0.00  0.00     0.141 A 
ATOM     17  N   UNL d   1      44.957  26.180  57.900  0.00  0.00    -0.232 NA
ATOM     18  C   UNL d   1      44.730  25.578  57.370  0.00  0.00     0.088 A 
ATOM     19  C   UNL d   1      44.540  24.790  57.490  0.00  0.00     0.020 A 
ATOM     20  C   UNL d   1      44.714  25.894  56.610  0.00  0.00     0.049 A 
ATOM     21  C   UNL d   1      44.331  24.308  56.854  0.00  0.00     0.002 A 
ATOM     22  C   UNL d   1      44.315  24.632  56.083  0.00  0.00     0.001 A 
ATOM     23  C   UNL d   1      44.507  25.424  55.963  0.00  0.00     0.008 A 
ATOM     24  S   UNL d   1      44.932  26.701  56.661  0.00  0.00    -0.060 SA
ENDBRANCH  15  16
ENDBRANCH  14  15
ENDBRANCH   1  14
TORSDOF 6
ENDMDL
MODEL 7
REMARK VINA RESULT:      -5.3     10.570     11.392
REMARK  6 active torsions:
REMARK  status: ('A' for Active; 'I' for Inactive)
REMARK    1  A    between atoms: S_12  and  C_1 
REMARK    2  A    between atoms: C_2  and  S_11 
REMARK    3  A    between atoms: S_11  and  C_15 
REMARK    4  A    between atoms: C_16  and  S_12 
REMARK    5  A    between atoms: C_13  and  C_16 
REMARK    6  A    between atoms: C_15  and  C_13 
ROOT
ATOM      1  C   UNL d   1      45.052  28.656  58.151  0.00  0.00     0.209 C 
ATOM      2  O   UNL d   1      45.083  29.219  57.536  0.00  0.00    -0.285 OA
ENDROOT
BRANCH   1   3
ATOM      3  C   UNL d   1      45.074  27.846  57.967  0.00  0.00     0.080 C 
BRANCH   3   4
ATOM      4  S   UNL d   1      44.842  27.575  57.220  0.00  0.00    -0.058 SA
BRANCH   4   5
ATOM      5  C   UNL d   1      44.763  26.768  57.075  0.00  0.00     0.141 A 
ATOM      6  N   UNL d   1      44.635  26.174  57.642  0.00  0.00    -0.232 NA
ATOM      7  C   UNL d   1      44.592  25.448  57.247  0.00  0.00     0.088 A 
ATOM      8  C   UNL d   1      44.473  24.680  57.523  0.00  0.00     0.020 A 
ATOM      9  C   UNL d   1      44.693  25.585  56.430  0.00  0.00     0.049 A 
ATOM     10  C   UNL d   1      44.454  24.044  56.998  0.00  0.00     0.002 A 
ATOM     11  C   UNL d   1      44.555  24.182  56.182  0.00  0.00     0.001 A 
ATOM     12  C   UNL d   1      44.674  24.954  55.905  0.00  0.00     0.008 A 
ATOM     13  S   UNL d   1      44.799  26.400  56.323  0.00  0.00    -0.060 SA
ENDBRANCH   4   5
ENDBRANCH   3   4
ENDBRANCH   1   3
BRANCH   1  14
ATOM     14  C   UNL d   1      44.999  28.907  58.934  0.00  0.00     0.080 C 
BRANCH  14  15
ATOM     15  S   UNL d   1      44.752  29.676  59.112  0.00  0.00    -0.058 SA
BRANCH  15  16
ATOM     16  C   UNL d   1      44.671  29.918  59.895  0.00  0.00     0.141 A 
ATOM     17  N   UNL d   1      44.555  29.421  60.554  0.00  0.00    -0.232 NA
ATOM     18  C   UNL d   1      44.503  29.904  61.231  0.00  0.00     0.088 A 
ATOM     19  C   UNL d   1      44.392  29.723  62.023  0.00  0.00     0.020 A 
ATOM     20  C   UNL d   1      44.586  30.689  60.997  0.00  0.00     0.049 A 
ATOM     21  C   UNL d   1      44.362  30.321  62.590  0.00  0.00     0.002 A 
ATOM     22  C   UNL d   1      44.447  31.117  62.349  0.00  0.00     0.001 A 
ATOM     23  C   UNL d   1      44.558  31.299  61.553  0.00  0.00     0.008 A 
ATOM     24  S   UNL d   1      44.690  30.701  60.166  0.00  0.00    -0.060 SA
ENDBRANCH  15  16
ENDBRANCH  14  15
ENDBRANCH   1  14
TORSDOF 6
ENDMDL
MODEL 8
REMARK VINA RESULT:      -4.9     11.031     11.915
REMARK  6 active torsions:
REMARK  status: ('A' for Active; 'I' for Inactive)
REMARK    1  A    between atoms: S_12  and  C_1 
REMARK    2  A    between atoms: C_2  and  S_11 
REMARK    3  A    between atoms: S_11  and  C_15 
REMARK    4  A    between atoms: C_16  and  S_12 
REMARK    5  A    between atoms: C_13  and  C_16 
REMARK    6  A    between atoms: C_15  and  C_13 
ROOT
ATOM      1  C   UNL d   1      44.592  26.675  56.826  0.00  0.00     0.209 C 
ATOM      2  O   UNL d   1      44.610  26.657  55.991  0.00  0.00    -0.285 OA
ENDROOT
BRANCH   1   3
ATOM      3  C   UNL d   1      44.607  25.961  57.251  0.00  0.00     0.080 C 
BRANCH   3   4
ATOM      4  S   UNL d   1      44.439  25.242  56.877  0.00  0.00    -0.058 SA
BRANCH   4   5
ATOM      5  C   UNL d   1      44.503  24.532  57.289  0.00  0.00     0.141 A 
ATOM      6  N   UNL d   1      44.763  23.804  56.984  0.00  0.00    -0.232 NA
ATOM      7  C   UNL d   1      44.737  23.245  57.593  0.00  0.00     0.088 A 
ATOM      8  C   UNL d   1      44.929  22.443  57.611  0.00  0.00     0.020 A 
ATOM      9  C   UNL d   1      44.459  23.622  58.284  0.00  0.00     0.049 A 
ATOM     10  C   UNL d   1      44.849  22.009  58.308  0.00  0.00     0.002 A 
ATOM     11  C   UNL d   1      44.571  22.385  58.998  0.00  0.00     0.001 A 
ATOM     12  C   UNL d   1      44.379  23.191  58.980  0.00  0.00     0.008 A 
ATOM     13  S   UNL d   1      44.315  24.416  58.098  0.00  0.00    -0.060 SA
ENDBRANCH   4   5
ENDBRANCH   3   4
ENDBRANCH   1   3
BRANCH   1  14
ATOM     14  C   UNL d   1      44.560  27.397  57.220  0.00  0.00     0.080 C 
BRANCH  14  15
ATOM     15  S   UNL d   1      45.020  28.035  56.964  0.00  0.00    -0.058 SA
BRANCH  15  16
ATOM     16  C   UNL d   1      44.989  28.757  57.360  0.00  0.00     0.141 A 
ATOM     17  N   UNL d   1      45.284  28.912  58.124  0.00  0.00    -0.232 NA
ATOM     18  C   UNL d   1      45.132  29.713  58.298  0.00  0.00     0.088 A 
ATOM     19  C   UNL d   1      45.295  30.168  58.959  0.00  0.00     0.020 A 
ATOM     20  C   UNL d   1      44.748  30.050  57.652  0.00  0.00     0.049 A 
ATOM     21  C   UNL d   1      45.079  30.964  58.985  0.00  0.00     0.002 A 
ATOM     22  C   UNL d   1      44.690  31.303  58.328  0.00  0.00     0.001 A 
ATOM     23  C   UNL d   1      44.526  30.845  57.662  0.00  0.00     0.008 A 
ATOM     24  S   UNL d   1      44.658  29.458  57.067  0.00  0.00    -0.060 SA
ENDBRANCH  15  16
ENDBRANCH  14  15
ENDBRANCH   1  14
TORSDOF 6
ENDMDL
MODEL 9
REMARK VINA RESULT:      -4.8     11.074     11.432
REMARK  6 active torsions:
REMARK  status: ('A' for Active; 'I' for Inactive)
REMARK    1  A    between atoms: S_12  and  C_1 
REMARK    2  A    between atoms: C_2  and  S_11 
REMARK    3  A    between atoms: S_11  and  C_15 
REMARK    4  A    between atoms: C_16  and  S_12 
REMARK    5  A    between atoms: C_13  and  C_16 
REMARK    6  A    between atoms: C_15  and  C_13 
ROOT
ATOM      1  C   UNL d   1      44.927  26.729  57.024  0.00  0.00     0.209 C 
ATOM      2  O   UNL d   1      45.310  26.681  56.284  0.00  0.00    -0.285 OA
ENDROOT
BRANCH   1   3
ATOM      3  C   UNL d   1      44.750  27.474  57.347  0.00  0.00     0.080 C 
BRANCH   3   4
ATOM      4  S   UNL d   1      45.300  28.091  57.315  0.00  0.00    -0.058 SA
BRANCH   4   5
ATOM      5  C   UNL d   1      45.129  28.821  57.655  0.00  0.00     0.141 A 
ATOM      6  N   UNL d   1      44.877  29.505  57.256  0.00  0.00    -0.232 NA
ATOM      7  C   UNL d   1      44.772  30.105  57.815  0.00  0.00     0.088 A 
ATOM      8  C   UNL d   1      44.531  30.890  57.740  0.00  0.00     0.020 A 
ATOM      9  C   UNL d   1      44.958  29.799  58.569  0.00  0.00     0.049 A 
ATOM     10  C   UNL d   1      44.473  31.376  58.403  0.00  0.00     0.002 A 
ATOM     11  C   UNL d   1      44.659  31.070  59.156  0.00  0.00     0.001 A 
ATOM     12  C   UNL d   1      44.901  30.281  59.232  0.00  0.00     0.008 A 
ATOM     13  S   UNL d   1      45.179  29.006  58.471  0.00  0.00    -0.060 SA
ENDBRANCH   4   5
ENDBRANCH   3   4
ENDBRANCH   1   3
BRANCH   1  14
ATOM     14  C   UNL d   1      44.727  26.039  57.428  0.00  0.00     0.080 C 
BRANCH  14  15
ATOM     15  S   UNL d   1      44.443  25.380  57.016  0.00  0.00    -0.058 SA
BRANCH  15  16
ATOM     16  C   UNL d   1      44.413  24.642  57.380  0.00  0.00     0.141 A 
ATOM     17  N   UNL d   1      44.398  24.498  58.201  0.00  0.00    -0.232 NA
ATOM     18  C   UNL d   1      44.368  23.672  58.314  0.00  0.00     0.088 A 
ATOM     19  C   UNL d   1      44.344  23.216  58.994  0.00  0.00     0.020 A 
ATOM     20  C   UNL d   1      44.366  23.309  57.575  0.00  0.00     0.049 A 
ATOM     21  C   UNL d   1      44.317  22.393  58.946  0.00  0.00     0.002 A 
ATOM     22  C   UNL d   1      44.314  22.027  58.194  0.00  0.00     0.001 A 
ATOM     23  C   UNL d   1      44.339  22.486  57.511  0.00  0.00     0.008 A 
ATOM     24  S   UNL d   1      44.393  23.909  56.992  0.00  0.00    -0.060 SA
ENDBRANCH  15  16
ENDBRANCH  14  15
ENDBRANCH   1  14
TORSDOF 6
ENDMDL
