MODEL 1
REMARK VINA RESULT:      -4.8      0.000      0.000
REMARK  4 active torsions:
REMARK  status: ('A' for Active; 'I' for Inactive)
REMARK    1  A    between atoms: S_6  and  C_1 
REMARK    2  A    between atoms: C_7  and  S_6 
REMARK    3  A    between atoms: C_10  and  C_7 
REMARK    4  A    between atoms: C_11  and  C_10 
ROOT
ATOM      1  C   UNL d   1      57.254  -0.199  31.279  0.00  0.00     0.194 A 
ATOM      2  N   UNL d   1      56.921   0.421  31.742  0.00  0.00    -0.220 NA
ATOM      3  N   UNL d   1      56.952  -0.913  31.565  0.00  0.00    -0.220 NA
ATOM      4  C   UNL d   1      56.431   0.088  32.291  0.00  0.00     0.101 A 
ATOM      5  C   UNL d   1      56.451  -0.754  32.179  0.00  0.00     0.101 A 
ATOM      6  C   UNL d   1      55.945   0.377  32.901  0.00  0.00     0.021 A 
ATOM      7  C   UNL d   1      56.000  -1.245  32.665  0.00  0.00     0.021 A 
ATOM      8  C   UNL d   1      55.530  -0.919  33.259  0.00  0.00     0.002 A 
ATOM      9  C   UNL d   1      55.511  -0.106  33.368  0.00  0.00     0.002 A 
ENDROOT
BRANCH   1  10
ATOM     10  S   UNL d   1      57.706   0.288  30.793  0.00  0.00    -0.048 SA
BRANCH  10  11
ATOM     11  C   UNL d   1      58.128  -0.027  30.155  0.00  0.00     0.038 C 
BRANCH  11  12
ATOM     12  C   UNL d   1      58.599   0.469  29.694  0.00  0.00     0.007 C 
BRANCH  12  13
ATOM     13  C   UNL d   1      59.000   0.148  29.064  0.00  0.00     0.001 C 
ATOM     14  C   UNL d   1      59.782   0.376  28.937  0.00  0.00     0.000 C 
ATOM     15  C   UNL d   1      58.851  -0.385  28.456  0.00  0.00     0.000 C 
ENDBRANCH  12  13
ENDBRANCH  11  12
ENDBRANCH  10  11
ENDBRANCH   1  10
TORSDOF 4
ENDMDL
MODEL 2
REMARK VINA RESULT:      -4.6      0.409      1.059
REMARK  4 active torsions:
REMARK  status: ('A' for Active; 'I' for Inactive)
REMARK    1  A    between atoms: S_6  and  C_1 
REMARK    2  A    between atoms: C_7  and  S_6 
REMARK    3  A    between atoms: C_10  and  C_7 
REMARK    4  A    between atoms: C_11  and  C_10 
ROOT
ATOM      1  C   UNL d   1      57.259  -0.052  31.310  0.00  0.00     0.194 A 
ATOM      2  N   UNL d   1      56.998  -0.808  31.572  0.00  0.00    -0.220 NA
ATOM      3  N   UNL d   1      56.884   0.517  31.779  0.00  0.00    -0.220 NA
ATOM      4  C   UNL d   1      56.480  -0.698  32.182  0.00  0.00     0.101 A 
ATOM      5  C   UNL d   1      56.408   0.139  32.312  0.00  0.00     0.101 A 
ATOM      6  C   UNL d   1      56.033  -1.197  32.675  0.00  0.00     0.021 A 
ATOM      7  C   UNL d   1      55.912   0.422  32.906  0.00  0.00     0.021 A 
ATOM      8  C   UNL d   1      55.484  -0.106  33.375  0.00  0.00     0.002 A 
ATOM      9  C   UNL d   1      55.554  -0.915  33.249  0.00  0.00     0.002 A 
ENDROOT
BRANCH   1  10
ATOM     10  S   UNL d   1      57.755  -0.331  30.716  0.00  0.00    -0.048 SA
BRANCH  10  11
ATOM     11  C   UNL d   1      58.218   0.192  30.273  0.00  0.00     0.038 C 
BRANCH  11  12
ATOM     12  C   UNL d   1      58.585  -0.075  29.584  0.00  0.00     0.007 C 
BRANCH  12  13
ATOM     13  C   UNL d   1      59.164   0.389  29.249  0.00  0.00     0.001 C 
ATOM     14  C   UNL d   1      59.042   0.682  28.487  0.00  0.00     0.000 C 
ATOM     15  C   UNL d   1      59.903   0.682  29.455  0.00  0.00     0.000 C 
ENDBRANCH  12  13
ENDBRANCH  11  12
ENDBRANCH  10  11
ENDBRANCH   1  10
TORSDOF 4
ENDMDL
MODEL 3
REMARK VINA RESULT:      -4.3      0.852      4.173
REMARK  4 active torsions:
REMARK  status: ('A' for Active; 'I' for Inactive)
REMARK    1  A    between atoms: S_6  and  C_1 
REMARK    2  A    between atoms: C_7  and  S_6 
REMARK    3  A    between atoms: C_10  and  C_7 
REMARK    4  A    between atoms: C_11  and  C_10 
ROOT
ATOM      1  C   UNL d   1      57.773  -0.091  30.674  0.00  0.00     0.194 A 
ATOM      2  N   UNL d   1      58.391   0.481  30.661  0.00  0.00    -0.220 NA
ATOM      3  N   UNL d   1      57.876  -0.585  30.020  0.00  0.00    -0.220 NA
ATOM      4  C   UNL d   1      58.854   0.335  30.016  0.00  0.00     0.101 A 
ATOM      5  C   UNL d   1      58.529  -0.338  29.611  0.00  0.00     0.101 A 
ATOM      6  C   UNL d   1      59.535   0.682  29.687  0.00  0.00     0.021 A 
ATOM      7  C   UNL d   1      58.888  -0.619  28.924  0.00  0.00     0.021 A 
ATOM      8  C   UNL d   1      59.563  -0.247  28.629  0.00  0.00     0.002 A 
ATOM      9  C   UNL d   1      59.877   0.403  29.021  0.00  0.00     0.002 A 
ENDROOT
BRANCH   1  10
ATOM     10  S   UNL d   1      57.411   0.187  31.359  0.00  0.00    -0.048 SA
BRANCH  10  11
ATOM     11  C   UNL d   1      56.862  -0.279  31.766  0.00  0.00     0.038 C 
BRANCH  11  12
ATOM     12  C   UNL d   1      56.447   0.042  32.402  0.00  0.00     0.007 C 
BRANCH  12  13
ATOM     13  C   UNL d   1      55.948  -0.442  32.824  0.00  0.00     0.001 C 
ATOM     14  C   UNL d   1      55.383  -0.094  33.315  0.00  0.00     0.000 C 
ATOM     15  C   UNL d   1      55.822  -1.249  32.921  0.00  0.00     0.000 C 
ENDBRANCH  12  13
ENDBRANCH  11  12
ENDBRANCH  10  11
ENDBRANCH   1  10
TORSDOF 4
ENDMDL
MODEL 4
REMARK VINA RESULT:      -3.2      1.319      4.368
REMARK  4 active torsions:
REMARK  status: ('A' for Active; 'I' for Inactive)
REMARK    1  A    between atoms: S_6  and  C_1 
REMARK    2  A    between atoms: C_7  and  S_6 
REMARK    3  A    between atoms: C_10  and  C_7 
REMARK    4  A    between atoms: C_11  and  C_10 
ROOT
ATOM      1  C   UNL d   1      56.340   0.056  32.403  0.00  0.00     0.194 A 
ATOM      2  N   UNL d   1      56.714   0.664  31.954  0.00  0.00    -0.220 NA
ATOM      3  N   UNL d   1      56.580  -0.669  32.087  0.00  0.00    -0.220 NA
ATOM      4  C   UNL d   1      57.165   0.313  31.384  0.00  0.00     0.101 A 
ATOM      5  C   UNL d   1      57.081  -0.529  31.468  0.00  0.00     0.101 A 
ATOM      6  C   UNL d   1      57.662   0.584  30.775  0.00  0.00     0.021 A 
ATOM      7  C   UNL d   1      57.482  -1.036  30.957  0.00  0.00     0.021 A 
ATOM      8  C   UNL d   1      57.966  -0.727  30.364  0.00  0.00     0.002 A 
ATOM      9  C   UNL d   1      58.048   0.085  30.283  0.00  0.00     0.002 A 
ENDROOT
BRANCH   1  10
ATOM     10  S   UNL d   1      55.938   0.560  32.915  0.00  0.00    -0.048 SA
BRANCH  10  11
ATOM     11  C   UNL d   1      55.655   0.285  33.642  0.00  0.00     0.038 C 
BRANCH  11  12
ATOM     12  C   UNL d   1      55.012   0.660  33.996  0.00  0.00     0.007 C 
BRANCH  12  13
ATOM     13  C   UNL d   1      54.969   0.671  34.809  0.00  0.00     0.001 C 
ATOM     14  C   UNL d   1      54.224   0.674  35.163  0.00  0.00     0.000 C 
ATOM     15  C   UNL d   1      55.489   0.682  35.445  0.00  0.00     0.000 C 
ENDBRANCH  12  13
ENDBRANCH  11  12
ENDBRANCH  10  11
ENDBRANCH   1  10
TORSDOF 4
ENDMDL
MODEL 5
REMARK VINA RESULT:      -3.1      0.877      1.435
REMARK  4 active torsions:
REMARK  status: ('A' for Active; 'I' for Inactive)
REMARK    1  A    between atoms: S_6  and  C_1 
REMARK    2  A    between atoms: C_7  and  S_6 
REMARK    3  A    between atoms: C_10  and  C_7 
REMARK    4  A    between atoms: C_11  and  C_10 
ROOT
ATOM      1  C   UNL d   1      57.000   0.133  32.237  0.00  0.00     0.194 A 
ATOM      2  N   UNL d   1      56.188  -0.091  32.242  0.00  0.00    -0.220 NA
ATOM      3  N   UNL d   1      57.175   0.455  32.977  0.00  0.00    -0.220 NA
ATOM      4  C   UNL d   1      55.882   0.093  32.966  0.00  0.00     0.101 A 
ATOM      5  C   UNL d   1      56.505   0.437  33.431  0.00  0.00     0.101 A 
ATOM      6  C   UNL d   1      55.137   0.020  33.328  0.00  0.00     0.021 A 
ATOM      7  C   UNL d   1      56.356   0.682  34.204  0.00  0.00     0.021 A 
ATOM      8  C   UNL d   1      55.602   0.593  34.527  0.00  0.00     0.002 A 
ATOM      9  C   UNL d   1      55.000   0.260  34.078  0.00  0.00     0.002 A 
ENDROOT
BRANCH   1  10
ATOM     10  S   UNL d   1      57.153  -0.110  31.465  0.00  0.00    -0.048 SA
BRANCH  10  11
ATOM     11  C   UNL d   1      57.802   0.189  31.049  0.00  0.00     0.038 C 
BRANCH  11  12
ATOM     12  C   UNL d   1      58.001  -0.136  30.318  0.00  0.00     0.007 C 
BRANCH  12  13
ATOM     13  C   UNL d   1      58.588   0.221  29.881  0.00  0.00     0.001 C 
ATOM     14  C   UNL d   1      58.501   0.259  29.062  0.00  0.00     0.000 C 
ATOM     15  C   UNL d   1      59.309   0.590  30.019  0.00  0.00     0.000 C 
ENDBRANCH  12  13
ENDBRANCH  11  12
ENDBRANCH  10  11
ENDBRANCH   1  10
TORSDOF 4
ENDMDL
MODEL 6
REMARK VINA RESULT:      -2.4      9.083      9.524
REMARK  4 active torsions:
REMARK  status: ('A' for Active; 'I' for Inactive)
REMARK    1  A    between atoms: S_6  and  C_1 
REMARK    2  A    between atoms: C_7  and  S_6 
REMARK    3  A    between atoms: C_10  and  C_7 
REMARK    4  A    between atoms: C_11  and  C_10 
ROOT
ATOM      1  C   UNL d   1      59.781  -8.856  34.645  0.00  0.00     0.194 A 
ATOM      2  N   UNL d   1      59.191  -8.362  34.987  0.00  0.00    -0.220 NA
ATOM      3  N   UNL d   1      60.516  -8.589  34.913  0.00  0.00    -0.220 NA
ATOM      4  C   UNL d   1      59.562  -7.812  35.449  0.00  0.00     0.101 A 
ATOM      5  C   UNL d   1      60.398  -7.956  35.402  0.00  0.00     0.101 A 
ATOM      6  C   UNL d   1      59.313  -7.179  35.927  0.00  0.00     0.021 A 
ATOM      7  C   UNL d   1      60.922  -7.477  35.820  0.00  0.00     0.021 A 
ATOM      8  C   UNL d   1      60.636  -6.857  36.284  0.00  0.00     0.002 A 
ATOM      9  C   UNL d   1      59.828  -6.719  36.329  0.00  0.00     0.002 A 
ENDROOT
BRANCH   1  10
ATOM     10  S   UNL d   1      59.261  -9.337  34.226  0.00  0.00    -0.048 SA
BRANCH  10  11
ATOM     11  C   UNL d   1      59.295  -9.377  33.401  0.00  0.00     0.038 C 
BRANCH  11  12
ATOM     12  C   UNL d   1      58.630  -9.621  32.978  0.00  0.00     0.007 C 
BRANCH  12  13
ATOM     13  C   UNL d   1      58.702  -9.737  32.176  0.00  0.00     0.001 C 
ATOM     14  C   UNL d   1      58.014  -9.800  31.724  0.00  0.00     0.000 C 
ATOM     15  C   UNL d   1      59.306  -9.816  31.625  0.00  0.00     0.000 C 
ENDBRANCH  12  13
ENDBRANCH  11  12
ENDBRANCH  10  11
ENDBRANCH   1  10
TORSDOF 4
ENDMDL
