MODEL 1
REMARK VINA RESULT:      10.1      0.000      0.000
REMARK  4 active torsions:
REMARK  status: ('A' for Active; 'I' for Inactive)
REMARK    1  A    between atoms: N_7  and  C_3 
REMARK       I    between atoms: C_8  and  N_7 
REMARK    2  A    between atoms: C_10  and  C_8 
REMARK    3  A    between atoms: C_12  and  C_10 
REMARK    4  A    between atoms: C_16  and  C_12 
ROOT
ATOM      1  N   UNL d   1      46.436 -17.085  43.949  0.00  0.00    -0.190 NA
ATOM      2  C   UNL d   1      45.952 -16.727  44.510  0.00  0.00     0.281 C 
ATOM      3  O   UNL d   1      45.410 -17.179  44.937  0.00  0.00    -0.265 OA
ENDROOT
BRANCH   1   4
ATOM      4  C   UNL d   1      46.379 -17.899  43.812  0.00  0.00     0.159 A 
ATOM      5  N   UNL d   1      46.333 -18.188  43.044  0.00  0.00    -0.241 N 
ATOM      6  C   UNL d   1      46.277 -18.992  42.910  0.00  0.00     0.343 A 
ATOM      7  C   UNL d   1      46.345 -17.664  42.408  0.00  0.00     0.105 C 
ATOM      8  N   UNL d   1      46.266 -19.516  43.547  0.00  0.00    -0.224 N 
ATOM      9  O   UNL d   1      46.231 -19.281  42.137  0.00  0.00    -0.245 OA
ATOM     10  C   UNL d   1      46.311 -19.242  44.324  0.00  0.00     0.271 A 
ATOM     11  C   UNL d   1      46.209 -20.330  43.411  0.00  0.00     0.107 C 
ATOM     12  C   UNL d   1      46.368 -18.423  44.449  0.00  0.00     0.099 A 
ATOM     13  O   UNL d   1      46.299 -19.761  44.955  0.00  0.00    -0.266 OA
ENDBRANCH   1   4
BRANCH   2  14
ATOM     14  C   UNL d   1      46.011 -15.917  44.645  0.00  0.00     0.063 C 
BRANCH  14  15
ATOM     15  C   UNL d   1      45.334 -15.456  44.650  0.00  0.00     0.005 C 
BRANCH  15  16
ATOM     16  C   UNL d   1      45.385 -14.647  44.581  0.00  0.00     0.000 A 
ATOM     17  C   UNL d   1      44.823 -14.245  44.126  0.00  0.00     0.000 A 
ATOM     18  C   UNL d   1      44.869 -13.412  44.049  0.00  0.00     0.000 A 
ATOM     19  C   UNL d   1      45.465 -13.010  44.424  0.00  0.00     0.000 A 
ATOM     20  C   UNL d   1      46.027 -13.409  44.879  0.00  0.00     0.000 A 
ATOM     21  C   UNL d   1      45.982 -14.238  44.955  0.00  0.00     0.000 A 
ENDBRANCH  15  16
ENDBRANCH  14  15
ENDBRANCH   2  14
TORSDOF 4
ENDMDL
