MODEL 1
REMARK VINA RESULT:      -7.4      0.000      0.000
REMARK  3 active torsions:
REMARK  status: ('A' for Active; 'I' for Inactive)
REMARK    1  A    between atoms: S_8  and  C_2 
REMARK       I    between atoms: N_6  and  C_7 
REMARK    2  A    between atoms: C_7  and  C_9 
REMARK    3  A    between atoms: C_9  and  S_8 
ROOT
ATOM      1  N   UNL d   1      52.980  33.361  53.586  0.00  0.00    -0.267 N 
ATOM      2  C   UNL d   1      52.853  32.677  53.135  0.00  0.00     0.272 C 
ATOM      3  O   UNL d   1      52.537  32.739  52.369  0.00  0.00    -0.266 OA
ATOM      4  O   UNL d   1      53.233  34.717  54.484  0.00  0.00    -0.300 OA
ATOM      5  C   UNL d   1      52.793  34.099  53.276  0.00  0.00     0.110 A 
ATOM      6  C   UNL d   1      53.293  33.299  54.344  0.00  0.00     0.110 A 
ATOM      7  C   UNL d   1      53.419  33.976  54.793  0.00  0.00     0.142 A 
ATOM      8  C   UNL d   1      52.920  34.779  53.726  0.00  0.00     0.142 A 
ENDROOT
BRANCH   2   9
ATOM      9  C   UNL d   1      53.040  31.935  53.445  0.00  0.00     0.099 C 
BRANCH   9  10
ATOM     10  S   UNL d   1      52.937  31.260  52.985  0.00  0.00    -0.041 SA
BRANCH  10  11
ATOM     11  C   UNL d   1      52.952  30.518  53.336  0.00  0.00     0.233 A 
ATOM     12  N   UNL d   1      53.481  30.165  53.868  0.00  0.00    -0.029 NA
ATOM     13  C   UNL d   1      53.206  29.405  54.025  0.00  0.00     0.788 A 
ATOM     14  N   UNL d   1      52.522  29.279  53.604  0.00  0.00     0.050 NA
ATOM     15  N   UNL d   1      53.580  28.855  54.538  0.00  0.00     0.064 N 
ATOM     16  N   UNL d   1      52.355  29.967  53.172  0.00  0.00    -0.105 NA
ENDBRANCH  10  11
ENDBRANCH   9  10
ENDBRANCH   2   9
TORSDOF 3
ENDMDL
MODEL 2
REMARK VINA RESULT:      -7.1      1.702      3.899
REMARK  3 active torsions:
REMARK  status: ('A' for Active; 'I' for Inactive)
REMARK    1  A    between atoms: S_8  and  C_2 
REMARK       I    between atoms: N_6  and  C_7 
REMARK    2  A    between atoms: C_7  and  C_9 
REMARK    3  A    between atoms: C_9  and  S_8 
ROOT
ATOM      1  N   UNL d   1      53.050  30.666  53.346  0.00  0.00    -0.267 N 
ATOM      2  C   UNL d   1      53.142  31.477  53.204  0.00  0.00     0.272 C 
ATOM      3  O   UNL d   1      52.792  31.821  52.533  0.00  0.00    -0.266 OA
ATOM      4  O   UNL d   1      52.871  29.054  53.633  0.00  0.00    -0.300 OA
ATOM      5  C   UNL d   1      52.615  30.203  52.825  0.00  0.00     0.110 A 
ATOM      6  C   UNL d   1      53.396  30.325  54.011  0.00  0.00     0.110 A 
ATOM      7  C   UNL d   1      53.307  29.521  54.154  0.00  0.00     0.142 A 
ATOM      8  C   UNL d   1      52.525  29.395  52.969  0.00  0.00     0.142 A 
ENDROOT
BRANCH   2   9
ATOM      9  C   UNL d   1      53.578  31.944  53.726  0.00  0.00     0.099 C 
BRANCH   9  10
ATOM     10  S   UNL d   1      53.606  32.760  53.623  0.00  0.00    -0.041 SA
BRANCH  10  11
ATOM     11  C   UNL d   1      53.997  33.230  54.171  0.00  0.00     0.233 A 
ATOM     12  N   UNL d   1      54.771  33.210  54.470  0.00  0.00    -0.029 NA
ATOM     13  C   UNL d   1      54.845  33.827  55.009  0.00  0.00     0.788 A 
ATOM     14  N   UNL d   1      54.139  34.228  55.052  0.00  0.00     0.050 NA
ATOM     15  N   UNL d   1      55.543  34.005  55.442  0.00  0.00     0.064 N 
ATOM     16  N   UNL d   1      53.605  33.863  54.533  0.00  0.00    -0.105 NA
ENDBRANCH  10  11
ENDBRANCH   9  10
ENDBRANCH   2   9
TORSDOF 3
ENDMDL
MODEL 3
REMARK VINA RESULT:      -6.6      1.905      4.082
REMARK  3 active torsions:
REMARK  status: ('A' for Active; 'I' for Inactive)
REMARK    1  A    between atoms: S_8  and  C_2 
REMARK       I    between atoms: N_6  and  C_7 
REMARK    2  A    between atoms: C_7  and  C_9 
REMARK    3  A    between atoms: C_9  and  S_8 
ROOT
ATOM      1  N   UNL d   1      53.153  31.274  53.373  0.00  0.00    -0.267 N 
ATOM      2  C   UNL d   1      53.137  32.103  53.376  0.00  0.00     0.272 C 
ATOM      3  O   UNL d   1      53.768  32.527  53.711  0.00  0.00    -0.266 OA
ATOM      4  O   UNL d   1      53.180  29.628  53.366  0.00  0.00    -0.300 OA
ATOM      5  C   UNL d   1      53.791  30.873  53.702  0.00  0.00     0.110 A 
ATOM      6  C   UNL d   1      52.528  30.854  53.041  0.00  0.00     0.110 A 
ATOM      7  C   UNL d   1      52.542  30.033  53.037  0.00  0.00     0.142 A 
ATOM      8  C   UNL d   1      53.805  30.048  53.698  0.00  0.00     0.142 A 
ENDROOT
BRANCH   2   9
ATOM      9  C   UNL d   1      52.498  32.507  53.047  0.00  0.00     0.099 C 
BRANCH   9  10
ATOM     10  S   UNL d   1      52.437  33.323  53.136  0.00  0.00    -0.041 SA
BRANCH  10  11
ATOM     11  C   UNL d   1      51.765  33.716  52.875  0.00  0.00     0.233 A 
ATOM     12  N   UNL d   1      51.030  33.858  53.232  0.00  0.00    -0.029 NA
ATOM     13  C   UNL d   1      50.572  34.286  52.699  0.00  0.00     0.788 A 
ATOM     14  N   UNL d   1      51.005  34.412  52.022  0.00  0.00     0.050 NA
ATOM     15  N   UNL d   1      49.786  34.545  52.840  0.00  0.00     0.064 N 
ATOM     16  N   UNL d   1      51.749  34.061  52.123  0.00  0.00    -0.105 NA
ENDBRANCH  10  11
ENDBRANCH   9  10
ENDBRANCH   2   9
TORSDOF 3
ENDMDL
MODEL 4
REMARK VINA RESULT:      -6.4      2.538      3.627
REMARK  3 active torsions:
REMARK  status: ('A' for Active; 'I' for Inactive)
REMARK    1  A    between atoms: S_8  and  C_2 
REMARK       I    between atoms: N_6  and  C_7 
REMARK    2  A    between atoms: C_7  and  C_9 
REMARK    3  A    between atoms: C_9  and  S_8 
ROOT
ATOM      1  N   UNL d   1      53.680  33.420  54.341  0.00  0.00    -0.267 N 
ATOM      2  C   UNL d   1      53.116  33.105  53.822  0.00  0.00     0.272 C 
ATOM      3  O   UNL d   1      53.205  32.330  53.535  0.00  0.00    -0.266 OA
ATOM      4  O   UNL d   1      54.798  34.051  55.372  0.00  0.00    -0.300 OA
ATOM      5  C   UNL d   1      54.326  32.968  54.571  0.00  0.00     0.110 A 
ATOM      6  C   UNL d   1      53.591  34.188  54.624  0.00  0.00     0.110 A 
ATOM      7  C   UNL d   1      54.148  34.503  55.139  0.00  0.00     0.142 A 
ATOM      8  C   UNL d   1      54.886  33.284  55.088  0.00  0.00     0.142 A 
ENDROOT
BRANCH   2   9
ATOM      9  C   UNL d   1      52.466  33.558  53.589  0.00  0.00     0.099 C 
BRANCH   9  10
ATOM     10  S   UNL d   1      51.928  33.255  53.045  0.00  0.00    -0.041 SA
BRANCH  10  11
ATOM     11  C   UNL d   1      51.291  33.712  52.799  0.00  0.00     0.233 A 
ATOM     12  N   UNL d   1      50.613  33.980  53.195  0.00  0.00    -0.029 NA
ATOM     13  C   UNL d   1      50.169  34.419  52.659  0.00  0.00     0.788 A 
ATOM     14  N   UNL d   1      50.554  34.429  51.943  0.00  0.00     0.050 NA
ATOM     15  N   UNL d   1      49.438  34.793  52.834  0.00  0.00     0.064 N 
ATOM     16  N   UNL d   1      51.254  33.991  52.020  0.00  0.00    -0.105 NA
ENDBRANCH  10  11
ENDBRANCH   9  10
ENDBRANCH   2   9
TORSDOF 3
ENDMDL
MODEL 5
REMARK VINA RESULT:      -6.2      2.390      3.118
REMARK  3 active torsions:
REMARK  status: ('A' for Active; 'I' for Inactive)
REMARK    1  A    between atoms: S_8  and  C_2 
REMARK       I    between atoms: N_6  and  C_7 
REMARK    2  A    between atoms: C_7  and  C_9 
REMARK    3  A    between atoms: C_9  and  S_8 
ROOT
ATOM      1  N   UNL d   1      51.478  33.698  52.816  0.00  0.00    -0.267 N 
ATOM      2  C   UNL d   1      52.165  33.242  52.898  0.00  0.00     0.272 C 
ATOM      3  O   UNL d   1      52.359  32.679  52.318  0.00  0.00    -0.266 OA
ATOM      4  O   UNL d   1      50.114  34.606  52.657  0.00  0.00    -0.300 OA
ATOM      5  C   UNL d   1      50.990  33.594  52.163  0.00  0.00     0.110 A 
ATOM      6  C   UNL d   1      51.286  34.255  53.390  0.00  0.00     0.110 A 
ATOM      7  C   UNL d   1      50.606  34.709  53.311  0.00  0.00     0.142 A 
ATOM      8  C   UNL d   1      50.306  34.049  52.083  0.00  0.00     0.142 A 
ENDROOT
BRANCH   2   9
ATOM      9  C   UNL d   1      52.657  33.345  53.553  0.00  0.00     0.099 C 
BRANCH   9  10
ATOM     10  S   UNL d   1      53.310  32.855  53.658  0.00  0.00    -0.041 SA
BRANCH  10  11
ATOM     11  C   UNL d   1      53.844  33.007  54.262  0.00  0.00     0.233 A 
ATOM     12  N   UNL d   1      54.449  33.569  54.342  0.00  0.00    -0.029 NA
ATOM     13  C   UNL d   1      54.802  33.453  55.076  0.00  0.00     0.788 A 
ATOM     14  N   UNL d   1      54.432  32.834  55.452  0.00  0.00     0.050 NA
ATOM     15  N   UNL d   1      55.441  33.906  55.380  0.00  0.00     0.064 N 
ATOM     16  N   UNL d   1      53.834  32.550  54.952  0.00  0.00    -0.105 NA
ENDBRANCH  10  11
ENDBRANCH   9  10
ENDBRANCH   2   9
TORSDOF 3
ENDMDL
MODEL 6
REMARK VINA RESULT:      -5.0      9.301     10.202
REMARK  3 active torsions:
REMARK  status: ('A' for Active; 'I' for Inactive)
REMARK    1  A    between atoms: S_8  and  C_2 
REMARK       I    between atoms: N_6  and  C_7 
REMARK    2  A    between atoms: C_7  and  C_9 
REMARK    3  A    between atoms: C_9  and  S_8 
ROOT
ATOM      1  N   UNL d   1      45.073  27.639  58.025  0.00  0.00    -0.267 N 
ATOM      2  C   UNL d   1      45.153  27.981  57.275  0.00  0.00     0.272 C 
ATOM      3  O   UNL d   1      45.437  27.525  56.641  0.00  0.00    -0.266 OA
ATOM      4  O   UNL d   1      44.914  26.965  59.519  0.00  0.00    -0.300 OA
ATOM      5  C   UNL d   1      45.274  26.851  58.143  0.00  0.00     0.110 A 
ATOM      6  C   UNL d   1      44.793  28.091  58.653  0.00  0.00     0.110 A 
ATOM      7  C   UNL d   1      44.713  27.755  59.398  0.00  0.00     0.142 A 
ATOM      8  C   UNL d   1      45.195  26.512  58.891  0.00  0.00     0.142 A 
ENDROOT
BRANCH   2   9
ATOM      9  C   UNL d   1      44.952  28.772  57.155  0.00  0.00     0.099 C 
BRANCH   9  10
ATOM     10  S   UNL d   1      44.867  29.063  56.390  0.00  0.00    -0.041 SA
BRANCH  10  11
ATOM     11  C   UNL d   1      44.688  29.856  56.269  0.00  0.00     0.233 A 
ATOM     12  N   UNL d   1      44.625  30.498  56.791  0.00  0.00    -0.029 NA
ATOM     13  C   UNL d   1      44.431  31.162  56.346  0.00  0.00     0.788 A 
ATOM     14  N   UNL d   1      44.373  30.948  55.563  0.00  0.00     0.050 NA
ATOM     15  N   UNL d   1      44.314  31.933  56.659  0.00  0.00     0.064 N 
ATOM     16  N   UNL d   1      44.531  30.136  55.506  0.00  0.00    -0.105 NA
ENDBRANCH  10  11
ENDBRANCH   9  10
ENDBRANCH   2   9
TORSDOF 3
ENDMDL
MODEL 7
REMARK VINA RESULT:      -4.9      1.482      2.018
REMARK  3 active torsions:
REMARK  status: ('A' for Active; 'I' for Inactive)
REMARK    1  A    between atoms: S_8  and  C_2 
REMARK       I    between atoms: N_6  and  C_7 
REMARK    2  A    between atoms: C_7  and  C_9 
REMARK    3  A    between atoms: C_9  and  S_8 
ROOT
ATOM      1  N   UNL d   1      51.623  33.840  53.322  0.00  0.00    -0.267 N 
ATOM      2  C   UNL d   1      52.316  33.483  53.604  0.00  0.00     0.272 C 
ATOM      3  O   UNL d   1      52.795  33.886  54.150  0.00  0.00    -0.266 OA
ATOM      4  O   UNL d   1      50.247  34.546  52.758  0.00  0.00    -0.300 OA
ATOM      5  C   UNL d   1      51.412  34.591  53.581  0.00  0.00     0.110 A 
ATOM      6  C   UNL d   1      51.148  33.441  52.781  0.00  0.00     0.110 A 
ATOM      7  C   UNL d   1      50.461  33.793  52.499  0.00  0.00     0.142 A 
ATOM      8  C   UNL d   1      50.722  34.945  53.299  0.00  0.00     0.142 A 
ENDROOT
BRANCH   2   9
ATOM      9  C   UNL d   1      52.530  32.729  53.344  0.00  0.00     0.099 C 
BRANCH   9  10
ATOM     10  S   UNL d   1      53.180  32.350  53.677  0.00  0.00    -0.041 SA
BRANCH  10  11
ATOM     11  C   UNL d   1      53.294  31.546  53.554  0.00  0.00     0.233 A 
ATOM     12  N   UNL d   1      52.762  30.919  53.446  0.00  0.00    -0.029 NA
ATOM     13  C   UNL d   1      53.203  30.231  53.347  0.00  0.00     0.788 A 
ATOM     14  N   UNL d   1      53.994  30.417  53.393  0.00  0.00     0.050 NA
ATOM     15  N   UNL d   1      52.880  29.466  53.222  0.00  0.00     0.064 N 
ATOM     16  N   UNL d   1      54.060  31.233  53.521  0.00  0.00    -0.105 NA
ENDBRANCH  10  11
ENDBRANCH   9  10
ENDBRANCH   2   9
TORSDOF 3
ENDMDL
MODEL 8
REMARK VINA RESULT:      -4.8      9.101      9.468
REMARK  3 active torsions:
REMARK  status: ('A' for Active; 'I' for Inactive)
REMARK    1  A    between atoms: S_8  and  C_2 
REMARK       I    between atoms: N_6  and  C_7 
REMARK    2  A    between atoms: C_7  and  C_9 
REMARK    3  A    between atoms: C_9  and  S_8 
ROOT
ATOM      1  N   UNL d   1      44.839  30.262  57.611  0.00  0.00    -0.267 N 
ATOM      2  C   UNL d   1      45.018  29.508  57.903  0.00  0.00     0.272 C 
ATOM      3  O   UNL d   1      45.226  29.413  58.702  0.00  0.00    -0.266 OA
ATOM      4  O   UNL d   1      44.482  31.759  57.025  0.00  0.00    -0.300 OA
ATOM      5  C   UNL d   1      44.867  30.915  58.109  0.00  0.00     0.110 A 
ATOM      6  C   UNL d   1      44.633  30.356  56.819  0.00  0.00     0.110 A 
ATOM      7  C   UNL d   1      44.455  31.102  56.527  0.00  0.00     0.142 A 
ATOM      8  C   UNL d   1      44.688  31.665  57.816  0.00  0.00     0.142 A 
ENDROOT
BRANCH   2   9
ATOM      9  C   UNL d   1      44.991  28.851  57.404  0.00  0.00     0.099 C 
BRANCH   9  10
ATOM     10  S   UNL d   1      45.140  28.100  57.705  0.00  0.00    -0.041 SA
BRANCH  10  11
ATOM     11  C   UNL d   1      45.115  27.446  57.209  0.00  0.00     0.233 A 
ATOM     12  N   UNL d   1      44.484  26.989  56.922  0.00  0.00    -0.029 NA
ATOM     13  C   UNL d   1      44.801  26.401  56.442  0.00  0.00     0.788 A 
ATOM     14  N   UNL d   1      45.610  26.480  56.425  0.00  0.00     0.050 NA
ATOM     15  N   UNL d   1      44.352  25.816  56.040  0.00  0.00     0.064 N 
ATOM     16  N   UNL d   1      45.815  27.129  56.900  0.00  0.00    -0.105 NA
ENDBRANCH  10  11
ENDBRANCH   9  10
ENDBRANCH   2   9
TORSDOF 3
ENDMDL
MODEL 9
REMARK VINA RESULT:      -4.7     10.156     10.494
REMARK  3 active torsions:
REMARK  status: ('A' for Active; 'I' for Inactive)
REMARK    1  A    between atoms: S_8  and  C_2 
REMARK       I    between atoms: N_6  and  C_7 
REMARK    2  A    between atoms: C_7  and  C_9 
REMARK    3  A    between atoms: C_9  and  S_8 
ROOT
ATOM      1  N   UNL d   1      44.652  30.361  60.594  0.00  0.00    -0.267 N 
ATOM      2  C   UNL d   1      44.818  30.379  59.783  0.00  0.00     0.272 C 
ATOM      3  O   UNL d   1      44.937  31.108  59.402  0.00  0.00    -0.266 OA
ATOM      4  O   UNL d   1      44.321  30.320  62.207  0.00  0.00    -0.300 OA
ATOM      5  C   UNL d   1      44.604  31.062  61.021  0.00  0.00     0.110 A 
ATOM      6  C   UNL d   1      44.534  29.639  60.972  0.00  0.00     0.110 A 
ATOM      7  C   UNL d   1      44.369  29.618  61.776  0.00  0.00     0.142 A 
ATOM      8  C   UNL d   1      44.439  31.042  61.829  0.00  0.00     0.142 A 
ENDROOT
BRANCH   2   9
ATOM      9  C   UNL d   1      44.867  29.677  59.353  0.00  0.00     0.099 C 
BRANCH   9  10
ATOM     10  S   UNL d   1      45.048  29.698  58.550  0.00  0.00    -0.041 SA
BRANCH  10  11
ATOM     11  C   UNL d   1      45.079  29.001  58.117  0.00  0.00     0.233 A 
ATOM     12  N   UNL d   1      45.579  28.340  58.160  0.00  0.00    -0.029 NA
ATOM     13  C   UNL d   1      45.341  27.809  57.579  0.00  0.00     0.788 A 
ATOM     14  N   UNL d   1      44.707  28.123  57.178  0.00  0.00     0.050 NA
ATOM     15  N   UNL d   1      45.701  27.065  57.431  0.00  0.00     0.064 N 
ATOM     16  N   UNL d   1      44.536  28.865  57.507  0.00  0.00    -0.105 NA
ENDBRANCH  10  11
ENDBRANCH   9  10
ENDBRANCH   2   9
TORSDOF 3
ENDMDL
