MODEL 1
REMARK VINA RESULT:      16.9      0.000      0.000
REMARK  6 active torsions:
REMARK  status: ('A' for Active; 'I' for Inactive)
REMARK    1  A    between atoms: C_6  and  C_1 
REMARK    2  A    between atoms: C_8  and  C_2 
REMARK    3  A    between atoms: C_9  and  C_4 
REMARK    4  A    between atoms: C_12  and  C_8 
REMARK    5  A    between atoms: O_27  and  C_11 
REMARK    6  A    between atoms: C_30  and  O_27 
ROOT
ATOM      1  C   UNL d   1     -42.488-121.826 -53.860  0.00  0.00     0.306 A 
ATOM      2  C   UNL d   1     -42.235-122.047 -53.105  0.00  0.00     0.114 A 
ATOM      3  N   UNL d   1     -42.941-122.363 -54.306  0.00  0.00    -0.152 NA
ATOM      4  C   UNL d   1     -42.430-122.789 -52.802  0.00  0.00     0.094 A 
ATOM      5  C   UNL d   1     -43.133-123.102 -53.999  0.00  0.00     0.371 A 
ATOM      6  N   UNL d   1     -42.874-123.317 -53.238  0.00  0.00    -0.191 NA
ATOM      7  O   UNL d   1     -43.586-123.640 -54.444  0.00  0.00    -0.242 OA
ATOM      8  O   UNL d   1     -42.680-121.505 -54.580  0.00  0.00    -0.266 OA
ENDROOT
BRANCH   4   9
ATOM      9  C   UNL d   1     -42.171-123.004 -52.041  0.00  0.00     0.020 A 
ATOM     10  C   UNL d   1     -42.677-122.944 -51.399  0.00  0.00     0.029 A 
ATOM     11  C   UNL d   1     -42.419-123.158 -50.638  0.00  0.00     0.139 A 
ATOM     12  C   UNL d   1     -41.644-123.436 -50.523  0.00  0.00     0.218 A 
ATOM     13  C   UNL d   1     -41.134-123.496 -51.176  0.00  0.00     0.044 A 
ATOM     14  O   UNL d   1     -41.391-123.646 -49.780  0.00  0.00    -0.284 OA
ATOM     15  C   UNL d   1     -41.393-123.281 -51.936  0.00  0.00     0.005 A 
BRANCH  11  16
ATOM     16  O   UNL d   1     -42.929-123.096 -50.001  0.00  0.00    -0.302 OA
BRANCH  16  17
ATOM     17  C   UNL d   1     -43.347-123.739 -49.754  0.00  0.00     0.123 C 
ATOM     18  C   UNL d   1     -43.616-123.781 -48.982  0.00  0.00     0.029 C 
ENDBRANCH  16  17
ENDBRANCH  11  16
ENDBRANCH   4   9
BRANCH   2  19
ATOM     19  C   UNL d   1     -41.782-121.509 -52.660  0.00  0.00     0.201 C 
ATOM     20  O   UNL d   1     -41.123-121.770 -52.858  0.00  0.00    -0.286 OA
BRANCH  19  21
ATOM     21  C   UNL d   1     -41.663-120.996 -52.241  0.00  0.00     0.039 A 
ATOM     22  C   UNL d   1     -41.705-120.932 -51.422  0.00  0.00     0.004 A 
ATOM     23  C   UNL d   1     -41.524-120.218 -51.063  0.00  0.00     0.011 A 
ATOM     24  C   UNL d   1     -41.301-119.564 -51.514  0.00  0.00     0.058 A 
ATOM     25  C   UNL d   1     -41.260-119.632 -52.342  0.00  0.00     0.011 A 
ATOM     26 CL   UNL d   1     -41.123-118.858 -51.146  0.00  0.00    -0.082 Cl
ATOM     27  C   UNL d   1     -41.441-120.346 -52.700  0.00  0.00     0.004 A 
ENDBRANCH  19  21
ENDBRANCH   2  19
BRANCH   1  28
ATOM     28  C   UNL d   1     -42.248-121.097 -54.054  0.00  0.00     0.470 C 
ATOM     29  F   UNL d   1     -41.563-120.855 -54.431  0.00  0.00    -0.162 F 
ATOM     30  F   UNL d   1     -42.038-120.433 -54.226  0.00  0.00    -0.162 F 
ATOM     31  F   UNL d   1     -42.632-120.376 -53.924  0.00  0.00    -0.162 F 
ENDBRANCH   1  28
TORSDOF 6
ENDMDL
