MODEL 1
REMARK VINA RESULT:      -8.0      0.000      0.000
REMARK  1 active torsions:
REMARK  status: ('A' for Active; 'I' for Inactive)
REMARK    1  A    between atoms: C_5  and  C_1 
ROOT
ATOM      1  C   UNL d   1     -48.653  13.036  22.909  0.00  0.00     0.162 A 
ATOM      2  N   UNL d   1     -48.402  13.796  22.877  0.00  0.00    -0.225 NA
ATOM      3  N   UNL d   1     -48.040  12.528  22.904  0.00  0.00    -0.225 NA
ATOM      4  C   UNL d   1     -47.559  13.775  22.849  0.00  0.00     0.101 A 
ATOM      5  C   UNL d   1     -47.335  12.988  22.866  0.00  0.00     0.101 A 
ATOM      6  C   UNL d   1     -46.995  14.379  22.812  0.00  0.00     0.021 A 
ATOM      7  C   UNL d   1     -46.540  12.783  22.845  0.00  0.00     0.021 A 
ATOM      8  C   UNL d   1     -45.965  13.378  22.807  0.00  0.00     0.002 A 
ATOM      9  C   UNL d   1     -46.190  14.165  22.791  0.00  0.00     0.002 A 
ENDROOT
BRANCH   1  10
ATOM     10  C   UNL d   1     -49.437  12.813  22.943  0.00  0.00     0.036 A 
ATOM     11  C   UNL d   1     -49.873  12.712  22.252  0.00  0.00     0.003 A 
ATOM     12  C   UNL d   1     -49.505  12.840  21.519  0.00  0.00     0.000 C 
ATOM     13  C   UNL d   1     -50.667  12.486  22.286  0.00  0.00     0.000 A 
ATOM     14  C   UNL d   1     -51.043  12.356  23.011  0.00  0.00     0.000 A 
ATOM     15  C   UNL d   1     -50.599  12.460  23.697  0.00  0.00     0.000 A 
ATOM     16  C   UNL d   1     -49.806  12.685  23.663  0.00  0.00     0.003 A 
ENDBRANCH   1  10
TORSDOF 1
ENDMDL
MODEL 2
REMARK VINA RESULT:      -7.7      1.019      3.289
REMARK  1 active torsions:
REMARK  status: ('A' for Active; 'I' for Inactive)
REMARK    1  A    between atoms: C_5  and  C_1 
ROOT
ATOM      1  C   UNL d   1     -48.620  12.751  22.864  0.00  0.00     0.162 A 
ATOM      2  N   UNL d   1     -48.916  12.631  22.130  0.00  0.00    -0.225 NA
ATOM      3  N   UNL d   1     -49.123  13.176  23.313  0.00  0.00    -0.225 NA
ATOM      4  C   UNL d   1     -49.670  13.008  22.103  0.00  0.00     0.101 A 
ATOM      5  C   UNL d   1     -49.798  13.346  22.838  0.00  0.00     0.101 A 
ATOM      6  C   UNL d   1     -50.232  13.072  21.500  0.00  0.00     0.021 A 
ATOM      7  C   UNL d   1     -50.492  13.759  22.989  0.00  0.00     0.021 A 
ATOM      8  C   UNL d   1     -51.062  13.831  22.394  0.00  0.00     0.002 A 
ATOM      9  C   UNL d   1     -50.934  13.492  21.659  0.00  0.00     0.002 A 
ENDROOT
BRANCH   1  10
ATOM     10  C   UNL d   1     -47.896  12.474  23.118  0.00  0.00     0.036 A 
ATOM     11  C   UNL d   1     -47.223  12.944  23.057  0.00  0.00     0.003 A 
ATOM     12  C   UNL d   1     -47.290  13.705  22.734  0.00  0.00     0.000 C 
ATOM     13  C   UNL d   1     -46.490  12.664  23.315  0.00  0.00     0.000 A 
ATOM     14  C   UNL d   1     -46.414  11.906  23.639  0.00  0.00     0.000 A 
ATOM     15  C   UNL d   1     -47.091  11.443  23.696  0.00  0.00     0.000 A 
ATOM     16  C   UNL d   1     -47.824  11.724  23.439  0.00  0.00     0.003 A 
ENDBRANCH   1  10
TORSDOF 1
ENDMDL
