MODEL 1
REMARK VINA RESULT:      34.1      0.000      0.000
REMARK  4 active torsions:
REMARK  status: ('A' for Active; 'I' for Inactive)
REMARK    1  A    between atoms: C_6  and  C_1 
REMARK    2  A    between atoms: C_7  and  N_3 
REMARK    3  A    between atoms: C_9  and  C_6 
REMARK    4  A    between atoms: N_8  and  C_9 
ROOT
ATOM      1  C   UNL d   1      14.104  12.700  -1.913  0.00  0.00     0.058 A 
ATOM      2  C   UNL d   1      14.294  13.504  -1.926  0.00  0.00     0.067 A 
ATOM      3  N   UNL d   1      14.676  13.704  -1.220  0.00  0.00    -0.306 N 
ATOM      4  C   UNL d   1      14.715  13.009  -0.778  0.00  0.00     0.064 A 
ATOM      5  C   UNL d   1      14.370  12.423  -1.204  0.00  0.00     0.022 A 
ATOM      6  C   UNL d   1      14.129  14.028  -2.547  0.00  0.00     0.019 C 
ATOM      7  C   UNL d   1      15.056  12.935  -0.016  0.00  0.00     0.019 C 
ENDROOT
BRANCH   1   8
ATOM      8  C   UNL d   1      13.715  12.270  -2.513  0.00  0.00     0.214 C 
ATOM      9  O   UNL d   1      12.993  11.909  -2.373  0.00  0.00    -0.285 OA
BRANCH   8  10
ATOM     10  C   UNL d   1      14.067  12.208  -3.256  0.00  0.00     0.123 C 
BRANCH  10  11
ATOM     11  N   UNL d   1      13.631  12.361  -3.934  0.00  0.00    -0.300 N 
ATOM     12  C   UNL d   1      13.558  11.782  -4.491  0.00  0.00     0.080 A 
ATOM     13  C   UNL d   1      13.116  11.925  -5.186  0.00  0.00     0.019 A 
ATOM     14  C   UNL d   1      12.771  12.667  -5.266  0.00  0.00     0.003 A 
ATOM     15  C   UNL d   1      12.844  13.246  -4.709  0.00  0.00     0.019 A 
ATOM     16  C   UNL d   1      13.293  13.066  -4.029  0.00  0.00     0.080 A 
ENDBRANCH  10  11
ENDBRANCH   8  10
ENDBRANCH   1   8
BRANCH   3  17
ATOM     17  C   UNL d   1      14.979  14.390  -0.934  0.00  0.00     0.064 A 
ATOM     18  C   UNL d   1      14.690  15.113  -1.220  0.00  0.00     0.020 A 
ATOM     19  C   UNL d   1      15.006  15.831  -0.921  0.00  0.00     0.031 A 
ATOM     20  C   UNL d   1      15.584  15.808  -0.363  0.00  0.00     0.140 A 
ATOM     21  C   UNL d   1      15.865  15.104  -0.086  0.00  0.00     0.031 A 
ATOM     22  F   UNL d   1      15.891  16.503  -0.074  0.00  0.00    -0.204 F 
ATOM     23  C   UNL d   1      15.567  14.371  -0.367  0.00  0.00     0.020 A 
ENDBRANCH   3  17
TORSDOF 4
ENDMDL
