MODEL 1
REMARK VINA RESULT:      50.1      0.000      0.000
REMARK  6 active torsions:
REMARK  status: ('A' for Active; 'I' for Inactive)
REMARK    1  A    between atoms: C_6  and  N_1 
REMARK    2  A    between atoms: C_5  and  C_3 
REMARK    3  A    between atoms: C_9  and  C_4 
REMARK    4  A    between atoms: N_12  and  C_6 
REMARK    5  A    between atoms: O_21  and  C_8 
REMARK    6  A    between atoms: O_22  and  C_16 
ROOT
ATOM      1  N   UNL d   1      15.155  13.064  -1.313  0.00  0.00    -0.203 N 
ATOM      2  N   UNL d   1      15.507  13.744  -1.038  0.00  0.00    -0.163 NA
ATOM      3  C   UNL d   1      14.432  13.268  -1.674  0.00  0.00     0.089 A 
ATOM      4  C   UNL d   1      15.041  14.375  -1.208  0.00  0.00     0.103 A 
ATOM      5  C   UNL d   1      14.364  14.095  -1.606  0.00  0.00     0.040 A 
ENDROOT
BRANCH   3   6
ATOM      6  C   UNL d   1      13.878  12.773  -2.034  0.00  0.00     0.042 A 
ATOM      7  C   UNL d   1      13.413  12.282  -1.563  0.00  0.00     0.096 A 
ATOM      8  C   UNL d   1      12.853  11.779  -1.909  0.00  0.00     0.026 A 
ATOM      9  C   UNL d   1      12.772  11.781  -2.721  0.00  0.00     0.026 A 
ATOM     10  C   UNL d   1      13.237  12.273  -3.193  0.00  0.00     0.094 A 
ATOM     11  C   UNL d   1      13.793  12.770  -2.829  0.00  0.00     0.028 A 
BRANCH   7  12
ATOM     12  O   UNL d   1      13.493  12.276  -0.721  0.00  0.00    -0.328 OA
ATOM     13  C   UNL d   1      12.834  12.388  -0.246  0.00  0.00     0.181 C 
ENDBRANCH   7  12
BRANCH  10  14
ATOM     14  O   UNL d   1      13.150  12.273  -4.049  0.00  0.00    -0.328 OA
ATOM     15  C   UNL d   1      13.672  11.855  -4.518  0.00  0.00     0.181 C 
ENDBRANCH  10  14
ENDBRANCH   3   6
BRANCH   1  16
ATOM     16  C   UNL d   1      15.468  12.290  -1.244  0.00  0.00     0.222 C 
ATOM     17  S   UNL d   1      15.269  11.831  -0.574  0.00  0.00    -0.037 SA
BRANCH  16  18
ATOM     18  N   UNL d   1      15.974  11.984  -1.839  0.00  0.00    -0.214 NA
ATOM     19  C   UNL d   1      16.792  11.884  -1.696  0.00  0.00     0.122 C 
ENDBRANCH  16  18
ENDBRANCH   1  16
BRANCH   4  20
ATOM     20  C   UNL d   1      15.226  15.146  -1.011  0.00  0.00     0.019 A 
ATOM     21  C   UNL d   1      14.959  15.760  -1.461  0.00  0.00     0.002 A 
ATOM     22  C   UNL d   1      15.142  16.539  -1.268  0.00  0.00     0.000 A 
ATOM     23  C   UNL d   1      15.613  16.681  -0.589  0.00  0.00     0.000 A 
ATOM     24  C   UNL d   1      15.882  16.048  -0.133  0.00  0.00     0.000 A 
ATOM     25  C   UNL d   1      15.809  17.453  -0.376  0.00  0.00     0.000 C 
ATOM     26  C   UNL d   1      15.691  15.285  -0.341  0.00  0.00     0.002 A 
ENDBRANCH   4  20
TORSDOF 6
ENDMDL
