MODEL 1
REMARK VINA RESULT:      62.7      0.000      0.000
REMARK  3 active torsions:
REMARK  status: ('A' for Active; 'I' for Inactive)
REMARK    1  A    between atoms: N_3  and  C_1 
REMARK       I    between atoms: C_5  and  N_3 
REMARK    2  A    between atoms: C_10  and  C_4 
REMARK       I    between atoms: N_8  and  C_5 
REMARK    3  A    between atoms: C_11  and  N_8 
ROOT
ATOM      1  C   UNL d   1     -48.312  29.392  34.766  0.00  0.00     0.199 A 
ATOM      2  N   UNL d   1     -48.931  29.123  34.292  0.00  0.00    -0.221 NA
ATOM      3  C   UNL d   1     -49.010  28.281  34.412  0.00  0.00     0.090 A 
ATOM      4  S   UNL d   1     -47.983  28.765  35.190  0.00  0.00    -0.046 SA
ATOM      5  C   UNL d   1     -48.418  28.057  34.973  0.00  0.00     0.058 A 
ENDROOT
BRANCH   1   6
ATOM      6  N   UNL d   1     -48.051  30.196  34.811  0.00  0.00    -0.166 NA
ATOM      7  C   UNL d   1     -47.632  30.444  35.499  0.00  0.00     0.370 C 
ATOM      8  N   UNL d   1     -47.372  31.247  35.544  0.00  0.00    -0.191 NA
ATOM      9  O   UNL d   1     -47.475  29.936  36.111  0.00  0.00    -0.242 OA
BRANCH   8  10
ATOM     10  C   UNL d   1     -47.531  31.757  34.925  0.00  0.00     0.086 A 
ATOM     11  C   UNL d   1     -48.276  32.068  34.785  0.00  0.00     0.019 A 
ATOM     12  C   UNL d   1     -48.420  32.583  34.153  0.00  0.00     0.002 A 
ATOM     13  C   UNL d   1     -47.799  32.790  33.652  0.00  0.00     0.000 A 
ATOM     14  C   UNL d   1     -47.048  32.487  33.779  0.00  0.00     0.002 A 
ATOM     15  C   UNL d   1     -46.928  31.973  34.417  0.00  0.00     0.019 A 
ENDBRANCH   8  10
ENDBRANCH   1   6
BRANCH   3  16
ATOM     16  C   UNL d   1     -49.563  27.790  34.044  0.00  0.00     0.018 A 
ATOM     17  C   UNL d   1     -50.247  28.111  33.673  0.00  0.00     0.002 A 
ATOM     18  C   UNL d   1     -50.788  27.635  33.314  0.00  0.00     0.000 A 
ATOM     19  C   UNL d   1     -50.674  26.798  33.306  0.00  0.00     0.000 A 
ATOM     20  C   UNL d   1     -50.002  26.484  33.671  0.00  0.00     0.000 A 
ATOM     21  C   UNL d   1     -49.456  26.982  34.034  0.00  0.00     0.002 A 
ENDBRANCH   3  16
TORSDOF 3
ENDMDL
