MODEL 1
REMARK VINA RESULT:     105.1      0.000      0.000
REMARK  10 active torsions:
REMARK  status: ('A' for Active; 'I' for Inactive)
REMARK    1  A    between atoms: N_9  and  C_1 
REMARK    2  A    between atoms: C_4  and  S_21 
REMARK    3  A    between atoms: C_23  and  C_8 
REMARK       I    between atoms: C_19  and  N_9 
REMARK    4  A    between atoms: O_26  and  C_10 
REMARK    5  A    between atoms: C_11  and  C_12 
REMARK       I    between atoms: C_12  and  N_20 
REMARK    6  A    between atoms: O_27  and  C_13 
REMARK    7  A    between atoms: O_28  and  C_14 
REMARK    8  A    between atoms: C_25  and  C_19 
REMARK    9  A    between atoms: N_20  and  C_23 
REMARK   10  A    between atoms: S_21  and  C_25 
ROOT
ATOM      1  O   UNL d   1      61.264  47.190  49.676  0.00  0.00    -0.262 OA
ATOM      2  C   UNL d   1      61.619  47.873  49.989  0.00  0.00     0.236 A 
ATOM      3  N   UNL d   1      62.425  47.737  50.033  0.00  0.00    -0.114 NA
ATOM      4  N   UNL d   1      62.572  46.977  49.750  0.00  0.00    -0.119 NA
ATOM      5  C   UNL d   1      61.858  46.641  49.530  0.00  0.00     0.224 A 
ENDROOT
BRANCH   5   6
ATOM      6  C   UNL d   1      61.754  45.885  49.218  0.00  0.00     0.149 C 
BRANCH   6   7
ATOM      7  N   UNL d   1      62.022  45.224  49.628  0.00  0.00    -0.203 NA
ATOM      8  C   UNL d   1      61.505  44.807  50.122  0.00  0.00     0.279 C 
ATOM      9  O   UNL d   1      60.724  45.049  50.207  0.00  0.00    -0.265 OA
BRANCH   8  10
ATOM     10  C   UNL d   1      61.780  44.143  50.532  0.00  0.00     0.062 A 
ATOM     11  C   UNL d   1      62.337  43.641  50.174  0.00  0.00     0.031 A 
ATOM     12  C   UNL d   1      62.600  42.989  50.588  0.00  0.00     0.118 A 
ATOM     13  C   UNL d   1      62.332  42.822  51.335  0.00  0.00     0.138 A 
ATOM     14  C   UNL d   1      61.772  43.335  51.687  0.00  0.00     0.118 A 
ATOM     15  C   UNL d   1      61.506  43.991  51.271  0.00  0.00     0.031 A 
BRANCH  12  16
ATOM     16  O   UNL d   1      63.157  42.478  50.240  0.00  0.00    -0.326 OA
ATOM     17  C   UNL d   1      62.909  41.947  49.652  0.00  0.00     0.181 C 
ENDBRANCH  12  16
BRANCH  13  18
ATOM     18  O   UNL d   1      62.595  42.169  51.752  0.00  0.00    -0.324 OA
ATOM     19  C   UNL d   1      62.395  41.402  51.496  0.00  0.00     0.182 C 
ENDBRANCH  13  18
BRANCH  14  20
ATOM     20  O   UNL d   1      61.492  43.172  52.452  0.00  0.00    -0.326 OA
ATOM     21  C   UNL d   1      60.794  43.500  52.722  0.00  0.00     0.181 C 
ENDBRANCH  14  20
ENDBRANCH   8  10
ENDBRANCH   6   7
ENDBRANCH   5   6
BRANCH   2  22
ATOM     22  S   UNL d   1      61.223  48.561  50.213  0.00  0.00    -0.036 SA
BRANCH  22  23
ATOM     23  C   UNL d   1      60.763  48.569  50.887  0.00  0.00     0.101 C 
BRANCH  23  24
ATOM     24  C   UNL d   1      59.979  48.866  50.859  0.00  0.00     0.288 C 
ATOM     25  N   UNL d   1      59.398  48.450  50.445  0.00  0.00    -0.182 NA
ATOM     26  O   UNL d   1      59.792  49.566  51.239  0.00  0.00    -0.265 OA
BRANCH  25  27
ATOM     27  C   UNL d   1      58.619  48.736  50.412  0.00  0.00     0.197 A 
ATOM     28  N   UNL d   1      58.118  48.838  51.067  0.00  0.00    -0.221 NA
ATOM     29  C   UNL d   1      57.398  49.133  50.789  0.00  0.00     0.090 A 
ATOM     30  C   UNL d   1      56.704  49.338  51.169  0.00  0.00     0.020 A 
ATOM     31  C   UNL d   1      57.457  49.214  49.958  0.00  0.00     0.050 A 
ATOM     32  C   UNL d   1      56.055  49.626  50.743  0.00  0.00     0.002 A 
ATOM     33  C   UNL d   1      56.118  49.705  49.918  0.00  0.00     0.001 A 
ATOM     34  C   UNL d   1      56.812  49.500  49.537  0.00  0.00     0.008 A 
ATOM     35  S   UNL d   1      58.213  48.968  49.727  0.00  0.00    -0.047 SA
ENDBRANCH  25  27
ENDBRANCH  23  24
ENDBRANCH  22  23
ENDBRANCH   2  22
TORSDOF 10
ENDMDL
