MODEL 1
REMARK VINA RESULT:      64.0      0.000      0.000
REMARK  4 active torsions:
REMARK  status: ('A' for Active; 'I' for Inactive)
REMARK    1  A    between atoms: N_6  and  C_2 
REMARK    2  A    between atoms: N_8  and  C_3 
REMARK    3  A    between atoms: C_10  and  N_8 
REMARK    4  A    between atoms: C_14  and  C_10 
ROOT
ATOM      1  N   UNL d   1      58.586  49.317  51.406  0.00  0.00    -0.041 NA
ATOM      2  C   UNL d   1      58.996  49.122  50.707  0.00  0.00     0.737 A 
ATOM      3  C   UNL d   1      57.771  49.470  51.379  0.00  0.00     0.182 A 
ATOM      4  N   UNL d   1      58.586  49.082  49.981  0.00  0.00    -0.060 NA
ATOM      5  C   UNL d   1      57.364  49.429  50.657  0.00  0.00     0.055 A 
ATOM      6  C   UNL d   1      57.766  49.237  49.963  0.00  0.00     0.103 A 
ATOM      7  C   UNL d   1      56.549  49.583  50.630  0.00  0.00     0.005 A 
ATOM      8  C   UNL d   1      57.357  49.196  49.234  0.00  0.00     0.020 A 
ATOM      9  C   UNL d   1      56.145  49.543  49.920  0.00  0.00     0.000 A 
ATOM     10  C   UNL d   1      56.552  49.349  49.217  0.00  0.00     0.002 A 
ENDROOT
BRANCH   3  11
ATOM     11  N   UNL d   1      57.343  49.672  52.101  0.00  0.00    -0.225 NA
BRANCH  11  12
ATOM     12  C   UNL d   1      57.663  49.670  52.790  0.00  0.00     0.101 C 
BRANCH  12  13
ATOM     13  C   UNL d   1      57.223  49.615  53.412  0.00  0.00     0.019 A 
ATOM     14  C   UNL d   1      56.479  49.697  53.348  0.00  0.00     0.002 A 
ATOM     15  C   UNL d   1      56.045  49.643  53.965  0.00  0.00     0.000 A 
ATOM     16  C   UNL d   1      56.358  49.506  54.642  0.00  0.00     0.000 A 
ATOM     17  C   UNL d   1      57.118  49.425  54.693  0.00  0.00     0.000 A 
ATOM     18  C   UNL d   1      57.544  49.480  54.075  0.00  0.00     0.002 A 
ENDBRANCH  12  13
ENDBRANCH  11  12
ENDBRANCH   3  11
BRANCH   2  19
ATOM     19  N   UNL d   1      59.838  48.964  50.734  0.00  0.00    -0.133 N 
ATOM     20  C   UNL d   1      60.395  49.601  50.593  0.00  0.00     0.125 A 
ATOM     21  C   UNL d   1      61.230  49.450  50.619  0.00  0.00     0.142 A 
ATOM     22  O   UNL d   1      61.514  48.667  50.785  0.00  0.00    -0.300 OA
ATOM     23  C   UNL d   1      60.958  48.029  50.925  0.00  0.00     0.142 A 
ATOM     24  C   UNL d   1      60.119  48.178  50.900  0.00  0.00     0.125 A 
ENDBRANCH   2  19
TORSDOF 4
ENDMDL
