MODEL 1
REMARK VINA RESULT:      87.3      0.000      0.000
REMARK  5 active torsions:
REMARK  status: ('A' for Active; 'I' for Inactive)
REMARK    1  A    between atoms: O_4  and  C_1 
REMARK    2  A    between atoms: C_9  and  C_2 
REMARK    3  A    between atoms: C_5  and  O_4 
REMARK    4  A    between atoms: C_12  and  C_5 
REMARK    5  A    between atoms: N_10  and  C_9 
ROOT
ATOM      1  C   UNL d   1     -48.243  30.051  34.916  0.00  0.00     0.122 A 
ATOM      2  C   UNL d   1     -48.109  30.783  34.560  0.00  0.00     0.043 A 
ATOM      3  C   UNL d   1     -47.876  29.869  35.632  0.00  0.00     0.105 A 
ATOM      4  C   UNL d   1     -47.377  30.418  35.991  0.00  0.00     0.030 A 
ATOM      5  C   UNL d   1     -47.250  31.143  35.630  0.00  0.00     0.059 A 
ATOM      6  C   UNL d   1     -47.610  31.332  34.919  0.00  0.00     0.015 A 
ATOM      7  N   UNL d   1     -48.010  29.143  35.982  0.00  0.00    -0.242 NA
ATOM      8 CL   UNL d   1     -46.740  31.684  36.013  0.00  0.00    -0.082 Cl
ATOM      9  C   UNL d   1     -47.017  30.235  36.697  0.00  0.00     0.004 A 
ATOM     10  C   UNL d   1     -47.644  28.961  36.698  0.00  0.00     0.099 A 
ATOM     11  C   UNL d   1     -47.145  29.510  37.057  0.00  0.00     0.021 A 
ENDROOT
BRANCH   1  12
ATOM     12  O   UNL d   1     -48.693  29.547  34.599  0.00  0.00    -0.271 OA
BRANCH  12  13
ATOM     13  C   UNL d   1     -48.668  28.676  34.186  0.00  0.00     0.300 C 
ATOM     14  O   UNL d   1     -47.743  28.301  34.076  0.00  0.00    -0.259 OA
BRANCH  13  15
ATOM     15  C   UNL d   1     -49.358  28.292  33.953  0.00  0.00     0.064 A 
ATOM     16  C   UNL d   1     -49.948  28.713  33.545  0.00  0.00     0.008 A 
ATOM     17  C   UNL d   1     -50.646  28.321  33.310  0.00  0.00     0.030 A 
ATOM     18  C   UNL d   1     -50.755  27.511  33.482  0.00  0.00     0.140 A 
ATOM     19  C   UNL d   1     -50.164  27.095  33.889  0.00  0.00     0.030 A 
ATOM     20  F   UNL d   1     -51.267  27.238  33.306  0.00  0.00    -0.204 F 
ATOM     21  C   UNL d   1     -49.467  27.487  34.123  0.00  0.00     0.008 A 
ENDBRANCH  13  15
ENDBRANCH  12  13
ENDBRANCH   1  12
BRANCH   2  22
ATOM     22  C   UNL d   1     -48.417  31.156  33.789  0.00  0.00     0.082 C 
BRANCH  22  23
ATOM     23  N   UNL d   1     -48.314  31.960  33.660  0.00  0.00    -0.299 N 
ATOM     24  C   UNL d   1     -47.580  32.244  33.440  0.00  0.00     0.107 A 
ATOM     25  C   UNL d   1     -47.462  33.052  33.306  0.00  0.00     0.142 A 
ATOM     26  O   UNL d   1     -48.090  33.564  33.398  0.00  0.00    -0.300 OA
ATOM     27  C   UNL d   1     -48.836  33.279  33.621  0.00  0.00     0.142 A 
ATOM     28  C   UNL d   1     -48.936  32.476  33.749  0.00  0.00     0.107 A 
ENDBRANCH  22  23
ENDBRANCH   2  22
TORSDOF 5
ENDMDL
