MODEL 1
REMARK VINA RESULT:      50.3      0.000      0.000
REMARK  4 active torsions:
REMARK  status: ('A' for Active; 'I' for Inactive)
REMARK    1  A    between atoms: C_8  and  N_1 
REMARK    2  A    between atoms: C_6  and  C_3 
REMARK       I    between atoms: N_9  and  C_6 
REMARK    3  A    between atoms: C_13  and  N_9 
REMARK    4  A    between atoms: C_14  and  C_13 
ROOT
ATOM      1  N   UNL d   1      58.850  49.516  50.473  0.00  0.00    -0.276 N 
ATOM      2  C   UNL d   1      59.358  49.389  51.114  0.00  0.00     0.181 A 
ATOM      3  C   UNL d   1      60.129  49.372  50.835  0.00  0.00     0.126 A 
ATOM      4  C   UNL d   1      59.321  49.578  49.792  0.00  0.00     0.152 A 
ATOM      5  S   UNL d   1      60.112  49.488  50.016  0.00  0.00    -0.051 SA
ATOM      6  S   UNL d   1      59.044  49.707  49.020  0.00  0.00    -0.052 SA
ATOM      7  N   UNL d   1      59.125  49.295  51.900  0.00  0.00    -0.128 N 
ENDROOT
BRANCH   3   8
ATOM      8  C   UNL d   1      60.813  49.258  51.288  0.00  0.00     0.288 C 
ATOM      9  N   UNL d   1      61.368  48.692  51.060  0.00  0.00    -0.204 NA
ATOM     10  O   UNL d   1      60.943  49.707  51.967  0.00  0.00    -0.265 OA
BRANCH   9  11
ATOM     11  C   UNL d   1      61.241  48.237  50.377  0.00  0.00     0.127 C 
BRANCH  11  12
ATOM     12  C   UNL d   1      61.289  47.416  50.405  0.00  0.00     0.119 A 
ATOM     13  O   UNL d   1      60.726  46.914  50.735  0.00  0.00    -0.304 OA
ATOM     14  C   UNL d   1      60.988  46.131  50.648  0.00  0.00     0.123 A 
ATOM     15  C   UNL d   1      61.723  46.162  50.258  0.00  0.00     0.029 A 
ATOM     16  C   UNL d   1      61.906  46.952  50.109  0.00  0.00     0.028 A 
ENDBRANCH  11  12
ENDBRANCH   9  11
ENDBRANCH   3   8
BRANCH   1  17
ATOM     17  C   UNL d   1      58.024  49.573  50.499  0.00  0.00     0.067 A 
ATOM     18  C   UNL d   1      57.591  49.556  49.805  0.00  0.00     0.018 A 
ATOM     19  C   UNL d   1      56.766  49.613  49.829  0.00  0.00     0.002 A 
ATOM     20  C   UNL d   1      56.385  49.687  50.556  0.00  0.00     0.000 A 
ATOM     21  C   UNL d   1      56.832  49.704  51.263  0.00  0.00     0.002 A 
ATOM     22  C   UNL d   1      57.647  49.647  51.227  0.00  0.00     0.018 A 
ENDBRANCH   1  17
TORSDOF 4
ENDMDL
