MODEL 1
REMARK VINA RESULT:       1.1      0.000      0.000
REMARK  5 active torsions:
REMARK  status: ('A' for Active; 'I' for Inactive)
REMARK    1  A    between atoms: C_14  and  N_4 
REMARK    2  A    between atoms: C_12  and  N_6 
REMARK    3  A    between atoms: C_10  and  C_12 
REMARK       I    between atoms: N_11  and  C_10 
REMARK    4  A    between atoms: C_13  and  N_11 
REMARK    5  A    between atoms: O_18  and  C_17 
ROOT
ATOM      1  C   UNL d   1     -41.756-122.390 -53.239  0.00  0.00     0.172 A 
ATOM      2  C   UNL d   1     -41.602-121.967 -52.548  0.00  0.00     0.113 A 
ATOM      3  N   UNL d   1     -41.703-123.209 -53.242  0.00  0.00    -0.206 NA
ATOM      4  N   UNL d   1     -41.949-121.839 -53.829  0.00  0.00    -0.212 N 
ATOM      5  C   UNL d   1     -41.393-122.362 -51.859  0.00  0.00     0.271 A 
ATOM      6  N   UNL d   1     -41.338-123.188 -51.858  0.00  0.00    -0.251 N 
ATOM      7  N   UNL d   1     -41.910-121.093 -53.496  0.00  0.00    -0.162 NA
ATOM      8  C   UNL d   1     -41.493-123.611 -52.549  0.00  0.00     0.187 A 
ATOM      9  C   UNL d   1     -41.701-121.162 -52.722  0.00  0.00     0.129 A 
ATOM     10  O   UNL d   1     -41.239-121.938 -51.168  0.00  0.00    -0.266 OA
ENDROOT
BRANCH   6  11
ATOM     11  C   UNL d   1     -41.127-123.598 -51.162  0.00  0.00     0.147 C 
BRANCH  11  12
ATOM     12  C   UNL d   1     -41.367-123.308 -50.420  0.00  0.00     0.297 C 
ATOM     13  N   UNL d   1     -41.794-123.803 -49.916  0.00  0.00    -0.205 NA
ATOM     14  O   UNL d   1     -41.179-122.543 -50.202  0.00  0.00    -0.264 OA
BRANCH  13  15
ATOM     15  C   UNL d   1     -42.035-123.513 -49.174  0.00  0.00     0.107 A 
ATOM     16  C   UNL d   1     -42.835-123.472 -49.010  0.00  0.00     0.112 A 
ATOM     17  C   UNL d   1     -43.075-123.182 -48.268  0.00  0.00     0.026 A 
ATOM     18  C   UNL d   1     -42.520-122.945 -47.717  0.00  0.00     0.002 A 
ATOM     19  C   UNL d   1     -41.720-122.986 -47.881  0.00  0.00     0.002 A 
ATOM     20  C   UNL d   1     -41.486-123.274 -48.619  0.00  0.00     0.021 A 
BRANCH  16  21
ATOM     21  O   UNL d   1     -43.390-123.709 -49.561  0.00  0.00    -0.327 OA
ATOM     22  C   UNL d   1     -44.186-123.717 -49.378  0.00  0.00     0.181 C 
ENDBRANCH  16  21
ENDBRANCH  13  15
ENDBRANCH  11  12
ENDBRANCH   6  11
BRANCH   4  23
ATOM     23  C   UNL d   1     -42.146-121.974 -54.609  0.00  0.00     0.085 A 
ATOM     24  C   UNL d   1     -41.558-121.945 -55.199  0.00  0.00     0.019 A 
ATOM     25  C   UNL d   1     -41.762-122.080 -55.979  0.00  0.00     0.002 A 
ATOM     26  C   UNL d   1     -42.561-122.248 -56.187  0.00  0.00     0.000 A 
ATOM     27  C   UNL d   1     -43.125-122.273 -55.602  0.00  0.00     0.002 A 
ATOM     28  C   UNL d   1     -42.928-122.138 -54.815  0.00  0.00     0.019 A 
ENDBRANCH   4  23
TORSDOF 5
ENDMDL
