MODEL 1
REMARK VINA RESULT:      -5.5      0.000      0.000
REMARK  1 active torsions:
REMARK  status: ('A' for Active; 'I' for Inactive)
REMARK    1  A    between atoms: C_12  and  N_4 
ROOT
ATOM      1  C   UNL d   1      57.387  -0.375  31.371  0.00  0.00     0.081 A 
ATOM      2  C   UNL d   1      57.675   0.351  31.504  0.00  0.00     0.118 A 
ATOM      3  C   UNL d   1      57.632  -0.806  30.705  0.00  0.00     0.268 A 
ATOM      4  N   UNL d   1      58.173  -0.468  30.190  0.00  0.00    -0.249 N 
ATOM      5  N   UNL d   1      58.211   0.681  30.992  0.00  0.00    -0.212 NA
ATOM      6  C   UNL d   1      58.468   0.254  30.310  0.00  0.00     0.209 A 
ATOM      7  S   UNL d   1      57.361   0.682  32.193  0.00  0.00    -0.068 SA
ATOM      8  C   UNL d   1      56.860  -0.537  31.996  0.00  0.00     0.013 A 
ATOM      9  C   UNL d   1      56.840   0.123  32.514  0.00  0.00     0.031 A 
ATOM     10  S   UNL d   1      59.015   0.559  29.764  0.00  0.00    -0.038 SA
ATOM     11  O   UNL d   1      57.345  -1.566  30.546  0.00  0.00    -0.267 OA
ATOM     12  C   UNL d   1      56.479  -1.246  32.007  0.00  0.00     0.001 A 
ATOM     13  C   UNL d   1      56.387   0.176  33.195  0.00  0.00     0.006 A 
ATOM     14  C   UNL d   1      55.931  -1.506  32.590  0.00  0.00     0.000 A 
ATOM     15  C   UNL d   1      55.872  -0.357  33.527  0.00  0.00     0.001 A 
ATOM     16  C   UNL d   1      55.663  -1.110  33.263  0.00  0.00     0.000 A 
ENDROOT
BRANCH   4  17
ATOM     17  C   UNL d   1      58.429  -0.902  29.506  0.00  0.00     0.085 C 
ATOM     18  C   UNL d   1      59.127  -1.331  29.537  0.00  0.00     0.021 C 
ENDBRANCH   4  17
TORSDOF 1
ENDMDL
MODEL 2
REMARK VINA RESULT:      -4.5      0.947      3.258
REMARK  1 active torsions:
REMARK  status: ('A' for Active; 'I' for Inactive)
REMARK    1  A    between atoms: C_12  and  N_4 
ROOT
ATOM      1  C   UNL d   1      57.543  -0.433  31.027  0.00  0.00     0.081 A 
ATOM      2  C   UNL d   1      57.650   0.333  31.197  0.00  0.00     0.118 A 
ATOM      3  C   UNL d   1      57.007  -0.889  31.469  0.00  0.00     0.268 A 
ATOM      4  N   UNL d   1      56.593  -0.532  32.080  0.00  0.00    -0.249 N 
ATOM      5  N   UNL d   1      57.238   0.682  31.802  0.00  0.00    -0.212 NA
ATOM      6  C   UNL d   1      56.690   0.231  32.259  0.00  0.00     0.209 A 
ATOM      7  S   UNL d   1      58.205   0.682  30.693  0.00  0.00    -0.068 SA
ATOM      8  C   UNL d   1      58.046  -0.605  30.384  0.00  0.00     0.013 A 
ATOM      9  C   UNL d   1      58.463   0.092  30.171  0.00  0.00     0.031 A 
ATOM     10  S   UNL d   1      56.250   0.553  32.887  0.00  0.00    -0.038 SA
ATOM     11  O   UNL d   1      56.879  -1.690  31.310  0.00  0.00    -0.267 OA
ATOM     12  C   UNL d   1      58.055  -1.354  30.089  0.00  0.00     0.001 A 
ATOM     13  C   UNL d   1      59.011   0.148  29.564  0.00  0.00     0.006 A 
ATOM     14  C   UNL d   1      58.523  -1.628  29.446  0.00  0.00     0.000 A 
ATOM     15  C   UNL d   1      59.277  -0.415  29.043  0.00  0.00     0.001 A 
ATOM     16  C   UNL d   1      59.065  -1.210  28.984  0.00  0.00     0.000 A 
ENDROOT
BRANCH   4  17
ATOM     17  C   UNL d   1      56.043  -0.990  32.537  0.00  0.00     0.085 C 
ATOM     18  C   UNL d   1      56.235  -1.206  33.304  0.00  0.00     0.021 C 
ENDBRANCH   4  17
TORSDOF 1
ENDMDL
MODEL 3
REMARK VINA RESULT:      -3.8      1.443      1.767
REMARK  1 active torsions:
REMARK  status: ('A' for Active; 'I' for Inactive)
REMARK    1  A    between atoms: C_12  and  N_4 
ROOT
ATOM      1  C   UNL d   1      57.045   0.667  32.461  0.00  0.00     0.081 A 
ATOM      2  C   UNL d   1      57.741   0.675  32.840  0.00  0.00     0.118 A 
ATOM      3  C   UNL d   1      57.022   0.663  31.631  0.00  0.00     0.268 A 
ATOM      4  N   UNL d   1      57.727   0.668  31.214  0.00  0.00    -0.249 N 
ATOM      5  N   UNL d   1      58.437   0.680  32.423  0.00  0.00    -0.212 NA
ATOM      6  C   UNL d   1      58.427   0.677  31.579  0.00  0.00     0.209 A 
ATOM      7  S   UNL d   1      57.640   0.678  33.660  0.00  0.00    -0.068 SA
ATOM      8  C   UNL d   1      56.455   0.663  33.050  0.00  0.00     0.013 A 
ATOM      9  C   UNL d   1      56.824   0.670  33.804  0.00  0.00     0.031 A 
ATOM     10  S   UNL d   1      59.119   0.682  31.118  0.00  0.00    -0.038 SA
ATOM     11  O   UNL d   1      56.308   0.654  31.213  0.00  0.00    -0.267 OA
ATOM     12  C   UNL d   1      55.683   0.654  32.825  0.00  0.00     0.001 A 
ATOM     13  C   UNL d   1      56.430   0.669  34.523  0.00  0.00     0.006 A 
ATOM     14  C   UNL d   1      55.017   0.650  33.338  0.00  0.00     0.000 A 
ATOM     15  C   UNL d   1      55.635   0.662  34.686  0.00  0.00     0.001 A 
ATOM     16  C   UNL d   1      54.997   0.653  34.163  0.00  0.00     0.000 A 
ENDROOT
BRANCH   4  17
ATOM     17  C   UNL d   1      57.713   0.665  30.365  0.00  0.00     0.085 C 
ATOM     18  C   UNL d   1      57.907  -0.021  29.959  0.00  0.00     0.021 C 
ENDBRANCH   4  17
TORSDOF 1
ENDMDL
MODEL 4
REMARK VINA RESULT:      -3.2      9.512     10.017
REMARK  1 active torsions:
REMARK  status: ('A' for Active; 'I' for Inactive)
REMARK    1  A    between atoms: C_12  and  N_4 
ROOT
ATOM      1  C   UNL d   1      59.743  -9.391  33.832  0.00  0.00     0.081 A 
ATOM      2  C   UNL d   1      60.530  -9.357  33.746  0.00  0.00     0.118 A 
ATOM      3  C   UNL d   1      59.400  -9.297  34.583  0.00  0.00     0.268 A 
ATOM      4  N   UNL d   1      59.888  -9.169  35.229  0.00  0.00    -0.249 N 
ATOM      5  N   UNL d   1      61.009  -9.230  34.389  0.00  0.00    -0.212 NA
ATOM      6  C   UNL d   1      60.673  -9.133  35.157  0.00  0.00     0.209 A 
ATOM      7  S   UNL d   1      60.754  -9.463  32.958  0.00  0.00    -0.068 SA
ATOM      8  C   UNL d   1      59.428  -9.525  33.071  0.00  0.00     0.013 A 
ATOM      9  C   UNL d   1      60.059  -9.571  32.520  0.00  0.00     0.031 A 
ATOM     10  S   UNL d   1      61.131  -9.002  35.838  0.00  0.00    -0.038 SA
ATOM     11  O   UNL d   1      58.581  -9.328  34.697  0.00  0.00    -0.267 OA
ATOM     12  C   UNL d   1      58.629  -9.585  32.988  0.00  0.00     0.001 A 
ATOM     13  C   UNL d   1      59.975  -9.699  31.715  0.00  0.00     0.006 A 
ATOM     14  C   UNL d   1      58.215  -9.719  32.269  0.00  0.00     0.000 A 
ATOM     15  C   UNL d   1      59.306  -9.807  31.267  0.00  0.00     0.001 A 
ATOM     16  C   UNL d   1      58.516  -9.817  31.507  0.00  0.00     0.000 A 
ENDROOT
BRANCH   4  17
ATOM     17  C   UNL d   1      59.546  -9.073  36.000  0.00  0.00     0.085 C 
ATOM     18  C   UNL d   1      59.274  -8.335  36.233  0.00  0.00     0.021 C 
ENDBRANCH   4  17
TORSDOF 1
ENDMDL
MODEL 5
REMARK VINA RESULT:      -3.0      2.551      4.396
REMARK  1 active torsions:
REMARK  status: ('A' for Active; 'I' for Inactive)
REMARK    1  A    between atoms: C_12  and  N_4 
ROOT
ATOM      1  C   UNL d   1      59.598  -1.713  29.075  0.00  0.00     0.081 A 
ATOM      2  C   UNL d   1      60.363  -1.518  29.143  0.00  0.00     0.118 A 
ATOM      3  C   UNL d   1      59.009  -1.140  29.195  0.00  0.00     0.268 A 
ATOM      4  N   UNL d   1      59.232  -0.374  29.383  0.00  0.00    -0.249 N 
ATOM      5  N   UNL d   1      60.580  -0.759  29.329  0.00  0.00    -0.212 NA
ATOM      6  C   UNL d   1      59.991  -0.167  29.454  0.00  0.00     0.209 A 
ATOM      7  S   UNL d   1      60.856  -2.166  29.003  0.00  0.00    -0.068 SA
ATOM      8  C   UNL d   1      59.578  -2.524  28.882  0.00  0.00     0.013 A 
ATOM      9  C   UNL d   1      60.364  -2.812  28.835  0.00  0.00     0.031 A 
ATOM     10  S   UNL d   1      60.174   0.621  29.646  0.00  0.00    -0.038 SA
ATOM     11  O   UNL d   1      58.204  -1.320  29.129  0.00  0.00    -0.267 OA
ATOM     12  C   UNL d   1      58.863  -2.879  28.777  0.00  0.00     0.001 A 
ATOM     13  C   UNL d   1      60.575  -3.585  28.658  0.00  0.00     0.006 A 
ATOM     14  C   UNL d   1      58.734  -3.686  28.581  0.00  0.00     0.000 A 
ATOM     15  C   UNL d   1      60.111  -4.230  28.491  0.00  0.00     0.001 A 
ATOM     16  C   UNL d   1      59.289  -4.284  28.455  0.00  0.00     0.000 A 
ENDROOT
BRANCH   4  17
ATOM     17  C   UNL d   1      58.636   0.218  29.507  0.00  0.00     0.085 C 
ATOM     18  C   UNL d   1      58.332   0.335  30.259  0.00  0.00     0.021 C 
ENDBRANCH   4  17
TORSDOF 1
ENDMDL
MODEL 6
REMARK VINA RESULT:      -3.0      2.036      3.665
REMARK  1 active torsions:
REMARK  status: ('A' for Active; 'I' for Inactive)
REMARK    1  A    between atoms: C_12  and  N_4 
ROOT
ATOM      1  C   UNL d   1      57.020   0.665  32.560  0.00  0.00     0.081 A 
ATOM      2  C   UNL d   1      57.556   0.671  33.143  0.00  0.00     0.118 A 
ATOM      3  C   UNL d   1      56.209   0.657  32.738  0.00  0.00     0.268 A 
ATOM      4  N   UNL d   1      55.975   0.656  33.524  0.00  0.00    -0.249 N 
ATOM      5  N   UNL d   1      57.321   0.670  33.919  0.00  0.00    -0.212 NA
ATOM      6  C   UNL d   1      56.499   0.662  34.114  0.00  0.00     0.209 A 
ATOM      7  S   UNL d   1      58.328   0.679  32.846  0.00  0.00    -0.068 SA
ATOM      8  C   UNL d   1      57.448   0.668  31.844  0.00  0.00     0.013 A 
ATOM      9  C   UNL d   1      58.269   0.677  32.019  0.00  0.00     0.031 A 
ATOM     10  S   UNL d   1      56.220   0.661  34.897  0.00  0.00    -0.038 SA
ATOM     11  O   UNL d   1      55.630   0.650  32.147  0.00  0.00    -0.267 OA
ATOM     12  C   UNL d   1      57.042   0.663  31.149  0.00  0.00     0.001 A 
ATOM     13  C   UNL d   1      58.871   0.682  31.462  0.00  0.00     0.006 A 
ATOM     14  C   UNL d   1      57.378   0.665  30.379  0.00  0.00     0.000 A 
ATOM     15  C   UNL d   1      58.836   0.680  30.651  0.00  0.00     0.001 A 
ATOM     16  C   UNL d   1      58.174   0.673  30.160  0.00  0.00     0.000 A 
ENDROOT
BRANCH   4  17
ATOM     17  C   UNL d   1      55.148   0.648  33.716  0.00  0.00     0.085 C 
ATOM     18  C   UNL d   1      54.752  -0.068  33.771  0.00  0.00     0.021 C 
ENDBRANCH   4  17
TORSDOF 1
ENDMDL
MODEL 7
REMARK VINA RESULT:      -2.8      9.603      9.902
REMARK  1 active torsions:
REMARK  status: ('A' for Active; 'I' for Inactive)
REMARK    1  A    between atoms: C_12  and  N_4 
ROOT
ATOM      1  C   UNL d   1      58.855  -9.808  31.708  0.00  0.00     0.081 A 
ATOM      2  C   UNL d   1      58.249  -9.807  32.218  0.00  0.00     0.118 A 
ATOM      3  C   UNL d   1      59.637  -9.808  31.989  0.00  0.00     0.268 A 
ATOM      4  N   UNL d   1      59.768  -9.806  32.798  0.00  0.00    -0.249 N 
ATOM      5  N   UNL d   1      58.383  -9.805  33.018  0.00  0.00    -0.212 NA
ATOM      6  C   UNL d   1      59.173  -9.805  33.317  0.00  0.00     0.209 A 
ATOM      7  S   UNL d   1      57.521  -9.808  31.826  0.00  0.00    -0.068 SA
ATOM      8  C   UNL d   1      58.521  -9.810  30.944  0.00  0.00     0.013 A 
ATOM      9  C   UNL d   1      57.684  -9.809  31.013  0.00  0.00     0.031 A 
ATOM     10  S   UNL d   1      59.350  -9.803  34.129  0.00  0.00    -0.038 SA
ATOM     11  O   UNL d   1      60.286  -9.809  31.476  0.00  0.00    -0.267 OA
ATOM     12  C   UNL d   1      59.013  -9.811  30.307  0.00  0.00     0.001 A 
ATOM     13  C   UNL d   1      57.158  -9.811  30.384  0.00  0.00     0.006 A 
ATOM     14  C   UNL d   1      58.778  -9.813  29.499  0.00  0.00     0.000 A 
ATOM     15  C   UNL d   1      57.296  -9.812  29.584  0.00  0.00     0.001 A 
ATOM     16  C   UNL d   1      58.016  -9.813  29.181  0.00  0.00     0.000 A 
ENDROOT
BRANCH   4  17
ATOM     17  C   UNL d   1      60.564  -9.805  33.094  0.00  0.00     0.085 C 
ATOM     18  C   UNL d   1      60.980  -9.100  33.136  0.00  0.00     0.021 C 
ENDBRANCH   4  17
TORSDOF 1
ENDMDL
