MODEL 1
REMARK VINA RESULT:      23.3      0.000      0.000
REMARK  2 active torsions:
REMARK  status: ('A' for Active; 'I' for Inactive)
REMARK    1  A    between atoms: C_6  and  C_1 
REMARK    2  A    between atoms: O_12  and  C_9 
ROOT
ATOM      1  C   UNL d   1     -58.146 -98.772 -44.620  0.00  0.00     0.128 A 
ATOM      2  C   UNL d   1     -57.902 -98.773 -43.831  0.00  0.00     0.306 A 
ATOM      3  O   UNL d   1     -57.114 -98.775 -43.652  0.00  0.00    -0.271 OA
ATOM      4  C   UNL d   1     -57.595 -98.772 -45.207  0.00  0.00     0.013 A 
ATOM      5  C   UNL d   1     -56.526 -98.775 -44.257  0.00  0.00     0.125 A 
ATOM      6  C   UNL d   1     -56.770 -98.774 -45.045  0.00  0.00     0.025 A 
ATOM      7  O   UNL d   1     -58.451 -98.773 -43.239  0.00  0.00    -0.259 OA
ATOM      8  C   UNL d   1     -55.717 -98.777 -44.084  0.00  0.00     0.117 A 
ATOM      9  C   UNL d   1     -56.198 -98.774 -45.639  0.00  0.00     0.002 A 
ATOM     10  C   UNL d   1     -55.387 -98.776 -45.472  0.00  0.00     0.002 A 
ATOM     11  C   UNL d   1     -55.143 -98.777 -44.684  0.00  0.00     0.026 A 
ENDROOT
BRANCH   1  12
ATOM     12  C   UNL d   1     -58.941 -98.770 -44.824  0.00  0.00     0.216 C 
ATOM     13  O   UNL d   1     -59.182 -98.755 -45.636  0.00  0.00    -0.644 OA
ATOM     14  O   UNL d   1     -59.444 -98.783 -44.204  0.00  0.00    -0.644 OA
ENDBRANCH   1  12
BRANCH   8  15
ATOM     15  O   UNL d   1     -55.476 -98.778 -43.304  0.00  0.00    -0.326 OA
ATOM     16  C   UNL d   1     -54.745 -99.060 -43.104  0.00  0.00     0.181 C 
ENDBRANCH   8  15
TORSDOF 2
ENDMDL
MODEL 2
REMARK VINA RESULT:      23.6      6.215      7.907
REMARK  2 active torsions:
REMARK  status: ('A' for Active; 'I' for Inactive)
REMARK    1  A    between atoms: C_6  and  C_1 
REMARK    2  A    between atoms: O_12  and  C_9 
ROOT
ATOM      1  C   UNL d   1     -54.870-101.836 -36.744  0.00  0.00     0.128 A 
ATOM      2  C   UNL d   1     -54.805-101.053 -36.997  0.00  0.00     0.306 A 
ATOM      3  O   UNL d   1     -54.775-100.885 -37.786  0.00  0.00    -0.271 OA
ATOM      4  C   UNL d   1     -54.902-102.430 -37.288  0.00  0.00     0.013 A 
ATOM      5  C   UNL d   1     -54.807-101.495 -38.367  0.00  0.00     0.125 A 
ATOM      6  C   UNL d   1     -54.872-102.278 -38.114  0.00  0.00     0.025 A 
ATOM      7  O   UNL d   1     -54.773-100.455 -36.455  0.00  0.00    -0.259 OA
ATOM      8  C   UNL d   1     -54.777-101.334 -39.178  0.00  0.00     0.117 A 
ATOM      9  C   UNL d   1     -54.904-102.878 -38.679  0.00  0.00     0.002 A 
ATOM     10  C   UNL d   1     -54.874-102.723 -39.493  0.00  0.00     0.002 A 
ATOM     11  C   UNL d   1     -54.809-101.940 -39.745  0.00  0.00     0.026 A 
ENDROOT
BRANCH   1  12
ATOM     12  C   UNL d   1     -54.903-102.029 -35.947  0.00  0.00     0.216 C 
ATOM     13  O   UNL d   1     -54.972-102.836 -35.696  0.00  0.00    -0.644 OA
ATOM     14  O   UNL d   1     -54.865-101.405 -35.451  0.00  0.00    -0.644 OA
ENDBRANCH   1  12
BRANCH   8  15
ATOM     15  O   UNL d   1     -54.713-100.560 -39.428  0.00  0.00    -0.326 OA
ATOM     16  C   UNL d   1     -55.148-100.297 -40.058  0.00  0.00     0.181 C 
ENDBRANCH   8  15
TORSDOF 2
ENDMDL
