MODEL 1
REMARK VINA RESULT:      44.0      0.000      0.000
REMARK  5 active torsions:
REMARK  status: ('A' for Active; 'I' for Inactive)
REMARK       I    between atoms: N_3  and  C_1 
REMARK    1  A    between atoms: C_6  and  C_1 
REMARK    2  A    between atoms: C_2  and  S_4 
REMARK    3  A    between atoms: C_7  and  N_3 
REMARK    4  A    between atoms: S_4  and  C_8 
REMARK    5  A    between atoms: C_15  and  C_6 
ROOT
ATOM      1  C   UNL d   1     -51.512  26.768  33.821  0.00  0.00     0.085 A 
ATOM      2  C   UNL d   1     -49.896  26.774  34.007  0.00  0.00     0.034 A 
ATOM      3  C   UNL d   1     -51.174  27.208  34.431  0.00  0.00     0.020 A 
ATOM      4  C   UNL d   1     -51.052  26.333  33.307  0.00  0.00     0.020 A 
ATOM      5  C   UNL d   1     -50.242  26.332  33.394  0.00  0.00     0.008 A 
ATOM      6  C   UNL d   1     -50.359  27.210  34.523  0.00  0.00     0.008 A 
ENDROOT
BRANCH   1   7
ATOM      7  N   UNL d   1     -52.331  26.765  33.728  0.00  0.00    -0.208 NA
ATOM      8  C   UNL d   1     -52.732  26.048  33.631  0.00  0.00     0.279 C 
ATOM      9  O   UNL d   1     -53.536  26.039  33.539  0.00  0.00    -0.265 OA
BRANCH   8  10
ATOM     10  C   UNL d   1     -52.308  25.348  33.628  0.00  0.00     0.062 C 
BRANCH  10  11
ATOM     11  C   UNL d   1     -52.688  24.648  33.525  0.00  0.00     0.005 A 
ATOM     12  C   UNL d   1     -52.264  23.935  33.524  0.00  0.00     0.000 A 
ATOM     13  C   UNL d   1     -52.659  23.200  33.416  0.00  0.00     0.000 A 
ATOM     14  C   UNL d   1     -53.492  23.195  33.308  0.00  0.00     0.000 A 
ATOM     15  C   UNL d   1     -53.922  23.913  33.309  0.00  0.00     0.000 A 
ATOM     16  C   UNL d   1     -53.515  24.635  33.417  0.00  0.00     0.000 A 
ENDBRANCH  10  11
ENDBRANCH   8  10
ENDBRANCH   1   7
BRANCH   2  17
ATOM     17  S   UNL d   1     -49.084  26.773  34.095  0.00  0.00    -0.028 SA
BRANCH  17  18
ATOM     18  C   UNL d   1     -48.689  27.447  34.338  0.00  0.00     0.309 C 
ATOM     19  F   UNL d   1     -48.760  28.135  33.907  0.00  0.00    -0.165 F 
ATOM     20  F   UNL d   1     -48.228  27.439  35.003  0.00  0.00    -0.165 F 
ENDBRANCH  17  18
ENDBRANCH   2  17
TORSDOF 5
ENDMDL
