MODEL 1
REMARK VINA RESULT:      52.1      0.000      0.000
REMARK  7 active torsions:
REMARK  status: ('A' for Active; 'I' for Inactive)
REMARK    1  A    between atoms: C_13  and  N_1 
REMARK    2  A    between atoms: C_2  and  N_6 
REMARK    3  A    between atoms: C_8  and  C_5 
REMARK       I    between atoms: N_6  and  C_8 
REMARK    4  A    between atoms: S_20  and  C_9 
REMARK    5  A    between atoms: C_14  and  C_19 
REMARK    6  A    between atoms: C_19  and  C_23 
REMARK    7  A    between atoms: C_23  and  S_20 
ROOT
ATOM      1  N   UNL d   1      13.477  14.296  -4.471  0.00  0.00    -0.181 NA
ATOM      2  C   UNL d   1      13.430  13.528  -4.502  0.00  0.00     0.283 C 
ATOM      3  O   UNL d   1      13.359  13.173  -5.182  0.00  0.00    -0.265 OA
ENDROOT
BRANCH   2   4
ATOM      4  C   UNL d   1      13.453  13.118  -3.855  0.00  0.00     0.080 A 
ATOM      5  C   UNL d   1      13.998  13.144  -3.317  0.00  0.00     0.088 A 
ATOM      6  N   UNL d   1      13.809  12.646  -2.761  0.00  0.00    -0.273 N 
ATOM      7  C   UNL d   1      13.149  12.315  -2.956  0.00  0.00     0.265 A 
ATOM      8  C   UNL d   1      12.922  12.604  -3.636  0.00  0.00     0.067 A 
ATOM      9  O   UNL d   1      12.770  11.779  -2.544  0.00  0.00    -0.267 OA
BRANCH   6  10
ATOM     10  C   UNL d   1      14.249  12.499  -2.071  0.00  0.00     0.067 A 
ATOM     11  C   UNL d   1      13.893  12.600  -1.334  0.00  0.00     0.020 A 
ATOM     12  C   UNL d   1      14.338  12.451  -0.653  0.00  0.00     0.031 A 
ATOM     13  C   UNL d   1      15.118  12.207  -0.705  0.00  0.00     0.140 A 
ATOM     14  C   UNL d   1      15.469  12.108  -1.450  0.00  0.00     0.031 A 
ATOM     15  F   UNL d   1      15.564  12.058  -0.017  0.00  0.00    -0.204 F 
ATOM     16  C   UNL d   1      15.040  12.252  -2.125  0.00  0.00     0.020 A 
ENDBRANCH   6  10
ENDBRANCH   2   4
BRANCH   1  17
ATOM     17  C   UNL d   1      13.454  14.712  -5.118  0.00  0.00     0.219 A 
ATOM     18  S   UNL d   1      13.265  15.456  -5.172  0.00  0.00    -0.019 SA
ATOM     19  C   UNL d   1      13.311  15.658  -5.906  0.00  0.00     0.165 A 
ATOM     20  N   UNL d   1      13.528  15.047  -6.321  0.00  0.00    -0.133 NA
ATOM     21  N   UNL d   1      13.618  14.451  -5.824  0.00  0.00    -0.120 NA
BRANCH  19  22
ATOM     22  S   UNL d   1      12.936  17.270  -6.278  0.00  0.00    -0.059 SA
BRANCH  22  23
ATOM     23  C   UNL d   1      13.481  17.869  -6.121  0.00  0.00     0.042 C 
BRANCH  23  24
ATOM     24  C   UNL d   1      13.287  18.657  -6.290  0.00  0.00     0.058 C 
BRANCH  24  25
ATOM     25  C   UNL d   1      13.826  19.251  -6.097  0.00  0.00     0.204 A 
ATOM     26  O   UNL d   1      13.758  20.055  -6.297  0.00  0.00    -0.281 OA
ATOM     27  C   UNL d   1      14.422  20.447  -5.991  0.00  0.00     0.152 A 
ATOM     28  C   UNL d   1      14.895  19.887  -5.606  0.00  0.00     0.152 A 
ATOM     29  O   UNL d   1      14.531  19.148  -5.670  0.00  0.00    -0.281 OA
ENDBRANCH  24  25
ENDBRANCH  23  24
ENDBRANCH  22  23
ENDBRANCH  19  22
ENDBRANCH   1  17
TORSDOF 7
ENDMDL
MODEL 2
REMARK VINA RESULT:      55.0      3.351      6.866
REMARK  7 active torsions:
REMARK  status: ('A' for Active; 'I' for Inactive)
REMARK    1  A    between atoms: C_13  and  N_1 
REMARK    2  A    between atoms: C_2  and  N_6 
REMARK    3  A    between atoms: C_8  and  C_5 
REMARK       I    between atoms: N_6  and  C_8 
REMARK    4  A    between atoms: S_20  and  C_9 
REMARK    5  A    between atoms: C_14  and  C_19 
REMARK    6  A    between atoms: C_19  and  C_23 
REMARK    7  A    between atoms: C_23  and  S_20 
ROOT
ATOM      1  N   UNL d   1      15.255  16.705  -2.305  0.00  0.00    -0.181 NA
ATOM      2  C   UNL d   1      15.005  16.287  -2.901  0.00  0.00     0.283 C 
ATOM      3  O   UNL d   1      14.758  15.566  -2.789  0.00  0.00    -0.265 OA
ENDROOT
BRANCH   2   4
ATOM      4  C   UNL d   1      15.002  16.590  -3.605  0.00  0.00     0.080 A 
ATOM      5  C   UNL d   1      14.734  17.279  -3.805  0.00  0.00     0.088 A 
ATOM      6  N   UNL d   1      14.836  17.366  -4.562  0.00  0.00    -0.273 N 
ATOM      7  C   UNL d   1      15.166  16.731  -4.829  0.00  0.00     0.265 A 
ATOM      8  C   UNL d   1      15.272  16.244  -4.238  0.00  0.00     0.067 A 
ATOM      9  O   UNL d   1      15.363  16.595  -5.566  0.00  0.00    -0.267 OA
BRANCH   6  10
ATOM     10  C   UNL d   1      14.623  18.034  -5.008  0.00  0.00     0.067 A 
ATOM     11  C   UNL d   1      14.972  18.763  -4.838  0.00  0.00     0.020 A 
ATOM     12  C   UNL d   1      14.754  19.422  -5.287  0.00  0.00     0.031 A 
ATOM     13  C   UNL d   1      14.203  19.358  -5.890  0.00  0.00     0.140 A 
ATOM     14  C   UNL d   1      13.858  18.622  -6.055  0.00  0.00     0.031 A 
ATOM     15  F   UNL d   1      13.986  20.025  -6.341  0.00  0.00    -0.204 F 
ATOM     16  C   UNL d   1      14.065  17.968  -5.619  0.00  0.00     0.020 A 
ENDBRANCH   6  10
ENDBRANCH   2   4
BRANCH   1  17
ATOM     17  C   UNL d   1      15.260  16.406  -1.596  0.00  0.00     0.219 A 
ATOM     18  S   UNL d   1      15.174  15.662  -1.417  0.00  0.00    -0.019 SA
ATOM     19  C   UNL d   1      15.213  15.596  -0.659  0.00  0.00     0.165 A 
ATOM     20  N   UNL d   1      15.322  16.293  -0.352  0.00  0.00    -0.133 NA
ATOM     21  N   UNL d   1      15.352  16.803  -0.943  0.00  0.00    -0.120 NA
BRANCH  19  22
ATOM     22  S   UNL d   1      15.049  14.033  -0.021  0.00  0.00    -0.059 SA
BRANCH  22  23
ATOM     23  C   UNL d   1      14.332  13.630  -0.089  0.00  0.00     0.042 C 
BRANCH  23  24
ATOM     24  C   UNL d   1      14.324  12.802  -0.091  0.00  0.00     0.058 C 
BRANCH  24  25
ATOM     25  C   UNL d   1      14.334  12.404  -0.814  0.00  0.00     0.204 A 
ATOM     26  O   UNL d   1      13.669  12.154  -1.243  0.00  0.00    -0.281 OA
ATOM     27  C   UNL d   1      13.939  11.779  -1.933  0.00  0.00     0.152 A 
ATOM     28  C   UNL d   1      14.767  11.800  -1.926  0.00  0.00     0.152 A 
ATOM     29  O   UNL d   1      15.015  12.184  -1.238  0.00  0.00    -0.281 OA
ENDBRANCH  24  25
ENDBRANCH  23  24
ENDBRANCH  22  23
ENDBRANCH  19  22
ENDBRANCH   1  17
TORSDOF 7
ENDMDL
