MODEL 1
REMARK VINA RESULT:     259.5      0.000      0.000
REMARK  9 active torsions:
REMARK  status: ('A' for Active; 'I' for Inactive)
REMARK    1  A    between atoms: C_12  and  N_1 
REMARK    2  A    between atoms: C_13  and  N_2 
REMARK    3  A    between atoms: O_9  and  C_23 
REMARK    4  A    between atoms: C_10  and  O_9 
REMARK    5  A    between atoms: C_11  and  C_12 
REMARK    6  A    between atoms: C_18  and  C_13 
REMARK    7  A    between atoms: C_26  and  C_15 
REMARK    8  A    between atoms: C_16  and  C_26 
REMARK    9  A    between atoms: C_23  and  C_18 
ROOT
ATOM      1  N   UNL d   1     -59.052-100.342 -41.728  0.00  0.00    -0.300 N 
ATOM      2  N   UNL d   1     -58.749-101.269 -40.379  0.00  0.00    -0.297 N 
ATOM      3  C   UNL d   1     -59.640-100.761 -41.376  0.00  0.00     0.100 A 
ATOM      4  C   UNL d   1     -58.136-100.848 -40.725  0.00  0.00     0.100 A 
ATOM      5  C   UNL d   1     -59.514-101.229 -40.704  0.00  0.00     0.100 A 
ATOM      6  C   UNL d   1     -58.288-100.385 -41.399  0.00  0.00     0.100 A 
ENDROOT
BRANCH   2   7
ATOM      7  C   UNL d   1     -58.614-101.722 -39.724  0.00  0.00     0.125 C 
BRANCH   7   8
ATOM      8  C   UNL d   1     -58.297-101.417 -39.046  0.00  0.00     0.238 C 
ATOM      9  O   UNL d   1     -58.824-101.160 -38.455  0.00  0.00    -0.283 OA
BRANCH   8  10
ATOM     10  C   UNL d   1     -57.506-101.363 -38.946  0.00  0.00     0.166 C 
BRANCH  10  11
ATOM     11  O   UNL d   1     -57.184-101.273 -38.188  0.00  0.00    -0.302 OA
BRANCH  11  12
ATOM     12  C   UNL d   1     -56.380-101.271 -38.079  0.00  0.00     0.100 A 
ATOM     13  C   UNL d   1     -56.043-100.886 -37.440  0.00  0.00     0.023 A 
ATOM     14  C   UNL d   1     -55.228-100.877 -37.320  0.00  0.00     0.002 A 
ATOM     15  C   UNL d   1     -54.730-101.266 -37.857  0.00  0.00     0.000 A 
ATOM     16  C   UNL d   1     -55.060-101.663 -38.516  0.00  0.00     0.002 A 
ATOM     17  C   UNL d   1     -55.894-101.660 -38.619  0.00  0.00     0.025 A 
BRANCH  13  18
ATOM     18  C   UNL d   1     -56.528-100.504 -36.912  0.00  0.00     0.002 C 
BRANCH  18  19
ATOM     19  C   UNL d   1     -56.221 -99.944 -36.406  0.00  0.00     0.000 C 
ATOM     20  C   UNL d   1     -55.408 -99.779 -36.404  0.00  0.00     0.000 C 
ENDBRANCH  18  19
ENDBRANCH  13  18
ENDBRANCH  11  12
ENDBRANCH  10  11
ENDBRANCH   8  10
ENDBRANCH   7   8
ENDBRANCH   2   7
BRANCH   1  21
ATOM     21  C   UNL d   1     -59.199 -99.892 -42.382  0.00  0.00     0.080 C 
BRANCH  21  22
ATOM     22  C   UNL d   1     -59.200-100.253 -43.110  0.00  0.00     0.020 A 
ATOM     23  C   UNL d   1     -58.890 -99.865 -43.752  0.00  0.00     0.028 A 
ATOM     24  C   UNL d   1     -58.903-100.257 -44.483  0.00  0.00     0.119 A 
ATOM     25  O   UNL d   1     -58.624 -99.980 -45.205  0.00  0.00    -0.300 OA
ATOM     26  C   UNL d   1     -59.216-101.003 -44.557  0.00  0.00     0.119 A 
ATOM     27  C   UNL d   1     -58.766-100.585 -45.780  0.00  0.00     0.304 A 
ATOM     28  O   UNL d   1     -59.134-101.214 -45.360  0.00  0.00    -0.300 OA
ATOM     29  C   UNL d   1     -59.532-101.399 -43.903  0.00  0.00     0.026 A 
ATOM     30  C   UNL d   1     -59.522-101.014 -43.174  0.00  0.00     0.004 A 
ENDBRANCH  21  22
ENDBRANCH   1  21
TORSDOF 9
ENDMDL
