MODEL 1
REMARK VINA RESULT:      -7.1      0.000      0.000
REMARK  7 active torsions:
REMARK  status: ('A' for Active; 'I' for Inactive)
REMARK    1  A    between atoms: C_4  and  S_1 
REMARK    2  A    between atoms: N_6  and  S_1 
REMARK    3  A    between atoms: N_3  and  C_2 
REMARK    4  A    between atoms: C_15  and  N_6 
REMARK    5  A    between atoms: C_16  and  N_6 
REMARK    6  A    between atoms: C_18  and  C_15 
REMARK    7  A    between atoms: C_17  and  C_16 
ROOT
ATOM      1  C   UNL d   1     -46.906  12.803  23.170  0.00  0.00     0.138 A 
ATOM      2  C   UNL d   1     -48.311  13.017  23.019  0.00  0.00     0.106 A 
ATOM      3  C   UNL d   1     -47.539  13.303  22.994  0.00  0.00     0.037 A 
ATOM      4  C   UNL d   1     -47.047  12.017  23.373  0.00  0.00     0.080 A 
ATOM      5  C   UNL d   1     -48.452  12.229  23.223  0.00  0.00     0.014 A 
ATOM      6  C   UNL d   1     -47.820  11.729  23.400  0.00  0.00     0.014 A 
ATOM      7 CL   UNL d   1     -46.415  11.517  23.550  0.00  0.00    -0.081 Cl
ENDROOT
BRANCH   2   8
ATOM      8  S   UNL d   1     -48.943  13.517  22.842  0.00  0.00     0.271 S 
ATOM      9  O   UNL d   1     -49.305  13.310  23.554  0.00  0.00    -0.200 OA
ATOM     10  O   UNL d   1     -48.580  13.723  22.131  0.00  0.00    -0.200 OA
BRANCH   8  11
ATOM     11  N   UNL d   1     -49.575  14.017  22.666  0.00  0.00    -0.229 N 
BRANCH  11  12
ATOM     12  C   UNL d   1     -49.926  13.988  21.918  0.00  0.00     0.092 C 
BRANCH  12  13
ATOM     13  C   UNL d   1     -50.696  13.701  21.836  0.00  0.00     0.020 C 
ATOM     14  C   UNL d   1     -51.064  13.703  21.097  0.00  0.00     0.002 C 
ENDBRANCH  12  13
ENDBRANCH  11  12
BRANCH  11  15
ATOM     15  C   UNL d   1     -49.855  14.544  23.233  0.00  0.00     0.092 C 
BRANCH  15  16
ATOM     16  C   UNL d   1     -49.807  15.358  23.101  0.00  0.00     0.020 C 
ATOM     17  C   UNL d   1     -50.058  15.890  23.689  0.00  0.00     0.002 C 
ENDBRANCH  15  16
ENDBRANCH  11  15
ENDBRANCH   8  11
ENDBRANCH   2   8
BRANCH   1  18
ATOM     18  N   UNL d   1     -46.130  13.095  23.143  0.00  0.00    -0.113 N 
ATOM     19  O   UNL d   1     -45.879  13.655  23.692  0.00  0.00    -0.532 OA
ATOM     20  O   UNL d   1     -45.610  12.823  22.564  0.00  0.00    -0.532 OA
ENDBRANCH   1  18
TORSDOF 7
ENDMDL
MODEL 2
REMARK VINA RESULT:      -6.2      1.802      3.961
REMARK  7 active torsions:
REMARK  status: ('A' for Active; 'I' for Inactive)
REMARK    1  A    between atoms: C_4  and  S_1 
REMARK    2  A    between atoms: N_6  and  S_1 
REMARK    3  A    between atoms: N_3  and  C_2 
REMARK    4  A    between atoms: C_15  and  N_6 
REMARK    5  A    between atoms: C_16  and  N_6 
REMARK    6  A    between atoms: C_18  and  C_15 
REMARK    7  A    between atoms: C_17  and  C_16 
ROOT
ATOM      1  C   UNL d   1     -49.969  13.882  22.349  0.00  0.00     0.138 A 
ATOM      2  C   UNL d   1     -48.559  13.868  22.577  0.00  0.00     0.106 A 
ATOM      3  C   UNL d   1     -49.263  13.464  22.434  0.00  0.00     0.037 A 
ATOM      4  C   UNL d   1     -49.972  14.703  22.408  0.00  0.00     0.080 A 
ATOM      5  C   UNL d   1     -48.561  14.692  22.636  0.00  0.00     0.014 A 
ATOM      6  C   UNL d   1     -49.267  15.110  22.551  0.00  0.00     0.014 A 
ATOM      7 CL   UNL d   1     -50.678  15.121  22.323  0.00  0.00    -0.081 Cl
ENDROOT
BRANCH   2   8
ATOM      8  S   UNL d   1     -47.853  13.450  22.662  0.00  0.00     0.271 S 
ATOM      9  O   UNL d   1     -47.904  13.203  21.876  0.00  0.00    -0.200 OA
ATOM     10  O   UNL d   1     -47.801  13.696  23.447  0.00  0.00    -0.200 OA
BRANCH   8  11
ATOM     11  N   UNL d   1     -47.146  13.032  22.746  0.00  0.00    -0.229 N 
BRANCH  11  12
ATOM     12  C   UNL d   1     -47.077  12.455  23.333  0.00  0.00     0.092 C 
BRANCH  12  13
ATOM     13  C   UNL d   1     -46.955  11.666  23.123  0.00  0.00     0.020 C 
ATOM     14  C   UNL d   1     -46.973  11.074  23.698  0.00  0.00     0.002 C 
ENDBRANCH  12  13
ENDBRANCH  11  12
BRANCH  11  15
ATOM     15  C   UNL d   1     -46.512  13.190  22.246  0.00  0.00     0.092 C 
BRANCH  15  16
ATOM     16  C   UNL d   1     -45.766  13.351  22.563  0.00  0.00     0.020 C 
ATOM     17  C   UNL d   1     -45.118  13.482  22.056  0.00  0.00     0.002 C 
ENDBRANCH  15  16
ENDBRANCH  11  15
ENDBRANCH   8  11
ENDBRANCH   2   8
BRANCH   1  18
ATOM     18  N   UNL d   1     -50.676  13.471  22.205  0.00  0.00    -0.113 N 
ATOM     19  O   UNL d   1     -50.990  13.441  21.445  0.00  0.00    -0.532 OA
ATOM     20  O   UNL d   1     -51.064  13.092  22.827  0.00  0.00    -0.532 OA
ENDBRANCH   1  18
TORSDOF 7
ENDMDL
MODEL 3
REMARK VINA RESULT:      -6.2      1.778      3.896
REMARK  7 active torsions:
REMARK  status: ('A' for Active; 'I' for Inactive)
REMARK    1  A    between atoms: C_4  and  S_1 
REMARK    2  A    between atoms: N_6  and  S_1 
REMARK    3  A    between atoms: N_3  and  C_2 
REMARK    4  A    between atoms: C_15  and  N_6 
REMARK    5  A    between atoms: C_16  and  N_6 
REMARK    6  A    between atoms: C_18  and  C_15 
REMARK    7  A    between atoms: C_17  and  C_16 
ROOT
ATOM      1  C   UNL d   1     -49.947  13.921  22.297  0.00  0.00     0.138 A 
ATOM      2  C   UNL d   1     -48.775  13.106  22.353  0.00  0.00     0.106 A 
ATOM      3  C   UNL d   1     -49.183  13.785  22.579  0.00  0.00     0.037 A 
ATOM      4  C   UNL d   1     -50.301  13.379  21.789  0.00  0.00     0.080 A 
ATOM      5  C   UNL d   1     -49.130  12.561  21.843  0.00  0.00     0.014 A 
ATOM      6  C   UNL d   1     -49.894  12.697  21.562  0.00  0.00     0.014 A 
ATOM      7 CL   UNL d   1     -51.064  13.515  21.507  0.00  0.00    -0.081 Cl
ENDROOT
BRANCH   2   8
ATOM      8  S   UNL d   1     -48.012  12.970  22.635  0.00  0.00     0.271 S 
ATOM      9  O   UNL d   1     -47.739  12.894  21.860  0.00  0.00    -0.200 OA
ATOM     10  O   UNL d   1     -48.284  13.046  23.410  0.00  0.00    -0.200 OA
BRANCH   8  11
ATOM     11  N   UNL d   1     -47.248  12.833  22.917  0.00  0.00    -0.229 N 
BRANCH  11  12
ATOM     12  C   UNL d   1     -46.778  13.469  23.157  0.00  0.00     0.092 C 
BRANCH  12  13
ATOM     13  C   UNL d   1     -46.128  13.695  22.701  0.00  0.00     0.020 C 
ATOM     14  C   UNL d   1     -45.721  14.392  22.873  0.00  0.00     0.002 C 
ENDBRANCH  12  13
ENDBRANCH  11  12
BRANCH  11  15
ATOM     15  C   UNL d   1     -46.956  12.065  22.960  0.00  0.00     0.092 C 
BRANCH  15  16
ATOM     16  C   UNL d   1     -46.628  11.785  23.664  0.00  0.00     0.020 C 
ATOM     17  C   UNL d   1     -46.300  11.021  23.697  0.00  0.00     0.002 C 
ENDBRANCH  15  16
ENDBRANCH  11  15
ENDBRANCH   8  11
ENDBRANCH   2   8
BRANCH   1  18
ATOM     18  N   UNL d   1     -50.355  14.607  22.527  0.00  0.00    -0.113 N 
ATOM     19  O   UNL d   1     -50.183  15.329  22.173  0.00  0.00    -0.532 OA
ATOM     20  O   UNL d   1     -50.933  14.561  23.113  0.00  0.00    -0.532 OA
ENDBRANCH   1  18
TORSDOF 7
ENDMDL
MODEL 4
REMARK VINA RESULT:      -5.1      8.423      9.914
REMARK  7 active torsions:
REMARK  status: ('A' for Active; 'I' for Inactive)
REMARK    1  A    between atoms: C_4  and  S_1 
REMARK    2  A    between atoms: N_6  and  S_1 
REMARK    3  A    between atoms: N_3  and  C_2 
REMARK    4  A    between atoms: C_15  and  N_6 
REMARK    5  A    between atoms: C_16  and  N_6 
REMARK    6  A    between atoms: C_18  and  C_15 
REMARK    7  A    between atoms: C_17  and  C_16 
ROOT
ATOM      1  C   UNL d   1     -39.932  14.766  17.363  0.00  0.00     0.138 A 
ATOM      2  C   UNL d   1     -39.664  14.427  18.725  0.00  0.00     0.106 A 
ATOM      3  C   UNL d   1     -40.081  14.869  18.168  0.00  0.00     0.037 A 
ATOM      4  C   UNL d   1     -39.367  14.221  17.115  0.00  0.00     0.080 A 
ATOM      5  C   UNL d   1     -39.097  13.880  18.476  0.00  0.00     0.014 A 
ATOM      6  C   UNL d   1     -38.948  13.777  17.671  0.00  0.00     0.014 A 
ATOM      7 CL   UNL d   1     -39.219  14.118  16.310  0.00  0.00    -0.081 Cl
ENDROOT
BRANCH   2   8
ATOM      8  S   UNL d   1     -39.813  14.530  19.530  0.00  0.00     0.271 S 
ATOM      9  O   UNL d   1     -39.172  15.046  19.582  0.00  0.00    -0.200 OA
ATOM     10  O   UNL d   1     -40.454  14.014  19.477  0.00  0.00    -0.200 OA
BRANCH   8  11
ATOM     11  N   UNL d   1     -39.962  14.633  20.335  0.00  0.00    -0.229 N 
BRANCH  11  12
ATOM     12  C   UNL d   1     -39.366  14.479  20.886  0.00  0.00     0.092 C 
BRANCH  12  13
ATOM     13  C   UNL d   1     -39.525  13.999  21.540  0.00  0.00     0.020 C 
ATOM     14  C   UNL d   1     -38.914  13.773  22.048  0.00  0.00     0.002 C 
ENDBRANCH  12  13
ENDBRANCH  11  12
BRANCH  11  15
ATOM     15  C   UNL d   1     -40.702  14.888  20.587  0.00  0.00     0.092 C 
BRANCH  15  16
ATOM     16  C   UNL d   1     -40.781  15.620  20.963  0.00  0.00     0.020 C 
ATOM     17  C   UNL d   1     -41.538  15.922  21.131  0.00  0.00     0.002 C 
ENDBRANCH  15  16
ENDBRANCH  11  15
ENDBRANCH   8  11
ENDBRANCH   2   8
BRANCH   1  18
ATOM     18  N   UNL d   1     -40.355  15.214  16.806  0.00  0.00    -0.113 N 
ATOM     19  O   UNL d   1     -40.039  15.916  16.514  0.00  0.00    -0.532 OA
ATOM     20  O   UNL d   1     -41.092  14.953  16.545  0.00  0.00    -0.532 OA
ENDBRANCH   1  18
TORSDOF 7
ENDMDL
MODEL 5
REMARK VINA RESULT:      -5.1      8.759      9.729
REMARK  7 active torsions:
REMARK  status: ('A' for Active; 'I' for Inactive)
REMARK    1  A    between atoms: C_4  and  S_1 
REMARK    2  A    between atoms: N_6  and  S_1 
REMARK    3  A    between atoms: N_3  and  C_2 
REMARK    4  A    between atoms: C_15  and  N_6 
REMARK    5  A    between atoms: C_16  and  N_6 
REMARK    6  A    between atoms: C_18  and  C_15 
REMARK    7  A    between atoms: C_17  and  C_16 
ROOT
ATOM      1  C   UNL d   1     -39.380  14.379  20.502  0.00  0.00     0.138 A 
ATOM      2  C   UNL d   1     -40.130  14.704  19.330  0.00  0.00     0.106 A 
ATOM      3  C   UNL d   1     -39.414  14.508  19.688  0.00  0.00     0.037 A 
ATOM      4  C   UNL d   1     -40.062  14.447  20.959  0.00  0.00     0.080 A 
ATOM      5  C   UNL d   1     -40.815  14.772  19.788  0.00  0.00     0.014 A 
ATOM      6  C   UNL d   1     -40.781  14.643  20.602  0.00  0.00     0.014 A 
ATOM      7 CL   UNL d   1     -40.028  14.318  21.773  0.00  0.00    -0.081 Cl
ENDROOT
BRANCH   2   8
ATOM      8  S   UNL d   1     -40.164  14.832  18.516  0.00  0.00     0.271 S 
ATOM      9  O   UNL d   1     -39.803  15.567  18.617  0.00  0.00    -0.200 OA
ATOM     10  O   UNL d   1     -40.526  14.098  18.415  0.00  0.00    -0.200 OA
BRANCH   8  11
ATOM     11  N   UNL d   1     -40.198  14.961  17.702  0.00  0.00    -0.229 N 
BRANCH  11  12
ATOM     12  C   UNL d   1     -40.928  15.083  17.334  0.00  0.00     0.092 C 
BRANCH  12  13
ATOM     13  C   UNL d   1     -41.070  15.785  16.923  0.00  0.00     0.020 C 
ATOM     14  C   UNL d   1     -41.803  15.918  16.567  0.00  0.00     0.002 C 
ENDBRANCH  12  13
ENDBRANCH  11  12
BRANCH  11  15
ATOM     15  C   UNL d   1     -39.506  14.967  17.256  0.00  0.00     0.092 C 
BRANCH  15  16
ATOM     16  C   UNL d   1     -39.402  14.420  16.647  0.00  0.00     0.020 C 
ATOM     17  C   UNL d   1     -38.681  14.393  16.230  0.00  0.00     0.002 C 
ENDBRANCH  15  16
ENDBRANCH  11  15
ENDBRANCH   8  11
ENDBRANCH   2   8
BRANCH   1  18
ATOM     18  N   UNL d   1     -38.656  14.181  20.858  0.00  0.00    -0.113 N 
ATOM     19  O   UNL d   1     -38.151  14.773  21.126  0.00  0.00    -0.532 OA
ATOM     20  O   UNL d   1     -38.444  13.389  20.942  0.00  0.00    -0.532 OA
ENDBRANCH   1  18
TORSDOF 7
ENDMDL
