MODEL 1
REMARK VINA RESULT:      -5.3      0.000      0.000
REMARK  3 active torsions:
REMARK  status: ('A' for Active; 'I' for Inactive)
REMARK    1  A    between atoms: C_6  and  N_1 
REMARK    2  A    between atoms: C_8  and  C_6 
REMARK    3  A    between atoms: O_15  and  C_9 
ROOT
ATOM      1  N   UNL d   1     -41.954-122.521 -50.185  0.00  0.00    -0.268 N 
ATOM      2  C   UNL d   1     -42.762-122.362 -50.249  0.00  0.00     0.296 A 
ATOM      3  S   UNL d   1     -43.141-122.707 -49.590  0.00  0.00    -0.025 SA
ATOM      4  C   UNL d   1     -41.834-122.962 -49.493  0.00  0.00     0.073 A 
ATOM      5  C   UNL d   1     -42.556-123.075 -49.131  0.00  0.00     0.050 A 
ATOM      6  O   UNL d   1     -43.121-121.938 -50.853  0.00  0.00    -0.259 OA
ATOM      7  C   UNL d   1     -41.149-123.272 -49.153  0.00  0.00     0.018 A 
ATOM      8  C   UNL d   1     -42.612-123.501 -48.421  0.00  0.00     0.008 A 
ATOM      9  C   UNL d   1     -41.195-123.697 -48.447  0.00  0.00     0.002 A 
ATOM     10  C   UNL d   1     -41.931-123.812 -48.078  0.00  0.00     0.001 A 
ENDROOT
BRANCH   1  11
ATOM     11  C   UNL d   1     -41.367-122.285 -50.715  0.00  0.00     0.084 C 
BRANCH  11  12
ATOM     12  C   UNL d   1     -41.323-122.628 -51.460  0.00  0.00     0.018 A 
ATOM     13  C   UNL d   1     -41.434-122.160 -52.131  0.00  0.00     0.004 A 
ATOM     14  C   UNL d   1     -41.390-122.499 -52.877  0.00  0.00     0.024 A 
ATOM     15  C   UNL d   1     -41.236-123.308 -52.962  0.00  0.00     0.094 A 
ATOM     16  C   UNL d   1     -41.125-123.774 -52.282  0.00  0.00     0.024 A 
ATOM     17  C   UNL d   1     -41.169-123.431 -51.537  0.00  0.00     0.004 A 
BRANCH  15  18
ATOM     18  O   UNL d   1     -41.185-123.682 -53.690  0.00  0.00    -0.328 OA
ATOM     19  C   UNL d   1     -41.472-123.312 -54.364  0.00  0.00     0.181 C 
ENDBRANCH  15  18
ENDBRANCH  11  12
ENDBRANCH   1  11
TORSDOF 3
ENDMDL
MODEL 2
REMARK VINA RESULT:      -4.4      1.726      4.436
REMARK  3 active torsions:
REMARK  status: ('A' for Active; 'I' for Inactive)
REMARK    1  A    between atoms: C_6  and  N_1 
REMARK    2  A    between atoms: C_8  and  C_6 
REMARK    3  A    between atoms: O_15  and  C_9 
ROOT
ATOM      1  N   UNL d   1     -41.435-122.488 -53.386  0.00  0.00    -0.268 N 
ATOM      2  C   UNL d   1     -41.411-123.312 -53.432  0.00  0.00     0.296 A 
ATOM      3  S   UNL d   1     -41.732-123.534 -54.171  0.00  0.00    -0.025 SA
ATOM      4  C   UNL d   1     -41.768-122.202 -54.090  0.00  0.00     0.073 A 
ATOM      5  C   UNL d   1     -41.948-122.838 -54.567  0.00  0.00     0.050 A 
ATOM      6  O   UNL d   1     -41.123-123.817 -52.853  0.00  0.00    -0.259 OA
ATOM      7  C   UNL d   1     -41.926-121.434 -54.348  0.00  0.00     0.018 A 
ATOM      8  C   UNL d   1     -42.291-122.723 -55.315  0.00  0.00     0.008 A 
ATOM      9  C   UNL d   1     -42.267-121.311 -55.090  0.00  0.00     0.002 A 
ATOM     10  C   UNL d   1     -42.450-121.959 -55.576  0.00  0.00     0.001 A 
ENDROOT
BRANCH   1  11
ATOM     11  C   UNL d   1     -41.175-122.028 -52.753  0.00  0.00     0.084 C 
BRANCH  11  12
ATOM     12  C   UNL d   1     -41.514-122.121 -52.010  0.00  0.00     0.018 A 
ATOM     13  C   UNL d   1     -41.126-122.574 -51.439  0.00  0.00     0.004 A 
ATOM     14  C   UNL d   1     -41.460-122.669 -50.696  0.00  0.00     0.024 A 
ATOM     15  C   UNL d   1     -42.186-122.314 -50.514  0.00  0.00     0.094 A 
ATOM     16  C   UNL d   1     -42.572-121.859 -51.093  0.00  0.00     0.024 A 
ATOM     17  C   UNL d   1     -42.233-121.766 -51.836  0.00  0.00     0.004 A 
BRANCH  15  18
ATOM     18  O   UNL d   1     -42.551-122.387 -49.783  0.00  0.00    -0.328 OA
ATOM     19  C   UNL d   1     -42.757-123.128 -49.498  0.00  0.00     0.181 C 
ENDBRANCH  15  18
ENDBRANCH  11  12
ENDBRANCH   1  11
TORSDOF 3
ENDMDL
MODEL 3
REMARK VINA RESULT:      -3.7      1.314      1.720
REMARK  3 active torsions:
REMARK  status: ('A' for Active; 'I' for Inactive)
REMARK    1  A    between atoms: C_6  and  N_1 
REMARK    2  A    between atoms: C_8  and  C_6 
REMARK    3  A    between atoms: O_15  and  C_9 
ROOT
ATOM      1  N   UNL d   1     -41.498-122.532 -51.454  0.00  0.00    -0.268 N 
ATOM      2  C   UNL d   1     -41.500-121.712 -51.358  0.00  0.00     0.296 A 
ATOM      3  S   UNL d   1     -41.949-121.537 -50.676  0.00  0.00    -0.025 SA
ATOM      4  C   UNL d   1     -41.942-122.863 -50.836  0.00  0.00     0.073 A 
ATOM      5  C   UNL d   1     -42.216-122.257 -50.362  0.00  0.00     0.050 A 
ATOM      6  O   UNL d   1     -41.126-121.171 -51.849  0.00  0.00    -0.259 OA
ATOM      7  C   UNL d   1     -42.126-123.646 -50.653  0.00  0.00     0.018 A 
ATOM      8  C   UNL d   1     -42.681-122.420 -49.694  0.00  0.00     0.008 A 
ATOM      9  C   UNL d   1     -42.588-123.817 -49.990  0.00  0.00     0.002 A 
ATOM     10  C   UNL d   1     -42.867-123.200 -49.508  0.00  0.00     0.001 A 
ENDROOT
BRANCH   1  11
ATOM     11  C   UNL d   1     -41.123-122.951 -52.056  0.00  0.00     0.084 C 
BRANCH  11  12
ATOM     12  C   UNL d   1     -41.406-122.909 -52.827  0.00  0.00     0.018 A 
ATOM     13  C   UNL d   1     -41.433-122.178 -53.210  0.00  0.00     0.004 A 
ATOM     14  C   UNL d   1     -41.715-122.130 -53.979  0.00  0.00     0.024 A 
ATOM     15  C   UNL d   1     -41.974-122.811 -54.373  0.00  0.00     0.094 A 
ATOM     16  C   UNL d   1     -41.945-123.544 -53.982  0.00  0.00     0.024 A 
ATOM     17  C   UNL d   1     -41.661-123.587 -53.212  0.00  0.00     0.004 A 
BRANCH  15  18
ATOM     18  O   UNL d   1     -42.262-122.803 -55.141  0.00  0.00    -0.328 OA
ATOM     19  C   UNL d   1     -42.094-122.171 -55.638  0.00  0.00     0.181 C 
ENDBRANCH  15  18
ENDBRANCH  11  12
ENDBRANCH   1  11
TORSDOF 3
ENDMDL
