MODEL 1
REMARK VINA RESULT:      23.9      0.000      0.000
REMARK  5 active torsions:
REMARK  status: ('A' for Active; 'I' for Inactive)
REMARK    1  A    between atoms: S_3  and  N_1 
REMARK    2  A    between atoms: C_7  and  C_4 
REMARK    3  A    between atoms: C_8  and  C_5 
REMARK    4  A    between atoms: O_17  and  C_12 
REMARK    5  A    between atoms: C_20  and  O_17 
ROOT
ATOM      1  N   UNL d   1      45.929 -18.616  44.279  0.00  0.00    -0.155 N 
ATOM      2  N   UNL d   1      45.784 -17.901  44.684  0.00  0.00    -0.155 NA
ATOM      3  C   UNL d   1      46.106 -18.433  43.513  0.00  0.00     0.098 A 
ATOM      4  C   UNL d   1      45.877 -17.294  44.148  0.00  0.00     0.110 A 
ATOM      5  C   UNL d   1      46.083 -17.616  43.395  0.00  0.00     0.041 A 
ENDROOT
BRANCH   3   6
ATOM      6  C   UNL d   1      46.287 -18.983  42.923  0.00  0.00     0.041 A 
ATOM      7  C   UNL d   1      46.367 -18.743  42.147  0.00  0.00     0.102 A 
ATOM      8  C   UNL d   1      46.547 -19.292  41.558  0.00  0.00     0.025 A 
ATOM      9  C   UNL d   1      46.647 -20.080  41.746  0.00  0.00     0.002 A 
ATOM     10  C   UNL d   1      46.567 -20.327  42.528  0.00  0.00     0.000 A 
ATOM     11  C   UNL d   1      46.386 -19.778  43.117  0.00  0.00     0.004 A 
BRANCH   7  12
ATOM     12  O   UNL d   1      46.267 -17.944  41.949  0.00  0.00    -0.305 OA
BRANCH  12  13
ATOM     13  C   UNL d   1      46.223 -17.718  41.161  0.00  0.00     0.123 C 
ATOM     14  C   UNL d   1      45.485 -17.641  40.792  0.00  0.00     0.029 C 
ENDBRANCH  12  13
ENDBRANCH   7  12
ENDBRANCH   3   6
BRANCH   1  15
ATOM     15  S   UNL d   1      45.894 -19.349  44.611  0.00  0.00     0.266 S 
ATOM     16  O   UNL d   1      45.118 -19.455  44.314  0.00  0.00    -0.203 OA
ATOM     17  O   UNL d   1      46.647 -19.283  44.917  0.00  0.00    -0.203 OA
ATOM     18  C   UNL d   1      45.835 -20.122  44.952  0.00  0.00     0.165 C 
ENDBRANCH   1  15
BRANCH   4  19
ATOM     19  C   UNL d   1      45.790 -16.482  44.290  0.00  0.00     0.049 A 
ATOM     20  S   UNL d   1      45.369 -16.185  44.926  0.00  0.00    -0.085 SA
ATOM     21  C   UNL d   1      45.412 -15.362  44.874  0.00  0.00     0.035 A 
ATOM     22  C   UNL d   1      45.857 -15.155  44.207  0.00  0.00     0.007 A 
ATOM     23  C   UNL d   1      46.094 -15.864  43.841  0.00  0.00     0.009 A 
ENDBRANCH   4  19
TORSDOF 5
ENDMDL
