MODEL 1
REMARK VINA RESULT:      -5.3      0.000      0.000
REMARK  5 active torsions:
REMARK  status: ('A' for Active; 'I' for Inactive)
REMARK    1  A    between atoms: S_5  and  C_2 
REMARK    2  A    between atoms: C_12  and  S_5 
REMARK    3  A    between atoms: N_11  and  C_8 
REMARK    4  A    between atoms: C_19  and  N_11 
REMARK    5  A    between atoms: C_32  and  C_26 
ROOT
ATOM      1  C   UNL d   1     -47.225  11.548  23.103  0.00  0.00     0.197 A 
ATOM      2  C   UNL d   1     -48.033  11.413  23.181  0.00  0.00     0.227 A 
ATOM      3  N   UNL d   1     -46.824  10.886  23.396  0.00  0.00    -0.192 N 
ATOM      4  N   UNL d   1     -46.797  12.190  22.800  0.00  0.00    -0.206 NA
ATOM      5  N   UNL d   1     -48.138  10.661  23.526  0.00  0.00    -0.115 NA
ATOM      6  N   UNL d   1     -47.384  10.339  23.657  0.00  0.00    -0.058 NA
ATOM      7  C   UNL d   1     -45.965  12.175  22.790  0.00  0.00     0.166 A 
ATOM      8  C   UNL d   1     -45.573  11.509  23.085  0.00  0.00     0.054 A 
ATOM      9  C   UNL d   1     -45.991  10.866  23.388  0.00  0.00     0.089 A 
ATOM     10  C   UNL d   1     -45.597  10.203  23.682  0.00  0.00     0.020 A 
ATOM     11  C   UNL d   1     -44.743  11.485  23.079  0.00  0.00     0.016 A 
ATOM     12  C   UNL d   1     -44.347  10.823  23.373  0.00  0.00     0.058 A 
ATOM     13  C   UNL d   1     -44.773  10.183  23.674  0.00  0.00     0.013 A 
ATOM     14 CL   UNL d   1     -43.523  10.806  23.363  0.00  0.00    -0.082 Cl
ENDROOT
BRANCH   2  15
ATOM     15  S   UNL d   1     -48.641  11.924  22.961  0.00  0.00     0.231 S 
ATOM     16  O   UNL d   1     -48.632  12.299  23.693  0.00  0.00    -0.215 OA
ATOM     17  O   UNL d   1     -48.647  11.546  22.229  0.00  0.00    -0.215 OA
BRANCH  15  18
ATOM     18  C   UNL d   1     -49.249  12.404  22.683  0.00  0.00     0.090 A 
ATOM     19  C   UNL d   1     -49.657  12.208  22.005  0.00  0.00     0.011 A 
ATOM     20  C   UNL d   1     -50.262  12.685  21.728  0.00  0.00     0.001 A 
ATOM     21  C   UNL d   1     -50.461  13.377  22.144  0.00  0.00     0.000 A 
ATOM     22  C   UNL d   1     -50.046  13.575  22.832  0.00  0.00     0.001 A 
ATOM     23  C   UNL d   1     -49.444  13.095  23.102  0.00  0.00     0.011 A 
BRANCH  21  24
ATOM     24  C   UNL d   1     -51.064  13.856  21.871  0.00  0.00     0.000 C 
ATOM     25  C   UNL d   1     -50.904  14.471  21.339  0.00  0.00     0.000 C 
ENDBRANCH  21  24
ENDBRANCH  15  18
ENDBRANCH   2  15
BRANCH   7  26
ATOM     26  N   UNL d   1     -45.539  12.814  22.489  0.00  0.00    -0.227 NA
BRANCH  26  27
ATOM     27  C   UNL d   1     -45.882  13.567  22.475  0.00  0.00     0.083 A 
ATOM     28  C   UNL d   1     -45.827  14.057  23.133  0.00  0.00     0.021 A 
ATOM     29  C   UNL d   1     -46.165  14.804  23.123  0.00  0.00     0.031 A 
ATOM     30  C   UNL d   1     -46.565  15.065  22.440  0.00  0.00     0.140 A 
ATOM     31  C   UNL d   1     -46.617  14.563  21.775  0.00  0.00     0.031 A 
ATOM     32  F   UNL d   1     -46.902  15.810  22.430  0.00  0.00    -0.204 F 
ATOM     33  C   UNL d   1     -46.273  13.819  21.803  0.00  0.00     0.021 A 
ENDBRANCH  26  27
ENDBRANCH   7  26
TORSDOF 5
ENDMDL
MODEL 2
REMARK VINA RESULT:      -4.9      2.579      5.168
REMARK  5 active torsions:
REMARK  status: ('A' for Active; 'I' for Inactive)
REMARK    1  A    between atoms: S_5  and  C_2 
REMARK    2  A    between atoms: C_12  and  S_5 
REMARK    3  A    between atoms: N_11  and  C_8 
REMARK    4  A    between atoms: C_19  and  N_11 
REMARK    5  A    between atoms: C_32  and  C_26 
ROOT
ATOM      1  C   UNL d   1     -47.452  14.356  22.830  0.00  0.00     0.197 A 
ATOM      2  C   UNL d   1     -46.663  14.467  22.624  0.00  0.00     0.227 A 
ATOM      3  N   UNL d   1     -47.841  15.083  22.764  0.00  0.00    -0.192 N 
ATOM      4  N   UNL d   1     -47.871  13.683  23.072  0.00  0.00    -0.206 NA
ATOM      5  N   UNL d   1     -46.558  15.271  22.427  0.00  0.00    -0.115 NA
ATOM      6  N   UNL d   1     -47.293  15.647  22.516  0.00  0.00    -0.058 NA
ATOM      7  C   UNL d   1     -48.682  13.733  23.248  0.00  0.00     0.166 A 
ATOM      8  C   UNL d   1     -49.063  14.464  23.179  0.00  0.00     0.054 A 
ATOM      9  C   UNL d   1     -48.653  15.138  22.939  0.00  0.00     0.089 A 
ATOM     10  C   UNL d   1     -49.036  15.866  22.871  0.00  0.00     0.020 A 
ATOM     11  C   UNL d   1     -49.873  14.523  23.353  0.00  0.00     0.016 A 
ATOM     12  C   UNL d   1     -50.257  15.251  23.285  0.00  0.00     0.058 A 
ATOM     13  C   UNL d   1     -49.840  15.921  23.045  0.00  0.00     0.013 A 
ATOM     14 CL   UNL d   1     -51.061  15.303  23.460  0.00  0.00    -0.082 Cl
ENDROOT
BRANCH   2  15
ATOM     15  S   UNL d   1     -46.071  13.894  22.611  0.00  0.00     0.231 S 
ATOM     16  O   UNL d   1     -45.905  14.003  23.409  0.00  0.00    -0.215 OA
ATOM     17  O   UNL d   1     -46.240  13.787  21.812  0.00  0.00    -0.215 OA
BRANCH  15  18
ATOM     18  C   UNL d   1     -45.493  13.313  22.534  0.00  0.00     0.090 A 
ATOM     19  C   UNL d   1     -45.475  12.676  23.042  0.00  0.00     0.011 A 
ATOM     20  C   UNL d   1     -44.900  12.097  22.967  0.00  0.00     0.001 A 
ATOM     21  C   UNL d   1     -44.330  12.162  22.366  0.00  0.00     0.000 A 
ATOM     22  C   UNL d   1     -44.350  12.809  21.851  0.00  0.00     0.001 A 
ATOM     23  C   UNL d   1     -44.926  13.383  21.932  0.00  0.00     0.011 A 
BRANCH  21  24
ATOM     24  C   UNL d   1     -43.755  11.586  22.288  0.00  0.00     0.000 C 
ATOM     25  C   UNL d   1     -43.482  11.173  22.951  0.00  0.00     0.000 C 
ENDBRANCH  21  24
ENDBRANCH  15  18
ENDBRANCH   2  15
BRANCH   7  26
ATOM     26  N   UNL d   1     -49.100  13.063  23.489  0.00  0.00    -0.227 NA
BRANCH  26  27
ATOM     27  C   UNL d   1     -48.904  12.322  23.178  0.00  0.00     0.083 A 
ATOM     28  C   UNL d   1     -48.532  11.762  23.653  0.00  0.00     0.021 A 
ATOM     29  C   UNL d   1     -48.335  11.026  23.350  0.00  0.00     0.031 A 
ATOM     30  C   UNL d   1     -48.515  10.848  22.556  0.00  0.00     0.140 A 
ATOM     31  C   UNL d   1     -48.893  11.419  22.079  0.00  0.00     0.031 A 
ATOM     32  F   UNL d   1     -48.320  10.113  22.253  0.00  0.00    -0.204 F 
ATOM     33  C   UNL d   1     -49.082  12.150  22.400  0.00  0.00     0.021 A 
ENDBRANCH  26  27
ENDBRANCH   7  26
TORSDOF 5
ENDMDL
MODEL 3
REMARK VINA RESULT:      -3.2      8.842     10.022
REMARK  5 active torsions:
REMARK  status: ('A' for Active; 'I' for Inactive)
REMARK    1  A    between atoms: S_5  and  C_2 
REMARK    2  A    between atoms: C_12  and  S_5 
REMARK    3  A    between atoms: N_11  and  C_8 
REMARK    4  A    between atoms: C_19  and  N_11 
REMARK    5  A    between atoms: C_32  and  C_26 
ROOT
ATOM      1  C   UNL d   1     -38.552  13.592  18.418  0.00  0.00     0.197 A 
ATOM      2  C   UNL d   1     -38.475  13.279  19.175  0.00  0.00     0.227 A 
ATOM      3  N   UNL d   1     -38.247  13.041  17.881  0.00  0.00    -0.192 N 
ATOM      4  N   UNL d   1     -38.861  14.310  18.143  0.00  0.00    -0.206 NA
ATOM      5  N   UNL d   1     -38.120  12.528  19.111  0.00  0.00    -0.115 NA
ATOM      6  N   UNL d   1     -37.981  12.386  18.305  0.00  0.00    -0.058 NA
ATOM      7  C   UNL d   1     -38.868  14.482  17.330  0.00  0.00     0.166 A 
ATOM      8  C   UNL d   1     -38.561  13.926  16.800  0.00  0.00     0.054 A 
ATOM      9  C   UNL d   1     -38.251  13.209  17.065  0.00  0.00     0.089 A 
ATOM     10  C   UNL d   1     -37.946  12.656  16.533  0.00  0.00     0.020 A 
ATOM     11  C   UNL d   1     -38.563  14.090  15.986  0.00  0.00     0.016 A 
ATOM     12  C   UNL d   1     -38.258  13.538  15.453  0.00  0.00     0.058 A 
ATOM     13  C   UNL d   1     -37.950  12.823  15.726  0.00  0.00     0.013 A 
ATOM     14 CL   UNL d   1     -38.264  13.707  14.646  0.00  0.00    -0.082 Cl
ENDROOT
BRANCH   2  15
ATOM     15  S   UNL d   1     -38.706  13.637  19.881  0.00  0.00     0.231 S 
ATOM     16  O   UNL d   1     -39.453  13.293  19.847  0.00  0.00    -0.215 OA
ATOM     17  O   UNL d   1     -37.958  13.979  19.912  0.00  0.00    -0.215 OA
BRANCH  15  18
ATOM     18  C   UNL d   1     -38.877  14.021  20.589  0.00  0.00     0.090 A 
ATOM     19  C   UNL d   1     -39.443  14.606  20.618  0.00  0.00     0.011 A 
ATOM     20  C   UNL d   1     -39.615  14.989  21.322  0.00  0.00     0.001 A 
ATOM     21  C   UNL d   1     -39.205  14.777  22.013  0.00  0.00     0.000 A 
ATOM     22  C   UNL d   1     -38.630  14.182  21.982  0.00  0.00     0.001 A 
ATOM     23  C   UNL d   1     -38.464  13.805  21.277  0.00  0.00     0.011 A 
BRANCH  21  24
ATOM     24  C   UNL d   1     -39.372  15.156  22.717  0.00  0.00     0.000 C 
ATOM     25  C   UNL d   1     -38.776  15.282  23.277  0.00  0.00     0.000 C 
ENDBRANCH  21  24
ENDBRANCH  15  18
ENDBRANCH   2  15
BRANCH   7  26
ATOM     26  N   UNL d   1     -39.176  15.197  17.057  0.00  0.00    -0.227 NA
BRANCH  26  27
ATOM     27  C   UNL d   1     -39.976  15.373  17.173  0.00  0.00     0.083 A 
ATOM     28  C   UNL d   1     -40.219  15.746  17.865  0.00  0.00     0.021 A 
ATOM     29  C   UNL d   1     -41.011  15.922  17.984  0.00  0.00     0.031 A 
ATOM     30  C   UNL d   1     -41.569  15.720  17.400  0.00  0.00     0.140 A 
ATOM     31  C   UNL d   1     -41.317  15.341  16.701  0.00  0.00     0.031 A 
ATOM     32  F   UNL d   1     -42.360  15.895  17.519  0.00  0.00    -0.204 F 
ATOM     33  C   UNL d   1     -40.520  15.173  16.598  0.00  0.00     0.021 A 
ENDBRANCH  26  27
ENDBRANCH   7  26
TORSDOF 5
ENDMDL
