MODEL 1
REMARK VINA RESULT:      -2.7      0.000      0.000
REMARK  4 active torsions:
REMARK  status: ('A' for Active; 'I' for Inactive)
REMARK    1  A    between atoms: N_4  and  C_1 
REMARK       I    between atoms: C_10  and  N_4 
REMARK    2  A    between atoms: C_7  and  C_8 
REMARK    3  A    between atoms: O_15  and  C_7 
REMARK    4  A    between atoms: C_17  and  O_15 
ROOT
ATOM      1  C   UNL d   1      29.398  16.096 -24.175  0.00  0.00     0.197 A 
ATOM      2  N   UNL d   1      29.558  16.622 -24.804  0.00  0.00    -0.221 NA
ATOM      3  S   UNL d   1      30.034  16.129 -23.652  0.00  0.00    -0.047 SA
ATOM      4  C   UNL d   1      30.590  16.669 -23.942  0.00  0.00     0.050 A 
ATOM      5  C   UNL d   1      30.294  16.976 -24.660  0.00  0.00     0.090 A 
ATOM      6  C   UNL d   1      31.751  17.473 -24.077  0.00  0.00     0.064 A 
ATOM      7  C   UNL d   1      31.321  16.922 -23.655  0.00  0.00     0.013 A 
ATOM      8  C   UNL d   1      30.735  17.529 -25.076  0.00  0.00     0.020 A 
ATOM      9  C   UNL d   1      31.455  17.780 -24.795  0.00  0.00     0.007 A 
ENDROOT
BRANCH   6  10
ATOM     10  C   UNL d   1      32.485  17.736 -23.801  0.00  0.00     0.300 C 
ATOM     11  O   UNL d   1      33.174  17.447 -24.124  0.00  0.00    -0.259 OA
BRANCH  10  12
ATOM     12  O   UNL d   1      32.508  18.298 -23.189  0.00  0.00    -0.271 OA
BRANCH  12  13
ATOM     13  C   UNL d   1      33.226  18.644 -22.968  0.00  0.00     0.126 C 
ATOM     14  C   UNL d   1      33.234  19.291 -22.474  0.00  0.00     0.029 C 
ENDBRANCH  12  13
ENDBRANCH  10  12
ENDBRANCH   6  10
BRANCH   1  15
ATOM     15  N   UNL d   1      28.722  15.627 -24.097  0.00  0.00    -0.183 NA
ATOM     16  C   UNL d   1      28.065  15.914 -23.688  0.00  0.00     0.281 C 
ATOM     17  O   UNL d   1      28.085  16.679 -23.354  0.00  0.00    -0.265 OA
ATOM     18  C   UNL d   1      27.399  15.453 -23.611  0.00  0.00     0.068 C 
ENDBRANCH   1  15
TORSDOF 4
ENDMDL
MODEL 2
REMARK VINA RESULT:      -2.6      5.711      7.726
REMARK  4 active torsions:
REMARK  status: ('A' for Active; 'I' for Inactive)
REMARK    1  A    between atoms: N_4  and  C_1 
REMARK       I    between atoms: C_10  and  N_4 
REMARK    2  A    between atoms: C_7  and  C_8 
REMARK    3  A    between atoms: O_15  and  C_7 
REMARK    4  A    between atoms: C_17  and  O_15 
ROOT
ATOM      1  C   UNL d   1      32.881  23.337 -18.636  0.00  0.00     0.197 A 
ATOM      2  N   UNL d   1      32.366  23.687 -19.192  0.00  0.00    -0.221 NA
ATOM      3  S   UNL d   1      33.229  22.681 -18.994  0.00  0.00    -0.047 SA
ATOM      4  C   UNL d   1      32.941  22.614 -19.767  0.00  0.00     0.050 A 
ATOM      5  C   UNL d   1      32.403  23.241 -19.890  0.00  0.00     0.090 A 
ATOM      6  C   UNL d   1      32.712  22.157 -21.090  0.00  0.00     0.064 A 
ATOM      7  C   UNL d   1      33.091  22.074 -20.371  0.00  0.00     0.013 A 
ATOM      8  C   UNL d   1      32.028  23.315 -20.617  0.00  0.00     0.020 A 
ATOM      9  C   UNL d   1      32.175  22.784 -21.214  0.00  0.00     0.007 A 
ENDROOT
BRANCH   6  10
ATOM     10  C   UNL d   1      32.853  21.622 -21.705  0.00  0.00     0.300 C 
ATOM     11  O   UNL d   1      32.936  21.887 -22.470  0.00  0.00    -0.259 OA
BRANCH  10  12
ATOM     12  O   UNL d   1      32.910  20.812 -21.530  0.00  0.00    -0.271 OA
BRANCH  12  13
ATOM     13  C   UNL d   1      32.964  20.256 -22.140  0.00  0.00     0.126 C 
ATOM     14  C   UNL d   1      32.972  19.460 -21.970  0.00  0.00     0.029 C 
ENDBRANCH  12  13
ENDBRANCH  10  12
ENDBRANCH   6  10
BRANCH   1  15
ATOM     15  N   UNL d   1      33.014  23.603 -17.864  0.00  0.00    -0.183 NA
ATOM     16  C   UNL d   1      32.552  23.319 -17.243  0.00  0.00     0.281 C 
ATOM     17  O   UNL d   1      31.949  22.761 -17.395  0.00  0.00    -0.265 OA
ATOM     18  C   UNL d   1      32.683  23.582 -16.484  0.00  0.00     0.068 C 
ENDBRANCH   1  15
TORSDOF 4
ENDMDL
MODEL 3
REMARK VINA RESULT:      -2.0      4.077      5.692
REMARK  4 active torsions:
REMARK  status: ('A' for Active; 'I' for Inactive)
REMARK    1  A    between atoms: N_4  and  C_1 
REMARK       I    between atoms: C_10  and  N_4 
REMARK    2  A    between atoms: C_7  and  C_8 
REMARK    3  A    between atoms: O_15  and  C_7 
REMARK    4  A    between atoms: C_17  and  O_15 
ROOT
ATOM      1  C   UNL d   1      33.073  21.751 -21.064  0.00  0.00     0.197 A 
ATOM      2  N   UNL d   1      33.151  21.910 -21.880  0.00  0.00    -0.221 NA
ATOM      3  S   UNL d   1      33.045  20.933 -20.969  0.00  0.00    -0.047 SA
ATOM      4  C   UNL d   1      33.104  20.576 -21.713  0.00  0.00     0.050 A 
ATOM      5  C   UNL d   1      33.170  21.184 -22.281  0.00  0.00     0.090 A 
ATOM      6  C   UNL d   1      33.174  19.605 -22.746  0.00  0.00     0.064 A 
ATOM      7  C   UNL d   1      33.106  19.786 -21.952  0.00  0.00     0.013 A 
ATOM      8  C   UNL d   1      33.238  20.991 -23.076  0.00  0.00     0.020 A 
ATOM      9  C   UNL d   1      33.241  20.214 -23.314  0.00  0.00     0.007 A 
ENDROOT
BRANCH   6  10
ATOM     10  C   UNL d   1      33.178  18.818 -23.000  0.00  0.00     0.300 C 
ATOM     11  O   UNL d   1      33.184  18.211 -22.458  0.00  0.00    -0.259 OA
BRANCH  10  12
ATOM     12  O   UNL d   1      33.176  18.658 -23.815  0.00  0.00    -0.271 OA
BRANCH  12  13
ATOM     13  C   UNL d   1      33.087  17.882 -24.087  0.00  0.00     0.126 C 
ATOM     14  C   UNL d   1      33.038  17.730 -24.885  0.00  0.00     0.029 C 
ENDBRANCH  12  13
ENDBRANCH  10  12
ENDBRANCH   6  10
BRANCH   1  15
ATOM     15  N   UNL d   1      33.032  22.316 -20.462  0.00  0.00    -0.183 NA
ATOM     16  C   UNL d   1      32.343  22.758 -20.357  0.00  0.00     0.281 C 
ATOM     17  O   UNL d   1      31.688  22.634 -20.859  0.00  0.00    -0.265 OA
ATOM     18  C   UNL d   1      32.303  23.315 -19.764  0.00  0.00     0.068 C 
ENDBRANCH   1  15
TORSDOF 4
ENDMDL
MODEL 4
REMARK VINA RESULT:      -1.1      2.397      3.635
REMARK  4 active torsions:
REMARK  status: ('A' for Active; 'I' for Inactive)
REMARK    1  A    between atoms: N_4  and  C_1 
REMARK       I    between atoms: C_10  and  N_4 
REMARK    2  A    between atoms: C_7  and  C_8 
REMARK    3  A    between atoms: O_15  and  C_7 
REMARK    4  A    between atoms: C_17  and  O_15 
ROOT
ATOM      1  C   UNL d   1      32.686  17.804 -23.690  0.00  0.00     0.197 A 
ATOM      2  N   UNL d   1      32.927  18.375 -24.250  0.00  0.00    -0.221 NA
ATOM      3  S   UNL d   1      32.612  18.182 -22.962  0.00  0.00    -0.047 SA
ATOM      4  C   UNL d   1      32.804  18.982 -23.055  0.00  0.00     0.050 A 
ATOM      5  C   UNL d   1      33.000  19.102 -23.858  0.00  0.00     0.090 A 
ATOM      6  C   UNL d   1      33.044  20.356 -22.791  0.00  0.00     0.064 A 
ATOM      7  C   UNL d   1      32.828  19.614 -22.525  0.00  0.00     0.013 A 
ATOM      8  C   UNL d   1      33.216  19.852 -24.115  0.00  0.00     0.020 A 
ATOM      9  C   UNL d   1      33.240  20.476 -23.594  0.00  0.00     0.007 A 
ENDROOT
BRANCH   6  10
ATOM     10  C   UNL d   1      33.071  20.998 -22.271  0.00  0.00     0.300 C 
ATOM     11  O   UNL d   1      33.175  21.754 -22.555  0.00  0.00    -0.259 OA
BRANCH  10  12
ATOM     12  O   UNL d   1      32.992  20.860 -21.456  0.00  0.00    -0.271 OA
BRANCH  12  13
ATOM     13  C   UNL d   1      33.199  21.447 -20.911  0.00  0.00     0.126 C 
ATOM     14  C   UNL d   1      32.668  21.683 -20.341  0.00  0.00     0.029 C 
ENDBRANCH  12  13
ENDBRANCH  10  12
ENDBRANCH   6  10
BRANCH   1  15
ATOM     15  N   UNL d   1      32.546  17.004 -23.844  0.00  0.00    -0.183 NA
ATOM     16  C   UNL d   1      31.795  16.753 -24.075  0.00  0.00     0.281 C 
ATOM     17  O   UNL d   1      31.176  17.307 -24.153  0.00  0.00    -0.265 OA
ATOM     18  C   UNL d   1      31.658  15.965 -24.226  0.00  0.00     0.068 C 
ENDBRANCH   1  15
TORSDOF 4
ENDMDL
MODEL 5
REMARK VINA RESULT:      -1.0      3.586      5.356
REMARK  4 active torsions:
REMARK  status: ('A' for Active; 'I' for Inactive)
REMARK    1  A    between atoms: N_4  and  C_1 
REMARK       I    between atoms: C_10  and  N_4 
REMARK    2  A    between atoms: C_7  and  C_8 
REMARK    3  A    between atoms: O_15  and  C_7 
REMARK    4  A    between atoms: C_17  and  O_15 
ROOT
ATOM      1  C   UNL d   1      33.039  19.538 -22.583  0.00  0.00     0.197 A 
ATOM      2  N   UNL d   1      33.180  20.160 -23.122  0.00  0.00    -0.221 NA
ATOM      3  S   UNL d   1      32.922  19.872 -21.839  0.00  0.00    -0.047 SA
ATOM      4  C   UNL d   1      32.987  20.695 -21.903  0.00  0.00     0.050 A 
ATOM      5  C   UNL d   1      33.148  20.874 -22.702  0.00  0.00     0.090 A 
ATOM      6  C   UNL d   1      33.018  22.078 -21.586  0.00  0.00     0.064 A 
ATOM      7  C   UNL d   1      32.923  21.302 -21.348  0.00  0.00     0.013 A 
ATOM      8  C   UNL d   1      33.241  21.657 -22.931  0.00  0.00     0.020 A 
ATOM      9  C   UNL d   1      33.178  22.257 -22.386  0.00  0.00     0.007 A 
ENDROOT
BRANCH   6  10
ATOM     10  C   UNL d   1      32.956  22.696 -21.041  0.00  0.00     0.300 C 
ATOM     11  O   UNL d   1      33.133  23.460 -21.262  0.00  0.00    -0.259 OA
BRANCH  10  12
ATOM     12  O   UNL d   1      32.711  22.527 -20.266  0.00  0.00    -0.271 OA
BRANCH  12  13
ATOM     13  C   UNL d   1      32.881  23.053 -19.650  0.00  0.00     0.126 C 
ATOM     14  C   UNL d   1      32.292  23.299 -19.146  0.00  0.00     0.029 C 
ENDBRANCH  12  13
ENDBRANCH  10  12
ENDBRANCH   6  10
BRANCH   1  15
ATOM     15  N   UNL d   1      33.021  18.732 -22.767  0.00  0.00    -0.183 NA
ATOM     16  C   UNL d   1      32.479  18.447 -23.320  0.00  0.00     0.281 C 
ATOM     17  O   UNL d   1      31.949  18.972 -23.693  0.00  0.00    -0.265 OA
ATOM     18  C   UNL d   1      32.462  17.653 -23.501  0.00  0.00     0.068 C 
ENDBRANCH   1  15
TORSDOF 4
ENDMDL
MODEL 6
REMARK VINA RESULT:      -0.7      5.113      7.068
REMARK  4 active torsions:
REMARK  status: ('A' for Active; 'I' for Inactive)
REMARK    1  A    between atoms: N_4  and  C_1 
REMARK       I    between atoms: C_10  and  N_4 
REMARK    2  A    between atoms: C_7  and  C_8 
REMARK    3  A    between atoms: O_15  and  C_7 
REMARK    4  A    between atoms: C_17  and  O_15 
ROOT
ATOM      1  C   UNL d   1      32.795  21.287 -21.482  0.00  0.00     0.197 A 
ATOM      2  N   UNL d   1      32.348  21.991 -21.526  0.00  0.00    -0.221 NA
ATOM      3  S   UNL d   1      33.097  21.229 -20.718  0.00  0.00    -0.047 SA
ATOM      4  C   UNL d   1      32.847  21.886 -20.281  0.00  0.00     0.050 A 
ATOM      5  C   UNL d   1      32.380  22.361 -20.785  0.00  0.00     0.090 A 
ATOM      6  C   UNL d   1      32.649  22.812 -19.225  0.00  0.00     0.064 A 
ATOM      7  C   UNL d   1      32.978  22.117 -19.500  0.00  0.00     0.013 A 
ATOM      8  C   UNL d   1      32.054  23.057 -20.498  0.00  0.00     0.020 A 
ATOM      9  C   UNL d   1      32.182  23.287 -19.729  0.00  0.00     0.007 A 
ENDROOT
BRANCH   6  10
ATOM     10  C   UNL d   1      32.772  23.056 -18.444  0.00  0.00     0.300 C 
ATOM     11  O   UNL d   1      33.241  23.702 -18.284  0.00  0.00    -0.259 OA
BRANCH  10  12
ATOM     12  O   UNL d   1      32.410  22.633 -17.828  0.00  0.00    -0.271 OA
BRANCH  12  13
ATOM     13  C   UNL d   1      32.398  22.942 -17.061  0.00  0.00     0.126 C 
ATOM     14  C   UNL d   1      32.675  22.500 -16.436  0.00  0.00     0.029 C 
ENDBRANCH  12  13
ENDBRANCH  10  12
ENDBRANCH   6  10
BRANCH   1  15
ATOM     15  N   UNL d   1      32.910  20.747 -22.098  0.00  0.00    -0.183 NA
ATOM     16  C   UNL d   1      33.017  19.946 -21.930  0.00  0.00     0.281 C 
ATOM     17  O   UNL d   1      33.007  19.681 -21.138  0.00  0.00    -0.265 OA
ATOM     18  C   UNL d   1      33.130  19.415 -22.536  0.00  0.00     0.068 C 
ENDBRANCH   1  15
TORSDOF 4
ENDMDL
MODEL 7
REMARK VINA RESULT:      -0.3      2.197      4.255
REMARK  4 active torsions:
REMARK  status: ('A' for Active; 'I' for Inactive)
REMARK    1  A    between atoms: N_4  and  C_1 
REMARK       I    between atoms: C_10  and  N_4 
REMARK    2  A    between atoms: C_7  and  C_8 
REMARK    3  A    between atoms: O_15  and  C_7 
REMARK    4  A    between atoms: C_17  and  O_15 
ROOT
ATOM      1  C   UNL d   1      32.881  18.837 -22.729  0.00  0.00     0.197 A 
ATOM      2  N   UNL d   1      33.186  18.059 -22.740  0.00  0.00    -0.221 NA
ATOM      3  S   UNL d   1      32.162  18.830 -23.131  0.00  0.00    -0.047 SA
ATOM      4  C   UNL d   1      32.011  18.061 -23.396  0.00  0.00     0.050 A 
ATOM      5  C   UNL d   1      32.649  17.580 -23.152  0.00  0.00     0.090 A 
ATOM      6  C   UNL d   1      31.395  16.935 -24.002  0.00  0.00     0.064 A 
ATOM      7  C   UNL d   1      31.386  17.732 -23.821  0.00  0.00     0.013 A 
ATOM      8  C   UNL d   1      32.649  16.781 -23.338  0.00  0.00     0.020 A 
ATOM      9  C   UNL d   1      32.033  16.455 -23.758  0.00  0.00     0.007 A 
ENDROOT
BRANCH   6  10
ATOM     10  C   UNL d   1      30.775  16.592 -24.428  0.00  0.00     0.300 C 
ATOM     11  O   UNL d   1      30.927  16.154 -25.097  0.00  0.00    -0.259 OA
BRANCH  10  12
ATOM     12  O   UNL d   1      29.995  16.701 -24.162  0.00  0.00    -0.271 OA
BRANCH  12  13
ATOM     13  C   UNL d   1      29.357  16.490 -24.644  0.00  0.00     0.126 C 
ATOM     14  C   UNL d   1      28.632  16.846 -24.544  0.00  0.00     0.029 C 
ENDBRANCH  12  13
ENDBRANCH  10  12
ENDBRANCH   6  10
BRANCH   1  15
ATOM     15  N   UNL d   1      33.240  19.493 -22.376  0.00  0.00    -0.183 NA
ATOM     16  C   UNL d   1      32.778  20.068 -22.007  0.00  0.00     0.281 C 
ATOM     17  O   UNL d   1      31.947  19.987 -21.991  0.00  0.00    -0.265 OA
ATOM     18  C   UNL d   1      33.131  20.713 -21.659  0.00  0.00     0.068 C 
ENDBRANCH   1  15
TORSDOF 4
ENDMDL
