MODEL 1
REMARK VINA RESULT:      65.6      0.000      0.000
REMARK  2 active torsions:
REMARK  status: ('A' for Active; 'I' for Inactive)
REMARK    1  A    between atoms: C_3  and  C_1 
REMARK       I    between atoms: N_6  and  C_3 
REMARK    2  A    between atoms: C_16  and  N_7 
ROOT
ATOM      1  C   UNL d   1     -54.759-102.003 -40.905  0.00  0.00     0.270 C 
ATOM      2  N   UNL d   1     -54.804-101.523 -41.577  0.00  0.00    -0.269 N 
ATOM      3  N   UNL d   1     -54.895-100.561 -42.908  0.00  0.00    -0.301 N 
ATOM      4  O   UNL d   1     -54.714-102.823 -40.989  0.00  0.00    -0.266 OA
ATOM      5  C   UNL d   1     -54.849-100.705 -41.489  0.00  0.00     0.102 A 
ATOM      6  C   UNL d   1     -54.805-101.859 -42.323  0.00  0.00     0.102 A 
ATOM      7  C   UNL d   1     -54.850-101.377 -42.992  0.00  0.00     0.100 A 
ATOM      8  C   UNL d   1     -54.895-100.222 -42.153  0.00  0.00     0.100 A 
ENDROOT
BRANCH   1   9
ATOM      9  C   UNL d   1     -54.759-101.661 -40.154  0.00  0.00     0.120 A 
ATOM     10  C   UNL d   1     -54.752-100.841 -40.069  0.00  0.00     0.305 A 
ATOM     11  O   UNL d   1     -54.752-100.495 -39.309  0.00  0.00    -0.273 OA
ATOM     12  O   UNL d   1     -54.746-100.361 -40.740  0.00  0.00    -0.259 OA
ATOM     13  C   UNL d   1     -54.758-100.981 -38.636  0.00  0.00     0.103 A 
ATOM     14  C   UNL d   1     -54.765-101.801 -38.716  0.00  0.00     0.023 A 
ATOM     15  C   UNL d   1     -54.758-100.639 -37.885  0.00  0.00     0.025 A 
ATOM     16  C   UNL d   1     -54.765-102.149 -39.475  0.00  0.00     0.012 A 
ATOM     17  C   UNL d   1     -54.771-102.281 -38.045  0.00  0.00     0.002 A 
ATOM     18  C   UNL d   1     -54.771-101.939 -37.297  0.00  0.00     0.000 A 
ATOM     19  C   UNL d   1     -54.764-101.119 -37.217  0.00  0.00     0.002 A 
ENDBRANCH   1   9
BRANCH   3  20
ATOM     20  C   UNL d   1     -54.941-100.075 -43.571  0.00  0.00     0.064 A 
ATOM     21  C   UNL d   1     -55.173-100.382 -44.302  0.00  0.00     0.018 A 
ATOM     22  C   UNL d   1     -55.218 -99.892 -44.963  0.00  0.00     0.002 A 
ATOM     23  C   UNL d   1     -55.029 -99.093 -44.892  0.00  0.00     0.000 A 
ATOM     24  C   UNL d   1     -54.796 -98.783 -44.161  0.00  0.00     0.002 A 
ATOM     25  C   UNL d   1     -54.753 -99.276 -43.503  0.00  0.00     0.018 A 
ENDBRANCH   3  20
TORSDOF 2
ENDMDL
