MODEL 1
REMARK VINA RESULT:      -9.8      0.000      0.000
REMARK  7 active torsions:
REMARK  status: ('A' for Active; 'I' for Inactive)
REMARK    1  A    between atoms: N_2  and  S_1 
REMARK    2  A    between atoms: C_5  and  S_1 
REMARK    3  A    between atoms: C_3  and  N_2 
REMARK    4  A    between atoms: C_4  and  C_3 
REMARK    5  A    between atoms: C_8  and  C_3 
REMARK    6  A    between atoms: C_17  and  C_8 
REMARK    7  A    between atoms: C_9  and  C_10 
ROOT
ATOM      1  S   UNL d   1      54.063  33.094  53.729  0.00  0.00     0.285 S 
ATOM      2  O   UNL d   1      54.838  32.855  53.611  0.00  0.00    -0.198 OA
ATOM      3  O   UNL d   1      54.313  33.890  53.760  0.00  0.00    -0.198 OA
ENDROOT
BRANCH   1   4
ATOM      4  N   UNL d   1      53.290  33.332  53.847  0.00  0.00    -0.152 NA
BRANCH   4   5
ATOM      5  C   UNL d   1      53.101  34.120  53.860  0.00  0.00     0.158 C 
BRANCH   5   6
ATOM      6  C   UNL d   1      53.180  34.553  54.550  0.00  0.00     0.230 C 
ATOM      7  O   UNL d   1      52.900  34.259  55.253  0.00  0.00    -0.643 OA
ATOM      8  O   UNL d   1      53.547  35.292  54.531  0.00  0.00    -0.643 OA
ENDBRANCH   5   6
BRANCH   5   9
ATOM      9  C   UNL d   1      52.828  34.489  53.175  0.00  0.00     0.026 C 
BRANCH   9  10
ATOM     10  C   UNL d   1      52.036  34.422  52.952  0.00  0.00     0.002 A 
ATOM     11  C   UNL d   1      51.431  34.524  53.510  0.00  0.00     0.000 A 
ATOM     12  C   UNL d   1      50.643  34.457  53.286  0.00  0.00     0.000 A 
ATOM     13  C   UNL d   1      50.451  34.288  52.504  0.00  0.00     0.000 A 
ATOM     14  C   UNL d   1      51.060  34.182  51.925  0.00  0.00     0.000 A 
ATOM     15  C   UNL d   1      51.845  34.254  52.175  0.00  0.00     0.000 A 
ENDBRANCH   9  10
ENDBRANCH   5   9
ENDBRANCH   4   5
ENDBRANCH   1   4
BRANCH   1  16
ATOM     16  C   UNL d   1      53.819  32.313  53.699  0.00  0.00     0.105 A 
ATOM     17  C   UNL d   1      53.726  31.941  52.968  0.00  0.00     0.013 A 
ATOM     18  C   UNL d   1      53.481  31.160  52.938  0.00  0.00    -0.004 A 
ATOM     19  C   UNL d   1      53.329  30.752  53.638  0.00  0.00    -0.023 A 
ATOM     20  C   UNL d   1      53.421  31.123  54.385  0.00  0.00    -0.004 A 
ATOM     21  C   UNL d   1      53.667  31.904  54.399  0.00  0.00     0.013 A 
BRANCH  19  22
ATOM     22  C   UNL d   1      53.083  29.964  53.582  0.00  0.00     0.019 C 
ATOM     23  C   UNL d   1      52.523  30.192  53.029  0.00  0.00     0.004 C 
ATOM     24  C   UNL d   1      52.838  29.192  53.523  0.00  0.00     0.004 C 
ATOM     25  C   UNL d   1      53.646  29.747  54.135  0.00  0.00     0.004 C 
ENDBRANCH  19  22
ENDBRANCH   1  16
TORSDOF 7
ENDMDL
MODEL 2
REMARK VINA RESULT:      -9.0      0.804      3.768
REMARK  7 active torsions:
REMARK  status: ('A' for Active; 'I' for Inactive)
REMARK    1  A    between atoms: N_2  and  S_1 
REMARK    2  A    between atoms: C_5  and  S_1 
REMARK    3  A    between atoms: C_3  and  N_2 
REMARK    4  A    between atoms: C_4  and  C_3 
REMARK    5  A    between atoms: C_8  and  C_3 
REMARK    6  A    between atoms: C_17  and  C_8 
REMARK    7  A    between atoms: C_9  and  C_10 
ROOT
ATOM      1  S   UNL d   1      53.156  34.037  53.517  0.00  0.00     0.285 S 
ATOM      2  O   UNL d   1      53.318  34.815  53.318  0.00  0.00    -0.198 OA
ATOM      3  O   UNL d   1      53.940  33.943  53.788  0.00  0.00    -0.198 OA
ENDROOT
BRANCH   1   4
ATOM      4  N   UNL d   1      52.994  33.260  53.715  0.00  0.00    -0.152 NA
BRANCH   4   5
ATOM      5  C   UNL d   1      53.596  32.755  53.918  0.00  0.00     0.158 C 
BRANCH   5   6
ATOM      6  C   UNL d   1      53.938  32.796  54.660  0.00  0.00     0.230 C 
ATOM      7  O   UNL d   1      53.479  32.730  55.326  0.00  0.00    -0.643 OA
ATOM      8  O   UNL d   1      54.752  32.904  54.731  0.00  0.00    -0.643 OA
ENDBRANCH   5   6
BRANCH   5   9
ATOM      9  C   UNL d   1      53.865  32.198  53.373  0.00  0.00     0.026 C 
BRANCH   9  10
ATOM     10  C   UNL d   1      53.552  31.434  53.367  0.00  0.00     0.002 A 
ATOM     11  C   UNL d   1      52.934  31.236  52.851  0.00  0.00     0.000 A 
ATOM     12  C   UNL d   1      52.623  30.475  52.846  0.00  0.00     0.000 A 
ATOM     13  C   UNL d   1      52.926  29.905  53.356  0.00  0.00     0.000 A 
ATOM     14  C   UNL d   1      53.557  30.095  53.887  0.00  0.00     0.000 A 
ATOM     15  C   UNL d   1      53.853  30.867  53.874  0.00  0.00     0.000 A 
ENDBRANCH   9  10
ENDBRANCH   5   9
ENDBRANCH   4   5
ENDBRANCH   1   4
BRANCH   1  16
ATOM     16  C   UNL d   1      52.387  34.129  53.251  0.00  0.00     0.105 A 
ATOM     17  C   UNL d   1      52.240  34.210  52.443  0.00  0.00     0.013 A 
ATOM     18  C   UNL d   1      51.471  34.302  52.177  0.00  0.00    -0.004 A 
ATOM     19  C   UNL d   1      50.849  34.312  52.719  0.00  0.00    -0.023 A 
ATOM     20  C   UNL d   1      50.990  34.230  53.542  0.00  0.00    -0.004 A 
ATOM     21  C   UNL d   1      51.765  34.139  53.792  0.00  0.00     0.013 A 
BRANCH  19  22
ATOM     22  C   UNL d   1      50.081  34.406  52.426  0.00  0.00     0.019 C 
ATOM     23  C   UNL d   1      49.878  34.794  53.118  0.00  0.00     0.004 C 
ATOM     24  C   UNL d   1      49.327  34.501  52.142  0.00  0.00     0.004 C 
ATOM     25  C   UNL d   1      50.296  34.018  51.738  0.00  0.00     0.004 C 
ENDBRANCH  19  22
ENDBRANCH   1  16
TORSDOF 7
ENDMDL
MODEL 3
REMARK VINA RESULT:      -8.6      1.632      2.585
REMARK  7 active torsions:
REMARK  status: ('A' for Active; 'I' for Inactive)
REMARK    1  A    between atoms: N_2  and  S_1 
REMARK    2  A    between atoms: C_5  and  S_1 
REMARK    3  A    between atoms: C_3  and  N_2 
REMARK    4  A    between atoms: C_4  and  C_3 
REMARK    5  A    between atoms: C_8  and  C_3 
REMARK    6  A    between atoms: C_17  and  C_8 
REMARK    7  A    between atoms: C_9  and  C_10 
ROOT
ATOM      1  S   UNL d   1      52.814  31.490  52.722  0.00  0.00     0.285 S 
ATOM      2  O   UNL d   1      52.793  30.997  52.068  0.00  0.00    -0.198 OA
ATOM      3  O   UNL d   1      52.686  32.151  52.228  0.00  0.00    -0.198 OA
ENDROOT
BRANCH   1   4
ATOM      4  N   UNL d   1      52.834  31.982  53.375  0.00  0.00    -0.152 NA
BRANCH   4   5
ATOM      5  C   UNL d   1      52.822  32.788  53.281  0.00  0.00     0.158 C 
BRANCH   5   6
ATOM      6  C   UNL d   1      52.111  33.184  53.197  0.00  0.00     0.230 C 
ATOM      7  O   UNL d   1      51.515  33.075  53.736  0.00  0.00    -0.643 OA
ATOM      8  O   UNL d   1      52.000  33.696  52.559  0.00  0.00    -0.643 OA
ENDBRANCH   5   6
BRANCH   5   9
ATOM      9  C   UNL d   1      53.530  33.211  53.272  0.00  0.00     0.026 C 
BRANCH   9  10
ATOM     10  C   UNL d   1      53.884  33.449  53.978  0.00  0.00     0.002 A 
ATOM     11  C   UNL d   1      53.454  33.879  54.542  0.00  0.00     0.000 A 
ATOM     12  C   UNL d   1      53.808  34.115  55.245  0.00  0.00     0.000 A 
ATOM     13  C   UNL d   1      54.595  33.925  55.392  0.00  0.00     0.000 A 
ATOM     14  C   UNL d   1      55.045  33.487  54.825  0.00  0.00     0.000 A 
ATOM     15  C   UNL d   1      54.666  33.260  54.125  0.00  0.00     0.000 A 
ENDBRANCH   9  10
ENDBRANCH   5   9
ENDBRANCH   4   5
ENDBRANCH   1   4
BRANCH   1  16
ATOM     16  C   UNL d   1      52.939  30.842  53.207  0.00  0.00     0.105 A 
ATOM     17  C   UNL d   1      53.706  30.566  53.331  0.00  0.00     0.013 A 
ATOM     18  C   UNL d   1      53.831  29.918  53.816  0.00  0.00    -0.004 A 
ATOM     19  C   UNL d   1      53.188  29.546  54.176  0.00  0.00    -0.023 A 
ATOM     20  C   UNL d   1      52.404  29.821  54.054  0.00  0.00    -0.004 A 
ATOM     21  C   UNL d   1      52.296  30.470  53.566  0.00  0.00     0.013 A 
BRANCH  19  22
ATOM     22  C   UNL d   1      53.340  28.893  54.661  0.00  0.00     0.019 C 
ATOM     23  C   UNL d   1      53.512  28.453  53.992  0.00  0.00     0.004 C 
ATOM     24  C   UNL d   1      53.490  28.251  55.133  0.00  0.00     0.004 C 
ATOM     25  C   UNL d   1      53.166  29.343  55.322  0.00  0.00     0.004 C 
ENDBRANCH  19  22
ENDBRANCH   1  16
TORSDOF 7
ENDMDL
MODEL 4
REMARK VINA RESULT:      -8.4      1.726      3.943
REMARK  7 active torsions:
REMARK  status: ('A' for Active; 'I' for Inactive)
REMARK    1  A    between atoms: N_2  and  S_1 
REMARK    2  A    between atoms: C_5  and  S_1 
REMARK    3  A    between atoms: C_3  and  N_2 
REMARK    4  A    between atoms: C_4  and  C_3 
REMARK    5  A    between atoms: C_8  and  C_3 
REMARK    6  A    between atoms: C_17  and  C_8 
REMARK    7  A    between atoms: C_9  and  C_10 
ROOT
ATOM      1  S   UNL d   1      52.662  32.098  52.765  0.00  0.00     0.285 S 
ATOM      2  O   UNL d   1      52.357  31.896  52.032  0.00  0.00    -0.198 OA
ATOM      3  O   UNL d   1      53.230  31.490  52.696  0.00  0.00    -0.198 OA
ENDROOT
BRANCH   1   4
ATOM      4  N   UNL d   1      52.968  32.301  53.496  0.00  0.00    -0.152 NA
BRANCH   4   5
ATOM      5  C   UNL d   1      53.647  31.950  53.768  0.00  0.00     0.158 C 
BRANCH   5   6
ATOM      6  C   UNL d   1      53.621  31.206  54.106  0.00  0.00     0.230 C 
ATOM      7  O   UNL d   1      53.185  31.075  54.778  0.00  0.00    -0.643 OA
ATOM      8  O   UNL d   1      54.041  30.584  53.762  0.00  0.00    -0.643 OA
ENDBRANCH   5   6
BRANCH   5   9
ATOM      9  C   UNL d   1      54.368  32.346  53.703  0.00  0.00     0.026 C 
BRANCH   9  10
ATOM     10  C   UNL d   1      54.604  32.881  54.285  0.00  0.00     0.002 A 
ATOM     11  C   UNL d   1      54.295  32.832  55.054  0.00  0.00     0.000 A 
ATOM     12  C   UNL d   1      54.532  33.365  55.632  0.00  0.00     0.000 A 
ATOM     13  C   UNL d   1      55.079  33.953  55.450  0.00  0.00     0.000 A 
ATOM     14  C   UNL d   1      55.401  34.013  54.670  0.00  0.00     0.000 A 
ATOM     15  C   UNL d   1      55.148  33.465  54.104  0.00  0.00     0.000 A 
ENDBRANCH   9  10
ENDBRANCH   5   9
ENDBRANCH   4   5
ENDBRANCH   1   4
BRANCH   1  16
ATOM     16  C   UNL d   1      52.106  32.696  52.832  0.00  0.00     0.105 A 
ATOM     17  C   UNL d   1      51.417  32.566  53.266  0.00  0.00     0.013 A 
ATOM     18  C   UNL d   1      50.861  33.163  53.333  0.00  0.00    -0.004 A 
ATOM     19  C   UNL d   1      50.994  33.889  52.966  0.00  0.00    -0.023 A 
ATOM     20  C   UNL d   1      51.692  34.029  52.522  0.00  0.00    -0.004 A 
ATOM     21  C   UNL d   1      52.239  33.422  52.465  0.00  0.00     0.013 A 
BRANCH  19  22
ATOM     22  C   UNL d   1      50.417  34.476  53.049  0.00  0.00     0.019 C 
ATOM     23  C   UNL d   1      50.847  34.794  53.669  0.00  0.00     0.004 C 
ATOM     24  C   UNL d   1      49.854  35.054  53.133  0.00  0.00     0.004 C 
ATOM     25  C   UNL d   1      49.995  34.150  52.428  0.00  0.00     0.004 C 
ENDBRANCH  19  22
ENDBRANCH   1  16
TORSDOF 7
ENDMDL
