MODEL 1
REMARK VINA RESULT:      -8.6      0.000      0.000
REMARK  5 active torsions:
REMARK  status: ('A' for Active; 'I' for Inactive)
REMARK    1  A    between atoms: C_12  and  C_1 
REMARK    2  A    between atoms: C_4  and  O_8 
REMARK       I    between atoms: N_11  and  C_4 
REMARK    3  A    between atoms: O_8  and  C_13 
REMARK    4  A    between atoms: C_17  and  N_11 
REMARK    5  A    between atoms: C_18  and  N_11 
ROOT
ATOM      1  C   UNL d   1      52.951  33.964  53.673  0.00  0.00     0.064 A 
ATOM      2  C   UNL d   1      52.271  33.493  53.663  0.00  0.00     0.199 A 
ATOM      3  C   UNL d   1      51.590  33.775  53.294  0.00  0.00     0.062 A 
ATOM      4  C   UNL d   1      52.951  34.708  53.318  0.00  0.00     0.126 A 
ATOM      5  C   UNL d   1      51.587  34.518  52.939  0.00  0.00     0.105 A 
ATOM      6  O   UNL d   1      52.268  34.989  52.949  0.00  0.00    -0.305 OA
ATOM      7  C   UNL d   1      50.899  34.799  52.568  0.00  0.00     0.050 A 
ATOM      8  C   UNL d   1      50.898  33.306  53.279  0.00  0.00     0.007 A 
ATOM      9  C   UNL d   1      50.219  34.335  52.554  0.00  0.00     0.107 A 
ATOM     10  O   UNL d   1      52.271  32.748  54.018  0.00  0.00    -0.286 OA
ATOM     11  C   UNL d   1      50.218  33.587  52.911  0.00  0.00     0.025 A 
ENDROOT
BRANCH   9  12
ATOM     12  O   UNL d   1      49.538  34.614  52.187  0.00  0.00    -0.259 OA
BRANCH  12  13
ATOM     13  C   UNL d   1      48.992  35.059  52.609  0.00  0.00     0.377 C 
ATOM     14  N   UNL d   1      48.314  35.342  52.228  0.00  0.00    -0.252 N 
ATOM     15  O   UNL d   1      49.120  35.224  53.406  0.00  0.00    -0.237 OA
BRANCH  14  16
ATOM     16  C   UNL d   1      48.182  35.179  51.430  0.00  0.00     0.085 C 
ATOM     17  C   UNL d   1      47.408  35.182  51.138  0.00  0.00     0.021 C 
ENDBRANCH  14  16
BRANCH  14  18
ATOM     18  C   UNL d   1      47.765  35.790  52.653  0.00  0.00     0.085 C 
ATOM     19  C   UNL d   1      47.669  36.594  52.495  0.00  0.00     0.021 C 
ENDBRANCH  14  18
ENDBRANCH  12  13
ENDBRANCH   9  12
BRANCH   1  20
ATOM     20  C   UNL d   1      53.639  33.683  54.045  0.00  0.00     0.005 A 
ATOM     21  C   UNL d   1      54.153  33.194  53.624  0.00  0.00     0.000 A 
ATOM     22  C   UNL d   1      54.841  32.913  53.995  0.00  0.00     0.000 A 
ATOM     23  C   UNL d   1      55.005  33.122  54.774  0.00  0.00     0.000 A 
ATOM     24  C   UNL d   1      54.479  33.615  55.184  0.00  0.00     0.000 A 
ATOM     25  C   UNL d   1      53.798  33.893  54.817  0.00  0.00     0.000 A 
ENDBRANCH   1  20
TORSDOF 5
ENDMDL
MODEL 2
REMARK VINA RESULT:      -7.0      1.398      1.989
REMARK  5 active torsions:
REMARK  status: ('A' for Active; 'I' for Inactive)
REMARK    1  A    between atoms: C_12  and  C_1 
REMARK    2  A    between atoms: C_4  and  O_8 
REMARK       I    between atoms: N_11  and  C_4 
REMARK    3  A    between atoms: O_8  and  C_13 
REMARK    4  A    between atoms: C_17  and  N_11 
REMARK    5  A    between atoms: C_18  and  N_11 
ROOT
ATOM      1  C   UNL d   1      52.110  32.197  53.221  0.00  0.00     0.064 A 
ATOM      2  C   UNL d   1      52.197  32.917  52.823  0.00  0.00     0.199 A 
ATOM      3  C   UNL d   1      51.576  33.460  52.831  0.00  0.00     0.062 A 
ATOM      4  C   UNL d   1      51.412  32.020  53.622  0.00  0.00     0.126 A 
ATOM      5  C   UNL d   1      50.877  33.287  53.231  0.00  0.00     0.105 A 
ATOM      6  O   UNL d   1      50.791  32.565  53.629  0.00  0.00    -0.305 OA
ATOM      7  C   UNL d   1      50.254  33.836  53.237  0.00  0.00     0.050 A 
ATOM      8  C   UNL d   1      51.654  34.190  52.432  0.00  0.00     0.007 A 
ATOM      9  C   UNL d   1      50.333  34.554  52.843  0.00  0.00     0.107 A 
ATOM     10  O   UNL d   1      52.895  33.094  52.422  0.00  0.00    -0.286 OA
ATOM     11  C   UNL d   1      51.035  34.732  52.440  0.00  0.00     0.025 A 
ENDROOT
BRANCH   9  12
ATOM     12  O   UNL d   1      49.716  35.098  52.850  0.00  0.00    -0.259 OA
BRANCH  12  13
ATOM     13  C   UNL d   1      49.087  35.015  52.329  0.00  0.00     0.377 C 
ATOM     14  N   UNL d   1      48.397  35.457  52.449  0.00  0.00    -0.252 N 
ATOM     15  O   UNL d   1      49.141  34.495  51.692  0.00  0.00    -0.237 OA
BRANCH  14  16
ATOM     16  C   UNL d   1      48.338  35.979  53.085  0.00  0.00     0.085 C 
ATOM     17  C   UNL d   1      47.608  36.081  53.459  0.00  0.00     0.021 C 
ENDBRANCH  14  16
BRANCH  14  18
ATOM     18  C   UNL d   1      47.763  35.373  51.925  0.00  0.00     0.085 C 
ATOM     19  C   UNL d   1      47.403  36.037  51.594  0.00  0.00     0.021 C 
ENDBRANCH  14  18
ENDBRANCH  12  13
ENDBRANCH   9  12
BRANCH   1  20
ATOM     20  C   UNL d   1      52.734  31.648  53.215  0.00  0.00     0.005 A 
ATOM     21  C   UNL d   1      52.653  30.952  52.779  0.00  0.00     0.000 A 
ATOM     22  C   UNL d   1      53.277  30.403  52.774  0.00  0.00     0.000 A 
ATOM     23  C   UNL d   1      53.965  30.555  53.199  0.00  0.00     0.000 A 
ATOM     24  C   UNL d   1      54.031  31.259  53.631  0.00  0.00     0.000 A 
ATOM     25  C   UNL d   1      53.415  31.802  53.638  0.00  0.00     0.000 A 
ENDBRANCH   1  20
TORSDOF 5
ENDMDL
MODEL 3
REMARK VINA RESULT:      -6.6      1.503      5.488
REMARK  5 active torsions:
REMARK  status: ('A' for Active; 'I' for Inactive)
REMARK    1  A    between atoms: C_12  and  C_1 
REMARK    2  A    between atoms: C_4  and  O_8 
REMARK       I    between atoms: N_11  and  C_4 
REMARK    3  A    between atoms: O_8  and  C_13 
REMARK    4  A    between atoms: C_17  and  N_11 
REMARK    5  A    between atoms: C_18  and  N_11 
ROOT
ATOM      1  C   UNL d   1      48.602  35.148  51.933  0.00  0.00     0.064 A 
ATOM      2  C   UNL d   1      49.016  35.111  52.648  0.00  0.00     0.199 A 
ATOM      3  C   UNL d   1      49.749  34.736  52.671  0.00  0.00     0.062 A 
ATOM      4  C   UNL d   1      48.918  34.815  51.247  0.00  0.00     0.126 A 
ATOM      5  C   UNL d   1      50.068  34.402  51.988  0.00  0.00     0.105 A 
ATOM      6  O   UNL d   1      49.653  34.440  51.273  0.00  0.00    -0.305 OA
ATOM      7  C   UNL d   1      50.808  34.025  52.016  0.00  0.00     0.050 A 
ATOM      8  C   UNL d   1      50.175  34.693  53.390  0.00  0.00     0.007 A 
ATOM      9  C   UNL d   1      51.224  33.984  52.724  0.00  0.00     0.107 A 
ATOM     10  O   UNL d   1      48.700  35.444  53.334  0.00  0.00    -0.286 OA
ATOM     11  C   UNL d   1      50.907  34.319  53.413  0.00  0.00     0.025 A 
ENDROOT
BRANCH   9  12
ATOM     12  O   UNL d   1      51.956  33.611  52.751  0.00  0.00    -0.259 OA
BRANCH  12  13
ATOM     13  C   UNL d   1      52.018  32.838  53.021  0.00  0.00     0.377 C 
ATOM     14  N   UNL d   1      52.766  32.503  53.135  0.00  0.00    -0.252 N 
ATOM     15  O   UNL d   1      51.338  32.399  53.177  0.00  0.00    -0.237 OA
BRANCH  14  16
ATOM     16  C   UNL d   1      53.449  32.940  52.979  0.00  0.00     0.085 C 
ATOM     17  C   UNL d   1      54.103  32.861  53.480  0.00  0.00     0.021 C 
ENDBRANCH  14  16
BRANCH  14  18
ATOM     18  C   UNL d   1      52.827  31.726  53.407  0.00  0.00     0.085 C 
ATOM     19  C   UNL d   1      53.072  31.122  52.900  0.00  0.00     0.021 C 
ENDBRANCH  14  18
ENDBRANCH  12  13
ENDBRANCH   9  12
BRANCH   1  20
ATOM     20  C   UNL d   1      47.862  35.525  51.906  0.00  0.00     0.005 A 
ATOM     21  C   UNL d   1      47.223  35.135  51.559  0.00  0.00     0.000 A 
ATOM     22  C   UNL d   1      46.484  35.513  51.532  0.00  0.00     0.000 A 
ATOM     23  C   UNL d   1      46.393  36.266  51.849  0.00  0.00     0.000 A 
ATOM     24  C   UNL d   1      47.044  36.646  52.194  0.00  0.00     0.000 A 
ATOM     25  C   UNL d   1      47.776  36.273  52.221  0.00  0.00     0.000 A 
ENDBRANCH   1  20
TORSDOF 5
ENDMDL
MODEL 4
REMARK VINA RESULT:      -6.6      1.455      5.467
REMARK  5 active torsions:
REMARK  status: ('A' for Active; 'I' for Inactive)
REMARK    1  A    between atoms: C_12  and  C_1 
REMARK    2  A    between atoms: C_4  and  O_8 
REMARK       I    between atoms: N_11  and  C_4 
REMARK    3  A    between atoms: O_8  and  C_13 
REMARK    4  A    between atoms: C_17  and  N_11 
REMARK    5  A    between atoms: C_18  and  N_11 
ROOT
ATOM      1  C   UNL d   1      48.836  35.182  52.440  0.00  0.00     0.064 A 
ATOM      2  C   UNL d   1      49.349  34.826  51.897  0.00  0.00     0.199 A 
ATOM      3  C   UNL d   1      50.075  34.538  52.158  0.00  0.00     0.062 A 
ATOM      4  C   UNL d   1      49.046  35.249  53.235  0.00  0.00     0.126 A 
ATOM      5  C   UNL d   1      50.289  34.603  52.951  0.00  0.00     0.105 A 
ATOM      6  O   UNL d   1      49.775  34.959  53.494  0.00  0.00    -0.305 OA
ATOM      7  C   UNL d   1      51.022  34.311  53.210  0.00  0.00     0.050 A 
ATOM      8  C   UNL d   1      50.601  34.176  51.616  0.00  0.00     0.007 A 
ATOM      9  C   UNL d   1      51.537  33.955  52.675  0.00  0.00     0.107 A 
ATOM     10  O   UNL d   1      49.138  34.759  51.102  0.00  0.00    -0.286 OA
ATOM     11  C   UNL d   1      51.326  33.888  51.876  0.00  0.00     0.025 A 
ENDROOT
BRANCH   9  12
ATOM     12  O   UNL d   1      52.263  33.667  52.932  0.00  0.00    -0.259 OA
BRANCH  12  13
ATOM     13  C   UNL d   1      52.336  32.884  53.170  0.00  0.00     0.377 C 
ATOM     14  N   UNL d   1      53.072  32.601  53.423  0.00  0.00    -0.252 N 
ATOM     15  O   UNL d   1      51.681  32.384  53.156  0.00  0.00    -0.237 OA
BRANCH  14  16
ATOM     16  C   UNL d   1      53.730  33.099  53.438  0.00  0.00     0.085 C 
ATOM     17  C   UNL d   1      54.266  33.042  54.065  0.00  0.00     0.021 C 
ENDBRANCH  14  16
BRANCH  14  18
ATOM     18  C   UNL d   1      53.145  31.814  53.663  0.00  0.00     0.085 C 
ATOM     19  C   UNL d   1      53.577  31.277  53.210  0.00  0.00     0.021 C 
ENDBRANCH  14  18
ENDBRANCH  12  13
ENDBRANCH   9  12
BRANCH   1  20
ATOM     20  C   UNL d   1      48.103  35.474  52.181  0.00  0.00     0.005 A 
ATOM     21  C   UNL d   1      47.847  36.213  52.445  0.00  0.00     0.000 A 
ATOM     22  C   UNL d   1      47.113  36.504  52.186  0.00  0.00     0.000 A 
ATOM     23  C   UNL d   1      46.650  36.059  51.671  0.00  0.00     0.000 A 
ATOM     24  C   UNL d   1      46.921  35.319  51.414  0.00  0.00     0.000 A 
ATOM     25  C   UNL d   1      47.646  35.030  51.670  0.00  0.00     0.000 A 
ENDBRANCH   1  20
TORSDOF 5
ENDMDL
