MODEL 1
REMARK VINA RESULT:      -8.0      0.000      0.000
REMARK  5 active torsions:
REMARK  status: ('A' for Active; 'I' for Inactive)
REMARK    1  A    between atoms: C_9  and  N_2 
REMARK    2  A    between atoms: C_7  and  O_10 
REMARK    3  A    between atoms: C_11  and  C_9 
REMARK    4  A    between atoms: O_10  and  C_14 
REMARK    5  A    between atoms: C_14  and  C_11 
ROOT
ATOM      1  C   UNL d   1      52.066  34.154  52.831  0.00  0.00     0.086 C 
ENDROOT
BRANCH   1   2
ATOM      2  N   UNL d   1      52.581  34.113  53.471  0.00  0.00    -0.268 N 
ATOM      3  C   UNL d   1      52.768  34.734  53.978  0.00  0.00     0.296 A 
ATOM      4  S   UNL d   1      53.308  34.446  54.543  0.00  0.00    -0.025 SA
ATOM      5  O   UNL d   1      52.480  35.505  53.942  0.00  0.00    -0.259 OA
ATOM      6  C   UNL d   1      53.443  33.649  54.372  0.00  0.00     0.050 A 
ATOM      7  C   UNL d   1      53.926  33.076  54.741  0.00  0.00     0.008 A 
ATOM      8  C   UNL d   1      53.000  33.442  53.715  0.00  0.00     0.073 A 
ATOM      9  C   UNL d   1      53.951  32.310  54.442  0.00  0.00     0.001 A 
ATOM     10  C   UNL d   1      53.499  32.109  53.778  0.00  0.00     0.002 A 
ATOM     11  C   UNL d   1      53.021  32.675  53.412  0.00  0.00     0.018 A 
ENDBRANCH   1   2
BRANCH   1  12
ATOM     12  C   UNL d   1      51.259  34.303  52.952  0.00  0.00     0.046 C 
BRANCH  12  13
ATOM     13  C   UNL d   1      50.714  34.180  52.347  0.00  0.00     0.124 C 
BRANCH  13  14
ATOM     14  O   UNL d   1      49.990  34.560  52.362  0.00  0.00    -0.305 OA
BRANCH  14  15
ATOM     15  C   UNL d   1      49.257  34.943  52.375  0.00  0.00     0.100 A 
ATOM     16  C   UNL d   1      48.766  34.917  51.715  0.00  0.00     0.023 A 
ATOM     17  C   UNL d   1      49.010  34.507  51.040  0.00  0.00     0.002 C 
ATOM     18  C   UNL d   1      48.042  35.296  51.729  0.00  0.00     0.002 A 
ATOM     19  C   UNL d   1      47.803  35.704  52.405  0.00  0.00     0.000 A 
ATOM     20  C   UNL d   1      48.297  35.729  53.066  0.00  0.00     0.002 A 
ATOM     21  C   UNL d   1      49.030  35.342  53.044  0.00  0.00     0.025 A 
ENDBRANCH  14  15
ENDBRANCH  13  14
ENDBRANCH  12  13
ENDBRANCH   1  12
TORSDOF 5
ENDMDL
MODEL 2
REMARK VINA RESULT:      -7.4      2.151      4.878
REMARK  5 active torsions:
REMARK  status: ('A' for Active; 'I' for Inactive)
REMARK    1  A    between atoms: C_9  and  N_2 
REMARK    2  A    between atoms: C_7  and  O_10 
REMARK    3  A    between atoms: C_11  and  C_9 
REMARK    4  A    between atoms: O_10  and  C_14 
REMARK    5  A    between atoms: C_14  and  C_11 
ROOT
ATOM      1  C   UNL d   1      53.881  33.168  53.509  0.00  0.00     0.086 C 
ENDROOT
BRANCH   1   2
ATOM      2  N   UNL d   1      53.398  33.789  53.751  0.00  0.00    -0.268 N 
ATOM      3  C   UNL d   1      53.546  34.293  54.385  0.00  0.00     0.296 A 
ATOM      4  S   UNL d   1      52.916  34.836  54.428  0.00  0.00    -0.025 SA
ATOM      5  O   UNL d   1      54.196  34.272  54.892  0.00  0.00    -0.259 OA
ATOM      6  C   UNL d   1      52.391  34.655  53.817  0.00  0.00     0.050 A 
ATOM      7  C   UNL d   1      51.667  35.003  53.585  0.00  0.00     0.008 A 
ATOM      8  C   UNL d   1      52.683  34.014  53.400  0.00  0.00     0.073 A 
ATOM      9  C   UNL d   1      51.257  34.698  52.940  0.00  0.00     0.001 A 
ATOM     10  C   UNL d   1      51.561  34.049  52.525  0.00  0.00     0.002 A 
ATOM     11  C   UNL d   1      52.275  33.705  52.753  0.00  0.00     0.018 A 
ENDBRANCH   1   2
BRANCH   1  12
ATOM     12  C   UNL d   1      53.833  32.430  53.885  0.00  0.00     0.046 C 
BRANCH  12  13
ATOM     13  C   UNL d   1      54.124  31.752  53.518  0.00  0.00     0.124 C 
BRANCH  13  14
ATOM     14  O   UNL d   1      53.816  31.018  53.707  0.00  0.00    -0.305 OA
BRANCH  14  15
ATOM     15  C   UNL d   1      53.506  30.274  53.895  0.00  0.00     0.100 A 
ATOM     16  C   UNL d   1      53.045  29.869  53.346  0.00  0.00     0.023 A 
ATOM     17  C   UNL d   1      52.894  30.208  52.609  0.00  0.00     0.002 C 
ATOM     18  C   UNL d   1      52.739  29.134  53.534  0.00  0.00     0.002 A 
ATOM     19  C   UNL d   1      52.892  28.799  54.272  0.00  0.00     0.000 A 
ATOM     20  C   UNL d   1      53.355  29.208  54.820  0.00  0.00     0.002 A 
ATOM     21  C   UNL d   1      53.662  29.953  54.623  0.00  0.00     0.025 A 
ENDBRANCH  14  15
ENDBRANCH  13  14
ENDBRANCH  12  13
ENDBRANCH   1  12
TORSDOF 5
ENDMDL
MODEL 3
REMARK VINA RESULT:      -6.5      3.159      4.505
REMARK  5 active torsions:
REMARK  status: ('A' for Active; 'I' for Inactive)
REMARK    1  A    between atoms: C_9  and  N_2 
REMARK    2  A    between atoms: C_7  and  O_10 
REMARK    3  A    between atoms: C_11  and  C_9 
REMARK    4  A    between atoms: O_10  and  C_14 
REMARK    5  A    between atoms: C_14  and  C_11 
ROOT
ATOM      1  C   UNL d   1      53.941  31.266  53.492  0.00  0.00     0.086 C 
ENDROOT
BRANCH   1   2
ATOM      2  N   UNL d   1      53.447  30.613  53.407  0.00  0.00    -0.268 N 
ATOM      3  C   UNL d   1      52.906  30.496  52.796  0.00  0.00     0.296 A 
ATOM      4  S   UNL d   1      52.528  29.766  52.931  0.00  0.00    -0.025 SA
ATOM      5  O   UNL d   1      52.758  31.003  52.163  0.00  0.00    -0.259 OA
ATOM      6  C   UNL d   1      52.844  29.447  53.624  0.00  0.00     0.050 A 
ATOM      7  C   UNL d   1      52.685  28.735  54.031  0.00  0.00     0.008 A 
ATOM      8  C   UNL d   1      53.408  29.964  53.918  0.00  0.00     0.073 A 
ATOM      9  C   UNL d   1      53.095  28.561  54.722  0.00  0.00     0.001 A 
ATOM     10  C   UNL d   1      53.663  29.089  55.012  0.00  0.00     0.002 A 
ATOM     11  C   UNL d   1      53.822  29.792  54.611  0.00  0.00     0.018 A 
ENDBRANCH   1   2
BRANCH   1  12
ATOM     12  C   UNL d   1      53.619  32.027  53.567  0.00  0.00     0.046 C 
BRANCH  12  13
ATOM     13  C   UNL d   1      54.100  32.669  53.752  0.00  0.00     0.124 C 
BRANCH  13  14
ATOM     14  O   UNL d   1      53.768  33.399  53.912  0.00  0.00    -0.305 OA
BRANCH  14  15
ATOM     15  C   UNL d   1      53.431  34.137  54.077  0.00  0.00     0.100 A 
ATOM     16  C   UNL d   1      53.625  34.533  54.772  0.00  0.00     0.023 A 
ATOM     17  C   UNL d   1      54.156  34.189  55.304  0.00  0.00     0.002 C 
ATOM     18  C   UNL d   1      53.292  35.262  54.933  0.00  0.00     0.002 A 
ATOM     19  C   UNL d   1      52.762  35.601  54.400  0.00  0.00     0.000 A 
ATOM     20  C   UNL d   1      52.570  35.202  53.703  0.00  0.00     0.002 A 
ATOM     21  C   UNL d   1      52.912  34.463  53.546  0.00  0.00     0.025 A 
ENDBRANCH  14  15
ENDBRANCH  13  14
ENDBRANCH  12  13
ENDBRANCH   1  12
TORSDOF 5
ENDMDL
MODEL 4
REMARK VINA RESULT:      -6.4      1.328      1.834
REMARK  5 active torsions:
REMARK  status: ('A' for Active; 'I' for Inactive)
REMARK    1  A    between atoms: C_9  and  N_2 
REMARK    2  A    between atoms: C_7  and  O_10 
REMARK    3  A    between atoms: C_11  and  C_9 
REMARK    4  A    between atoms: O_10  and  C_14 
REMARK    5  A    between atoms: C_14  and  C_11 
ROOT
ATOM      1  C   UNL d   1      53.153  33.276  53.003  0.00  0.00     0.086 C 
ENDROOT
BRANCH   1   2
ATOM      2  N   UNL d   1      53.408  32.657  53.481  0.00  0.00    -0.268 N 
ATOM      3  C   UNL d   1      53.852  32.734  54.171  0.00  0.00     0.296 A 
ATOM      4  S   UNL d   1      53.983  31.969  54.473  0.00  0.00    -0.025 SA
ATOM      5  O   UNL d   1      54.122  33.435  54.509  0.00  0.00    -0.259 OA
ATOM      6  C   UNL d   1      53.617  31.434  53.962  0.00  0.00     0.050 A 
ATOM      7  C   UNL d   1      53.560  30.600  53.976  0.00  0.00     0.008 A 
ATOM      8  C   UNL d   1      53.263  31.852  53.353  0.00  0.00     0.073 A 
ATOM      9  C   UNL d   1      53.151  30.209  53.380  0.00  0.00     0.001 A 
ATOM     10  C   UNL d   1      52.797  30.640  52.768  0.00  0.00     0.002 A 
ATOM     11  C   UNL d   1      52.852  31.464  52.752  0.00  0.00     0.018 A 
ENDBRANCH   1   2
BRANCH   1  12
ATOM     12  C   UNL d   1      52.470  33.703  53.199  0.00  0.00     0.046 C 
BRANCH  12  13
ATOM     13  C   UNL d   1      52.175  34.280  52.692  0.00  0.00     0.124 C 
BRANCH  13  14
ATOM     14  O   UNL d   1      51.372  34.430  52.661  0.00  0.00    -0.305 OA
BRANCH  14  15
ATOM     15  C   UNL d   1      50.558  34.578  52.629  0.00  0.00     0.100 A 
ATOM     16  C   UNL d   1      50.143  34.447  51.930  0.00  0.00     0.023 A 
ATOM     17  C   UNL d   1      50.542  34.167  51.263  0.00  0.00     0.002 C 
ATOM     18  C   UNL d   1      49.339  34.594  51.900  0.00  0.00     0.002 A 
ATOM     19  C   UNL d   1      48.945  34.874  52.568  0.00  0.00     0.000 A 
ATOM     20  C   UNL d   1      49.364  35.004  53.268  0.00  0.00     0.002 A 
ATOM     21  C   UNL d   1      50.179  34.853  53.291  0.00  0.00     0.025 A 
ENDBRANCH  14  15
ENDBRANCH  13  14
ENDBRANCH  12  13
ENDBRANCH   1  12
TORSDOF 5
ENDMDL
MODEL 5
REMARK VINA RESULT:      -6.0      1.935      5.223
REMARK  5 active torsions:
REMARK  status: ('A' for Active; 'I' for Inactive)
REMARK    1  A    between atoms: C_9  and  N_2 
REMARK    2  A    between atoms: C_7  and  O_10 
REMARK    3  A    between atoms: C_11  and  C_9 
REMARK    4  A    between atoms: O_10  and  C_14 
REMARK    5  A    between atoms: C_14  and  C_11 
ROOT
ATOM      1  C   UNL d   1      48.921  34.823  52.766  0.00  0.00     0.086 C 
ENDROOT
BRANCH   1   2
ATOM      2  N   UNL d   1      48.397  35.454  52.828  0.00  0.00    -0.268 N 
ATOM      3  C   UNL d   1      48.407  36.031  53.416  0.00  0.00     0.296 A 
ATOM      4  S   UNL d   1      47.781  36.558  53.263  0.00  0.00    -0.025 SA
ATOM      5  O   UNL d   1      48.936  36.085  54.046  0.00  0.00    -0.259 OA
ATOM      6  C   UNL d   1      47.396  36.295  52.581  0.00  0.00     0.050 A 
ATOM      7  C   UNL d   1      46.737  36.595  52.164  0.00  0.00     0.008 A 
ATOM      8  C   UNL d   1      47.771  35.619  52.312  0.00  0.00     0.073 A 
ATOM      9  C   UNL d   1      46.472  36.208  51.488  0.00  0.00     0.001 A 
ATOM     10  C   UNL d   1      46.858  35.525  51.224  0.00  0.00     0.002 A 
ATOM     11  C   UNL d   1      47.509  35.228  51.634  0.00  0.00     0.018 A 
ENDBRANCH   1   2
BRANCH   1  12
ATOM     12  C   UNL d   1      49.740  34.956  52.782  0.00  0.00     0.046 C 
BRANCH  12  13
ATOM     13  C   UNL d   1      50.266  34.362  52.560  0.00  0.00     0.124 C 
BRANCH  13  14
ATOM     14  O   UNL d   1      51.017  34.336  52.883  0.00  0.00    -0.305 OA
BRANCH  14  15
ATOM     15  C   UNL d   1      51.775  34.309  53.214  0.00  0.00     0.100 A 
ATOM     16  C   UNL d   1      52.174  33.591  53.272  0.00  0.00     0.023 A 
ATOM     17  C   UNL d   1      51.813  32.899  53.001  0.00  0.00     0.002 C 
ATOM     18  C   UNL d   1      52.923  33.566  53.599  0.00  0.00     0.002 A 
ATOM     19  C   UNL d   1      53.279  34.258  53.869  0.00  0.00     0.000 A 
ATOM     20  C   UNL d   1      52.877  34.977  53.809  0.00  0.00     0.002 A 
ATOM     21  C   UNL d   1      52.117  34.995  53.476  0.00  0.00     0.025 A 
ENDBRANCH  14  15
ENDBRANCH  13  14
ENDBRANCH  12  13
ENDBRANCH   1  12
TORSDOF 5
ENDMDL
MODEL 6
REMARK VINA RESULT:      -5.8      2.619      4.507
REMARK  5 active torsions:
REMARK  status: ('A' for Active; 'I' for Inactive)
REMARK    1  A    between atoms: C_9  and  N_2 
REMARK    2  A    between atoms: C_7  and  O_10 
REMARK    3  A    between atoms: C_11  and  C_9 
REMARK    4  A    between atoms: O_10  and  C_14 
REMARK    5  A    between atoms: C_14  and  C_11 
ROOT
ATOM      1  C   UNL d   1      53.044  33.271  52.872  0.00  0.00     0.086 C 
ENDROOT
BRANCH   1   2
ATOM      2  N   UNL d   1      53.010  33.876  53.429  0.00  0.00    -0.268 N 
ATOM      3  C   UNL d   1      52.453  34.483  53.445  0.00  0.00     0.296 A 
ATOM      4  S   UNL d   1      52.627  34.967  54.101  0.00  0.00    -0.025 SA
ATOM      5  O   UNL d   1      51.834  34.599  52.915  0.00  0.00    -0.259 OA
ATOM      6  C   UNL d   1      53.289  34.647  54.476  0.00  0.00     0.050 A 
ATOM      7  C   UNL d   1      53.713  34.888  55.155  0.00  0.00     0.008 A 
ATOM      8  C   UNL d   1      53.526  33.978  54.068  0.00  0.00     0.073 A 
ATOM      9  C   UNL d   1      54.364  34.451  55.405  0.00  0.00     0.001 A 
ATOM     10  C   UNL d   1      54.597  33.777  54.985  0.00  0.00     0.002 A 
ATOM     11  C   UNL d   1      54.179  33.537  54.315  0.00  0.00     0.018 A 
ENDBRANCH   1   2
BRANCH   1  12
ATOM     12  C   UNL d   1      52.612  32.572  52.986  0.00  0.00     0.046 C 
BRANCH  12  13
ATOM     13  C   UNL d   1      52.791  31.893  52.556  0.00  0.00     0.124 C 
BRANCH  13  14
ATOM     14  O   UNL d   1      52.792  31.162  52.924  0.00  0.00    -0.305 OA
BRANCH  14  15
ATOM     15  C   UNL d   1      52.791  30.422  53.294  0.00  0.00     0.100 A 
ATOM     16  C   UNL d   1      53.501  30.030  53.435  0.00  0.00     0.023 A 
ATOM     17  C   UNL d   1      54.213  30.379  53.204  0.00  0.00     0.002 C 
ATOM     18  C   UNL d   1      53.497  29.299  53.801  0.00  0.00     0.002 A 
ATOM     19  C   UNL d   1      52.784  28.955  54.030  0.00  0.00     0.000 A 
ATOM     20  C   UNL d   1      52.073  29.351  53.887  0.00  0.00     0.002 A 
ATOM     21  C   UNL d   1      52.084  30.092  53.515  0.00  0.00     0.025 A 
ENDBRANCH  14  15
ENDBRANCH  13  14
ENDBRANCH  12  13
ENDBRANCH   1  12
TORSDOF 5
ENDMDL
MODEL 7
REMARK VINA RESULT:      -5.7     10.128     10.878
REMARK  5 active torsions:
REMARK  status: ('A' for Active; 'I' for Inactive)
REMARK    1  A    between atoms: C_9  and  N_2 
REMARK    2  A    between atoms: C_7  and  O_10 
REMARK    3  A    between atoms: C_11  and  C_9 
REMARK    4  A    between atoms: O_10  and  C_14 
REMARK    5  A    between atoms: C_14  and  C_11 
ROOT
ATOM      1  C   UNL d   1      45.312  29.874  58.701  0.00  0.00     0.086 C 
ENDROOT
BRANCH   1   2
ATOM      2  N   UNL d   1      45.030  29.544  58.002  0.00  0.00    -0.268 N 
ATOM      3  C   UNL d   1      44.634  29.950  57.404  0.00  0.00     0.296 A 
ATOM      4  S   UNL d   1      44.452  29.401  56.804  0.00  0.00    -0.025 SA
ATOM      5  O   UNL d   1      44.446  30.752  57.392  0.00  0.00    -0.259 OA
ATOM      6  C   UNL d   1      44.741  28.666  57.045  0.00  0.00     0.050 A 
ATOM      7  C   UNL d   1      44.724  27.915  56.679  0.00  0.00     0.008 A 
ATOM      8  C   UNL d   1      45.096  28.750  57.778  0.00  0.00     0.073 A 
ATOM      9  C   UNL d   1      45.064  27.269  57.058  0.00  0.00     0.001 A 
ATOM     10  C   UNL d   1      45.421  27.364  57.799  0.00  0.00     0.002 A 
ATOM     11  C   UNL d   1      45.438  28.104  58.162  0.00  0.00     0.018 A 
ENDBRANCH   1   2
BRANCH   1  12
ATOM     12  C   UNL d   1      44.803  29.986  59.346  0.00  0.00     0.046 C 
BRANCH  12  13
ATOM     13  C   UNL d   1      45.008  30.495  59.960  0.00  0.00     0.124 C 
BRANCH  13  14
ATOM     14  O   UNL d   1      44.843  30.292  60.735  0.00  0.00    -0.305 OA
BRANCH  14  15
ATOM     15  C   UNL d   1      44.674  30.084  61.518  0.00  0.00     0.100 A 
ATOM     16  C   UNL d   1      44.481  30.667  62.067  0.00  0.00     0.023 A 
ATOM     17  C   UNL d   1      44.458  31.458  61.831  0.00  0.00     0.002 C 
ATOM     18  C   UNL d   1      44.314  30.460  62.840  0.00  0.00     0.002 A 
ATOM     19  C   UNL d   1      44.339  29.668  63.070  0.00  0.00     0.000 A 
ATOM     20  C   UNL d   1      44.532  29.086  62.518  0.00  0.00     0.002 A 
ATOM     21  C   UNL d   1      44.701  29.303  61.735  0.00  0.00     0.025 A 
ENDBRANCH  14  15
ENDBRANCH  13  14
ENDBRANCH  12  13
ENDBRANCH   1  12
TORSDOF 5
ENDMDL
MODEL 8
REMARK VINA RESULT:      -5.5      9.868     10.350
REMARK  5 active torsions:
REMARK  status: ('A' for Active; 'I' for Inactive)
REMARK    1  A    between atoms: C_9  and  N_2 
REMARK    2  A    between atoms: C_7  and  O_10 
REMARK    3  A    between atoms: C_11  and  C_9 
REMARK    4  A    between atoms: O_10  and  C_14 
REMARK    5  A    between atoms: C_14  and  C_11 
ROOT
ATOM      1  C   UNL d   1      45.393  27.641  58.197  0.00  0.00     0.086 C 
ENDROOT
BRANCH   1   2
ATOM      2  N   UNL d   1      45.022  26.907  58.213  0.00  0.00    -0.268 N 
ATOM      3  C   UNL d   1      44.706  26.542  58.880  0.00  0.00     0.296 A 
ATOM      4  S   UNL d   1      44.388  25.810  58.641  0.00  0.00    -0.025 SA
ATOM      5  O   UNL d   1      44.702  26.837  59.650  0.00  0.00    -0.259 OA
ATOM      6  C   UNL d   1      44.513  25.740  57.828  0.00  0.00     0.050 A 
ATOM      7  C   UNL d   1      44.317  25.135  57.286  0.00  0.00     0.008 A 
ATOM      8  C   UNL d   1      44.902  26.410  57.562  0.00  0.00     0.073 A 
ATOM      9  C   UNL d   1      44.516  25.218  56.492  0.00  0.00     0.001 A 
ATOM     10  C   UNL d   1      44.909  25.900  56.233  0.00  0.00     0.002 A 
ATOM     11  C   UNL d   1      45.103  26.498  56.767  0.00  0.00     0.018 A 
ENDBRANCH   1   2
BRANCH   1  12
ATOM     12  C   UNL d   1      44.942  28.338  58.195  0.00  0.00     0.046 C 
BRANCH  12  13
ATOM     13  C   UNL d   1      45.307  29.074  58.247  0.00  0.00     0.124 C 
BRANCH  13  14
ATOM     14  O   UNL d   1      45.059  29.690  57.769  0.00  0.00    -0.305 OA
BRANCH  14  15
ATOM     15  C   UNL d   1      44.809  30.315  57.288  0.00  0.00     0.100 A 
ATOM     16  C   UNL d   1      44.803  31.085  57.581  0.00  0.00     0.023 A 
ATOM     17  C   UNL d   1      45.047  31.228  58.357  0.00  0.00     0.002 C 
ATOM     18  C   UNL d   1      44.557  31.701  57.104  0.00  0.00     0.002 A 
ATOM     19  C   UNL d   1      44.314  31.553  56.330  0.00  0.00     0.000 A 
ATOM     20  C   UNL d   1      44.322  30.780  56.038  0.00  0.00     0.002 A 
ATOM     21  C   UNL d   1      44.573  30.160  56.528  0.00  0.00     0.025 A 
ENDBRANCH  14  15
ENDBRANCH  13  14
ENDBRANCH  12  13
ENDBRANCH   1  12
TORSDOF 5
ENDMDL
MODEL 9
REMARK VINA RESULT:      -5.2      1.719      2.609
REMARK  5 active torsions:
REMARK  status: ('A' for Active; 'I' for Inactive)
REMARK    1  A    between atoms: C_9  and  N_2 
REMARK    2  A    between atoms: C_7  and  O_10 
REMARK    3  A    between atoms: C_11  and  C_9 
REMARK    4  A    between atoms: O_10  and  C_14 
REMARK    5  A    between atoms: C_14  and  C_11 
ROOT
ATOM      1  C   UNL d   1      50.012  34.674  53.327  0.00  0.00     0.086 C 
ENDROOT
BRANCH   1   2
ATOM      2  N   UNL d   1      50.711  34.485  52.937  0.00  0.00    -0.268 N 
ATOM      3  C   UNL d   1      50.766  34.144  52.189  0.00  0.00     0.296 A 
ATOM      4  S   UNL d   1      51.575  34.051  52.014  0.00  0.00    -0.025 SA
ATOM      5  O   UNL d   1      50.142  33.930  51.696  0.00  0.00    -0.259 OA
ATOM      6  C   UNL d   1      52.003  34.337  52.659  0.00  0.00     0.050 A 
ATOM      7  C   UNL d   1      52.825  34.389  52.802  0.00  0.00     0.008 A 
ATOM      8  C   UNL d   1      51.477  34.604  53.227  0.00  0.00     0.073 A 
ATOM      9  C   UNL d   1      53.096  34.707  53.511  0.00  0.00     0.001 A 
ATOM     10  C   UNL d   1      52.556  34.974  54.079  0.00  0.00     0.002 A 
ATOM     11  C   UNL d   1      51.744  34.923  53.939  0.00  0.00     0.018 A 
ENDBRANCH   1   2
BRANCH   1  12
ATOM     12  C   UNL d   1      49.435  35.137  52.952  0.00  0.00     0.046 C 
BRANCH  12  13
ATOM     13  C   UNL d   1      48.880  35.555  53.394  0.00  0.00     0.124 C 
BRANCH  13  14
ATOM     14  O   UNL d   1      48.174  35.787  53.053  0.00  0.00    -0.305 OA
BRANCH  14  15
ATOM     15  C   UNL d   1      47.458  36.020  52.709  0.00  0.00     0.100 A 
ATOM     16  C   UNL d   1      46.925  36.481  53.136  0.00  0.00     0.023 A 
ATOM     17  C   UNL d   1      47.110  36.709  53.908  0.00  0.00     0.002 C 
ATOM     18  C   UNL d   1      46.219  36.709  52.794  0.00  0.00     0.002 A 
ATOM     19  C   UNL d   1      46.038  36.479  52.023  0.00  0.00     0.000 A 
ATOM     20  C   UNL d   1      46.574  36.017  51.597  0.00  0.00     0.002 A 
ATOM     21  C   UNL d   1      47.289  35.788  51.950  0.00  0.00     0.025 A 
ENDBRANCH  14  15
ENDBRANCH  13  14
ENDBRANCH  12  13
ENDBRANCH   1  12
TORSDOF 5
ENDMDL
