MODEL 1
REMARK VINA RESULT:       5.2      0.000      0.000
REMARK  1 active torsions:
REMARK  status: ('A' for Active; 'I' for Inactive)
REMARK    1  A    between atoms: C_6  and  N_1 
ROOT
ATOM      1  N   UNL d   1     -52.475  23.921  33.343  0.00  0.00    -0.204 N 
ATOM      2  C   UNL d   1     -52.723  24.711  33.329  0.00  0.00     0.271 A 
ATOM      3  C   UNL d   1     -51.647  23.909  33.348  0.00  0.00     0.270 A 
ATOM      4  C   UNL d   1     -52.048  25.187  33.326  0.00  0.00     0.080 A 
ATOM      5  C   UNL d   1     -51.391  24.697  33.337  0.00  0.00     0.064 A 
ATOM      6  O   UNL d   1     -53.504  24.873  33.322  0.00  0.00    -0.266 OA
ATOM      7  O   UNL d   1     -51.169  23.238  33.361  0.00  0.00    -0.266 OA
ATOM      8  N   UNL d   1     -51.207  26.329  33.313  0.00  0.00    -0.242 NA
ATOM      9  C   UNL d   1     -51.966  26.004  33.313  0.00  0.00     0.104 A 
ATOM     10  C   UNL d   1     -50.636  25.025  33.336  0.00  0.00     0.026 A 
ATOM     11  C   UNL d   1     -50.541  25.845  33.324  0.00  0.00     0.099 A 
ENDROOT
BRANCH   1  12
ATOM     12  C   UNL d   1     -52.966  23.255  33.350  0.00  0.00     0.326 C 
ATOM     13  O   UNL d   1     -53.565  23.193  33.915  0.00  0.00    -0.261 OA
ENDBRANCH   1  12
TORSDOF 1
ENDMDL
