MODEL 1
REMARK VINA RESULT:      49.5      0.000      0.000
REMARK  4 active torsions:
REMARK  status: ('A' for Active; 'I' for Inactive)
REMARK    1  A    between atoms: C_10  and  N_1 
REMARK       I    between atoms: C_6  and  N_9 
REMARK    2  A    between atoms: C_8  and  C_6 
REMARK    3  A    between atoms: N_9  and  C_12 
REMARK    4  A    between atoms: C_12  and  C_10 
ROOT
ATOM      1  C   UNL d   1     -51.691  25.462  33.307  0.00  0.00     0.101 C 
ENDROOT
BRANCH   1   2
ATOM      2  N   UNL d   1     -51.950  24.679  33.327  0.00  0.00    -0.304 N 
ATOM      3  C   UNL d   1     -51.465  24.008  33.335  0.00  0.00     0.064 A 
ATOM      4  C   UNL d   1     -51.949  23.343  33.356  0.00  0.00     0.019 A 
ATOM      5  C   UNL d   1     -50.641  24.007  33.323  0.00  0.00     0.019 C 
ATOM      6  C   UNL d   1     -52.735  23.593  33.361  0.00  0.00     0.018 A 
ATOM      7  C   UNL d   1     -52.739  24.419  33.344  0.00  0.00     0.064 A 
ATOM      8  C   UNL d   1     -53.450  23.188  33.380  0.00  0.00     0.002 A 
ATOM      9  C   UNL d   1     -53.446  24.837  33.345  0.00  0.00     0.018 A 
ATOM     10  C   UNL d   1     -54.161  24.432  33.363  0.00  0.00     0.002 A 
ATOM     11  C   UNL d   1     -54.174  23.598  33.381  0.00  0.00     0.000 A 
ENDBRANCH   1   2
BRANCH   1  12
ATOM     12  C   UNL d   1     -50.972  25.666  33.654  0.00  0.00     0.121 C 
BRANCH  12  13
ATOM     13  N   UNL d   1     -50.607  26.378  33.452  0.00  0.00    -0.205 NA
ATOM     14  C   UNL d   1     -50.495  26.963  34.020  0.00  0.00     0.279 C 
ATOM     15  O   UNL d   1     -50.129  27.674  33.819  0.00  0.00    -0.265 OA
BRANCH  14  16
ATOM     16  C   UNL d   1     -50.750  26.834  34.799  0.00  0.00     0.058 A 
ATOM     17  C   UNL d   1     -50.228  26.921  35.407  0.00  0.00     0.005 A 
ATOM     18  C   UNL d   1     -50.476  26.795  36.184  0.00  0.00     0.000 A 
ATOM     19  C   UNL d   1     -51.250  26.580  36.354  0.00  0.00     0.000 A 
ATOM     20  C   UNL d   1     -51.790  26.490  35.720  0.00  0.00     0.000 A 
ATOM     21  C   UNL d   1     -51.534  26.619  34.940  0.00  0.00     0.005 A 
ENDBRANCH  14  16
ENDBRANCH  12  13
ENDBRANCH   1  12
TORSDOF 4
ENDMDL
