MODEL 1
REMARK VINA RESULT:      15.0      0.000      0.000
REMARK  1 active torsions:
REMARK  status: ('A' for Active; 'I' for Inactive)
REMARK    1  A    between atoms: C_9  and  C_2 
ROOT
ATOM      1  N   UNL d   1      46.351 -18.521  42.591  0.00  0.00    -0.204 NA
ATOM      2  C   UNL d   1      46.269 -18.279  43.377  0.00  0.00     0.107 A 
ATOM      3  C   UNL d   1      46.541 -19.314  42.418  0.00  0.00     0.304 A 
ATOM      4  C   UNL d   1      46.000 -17.251  44.337  0.00  0.00     0.020 A 
ATOM      5  O   UNL d   1      46.565 -19.613  43.824  0.00  0.00    -0.299 OA
ATOM      6  C   UNL d   1      46.083 -17.501  43.546  0.00  0.00     0.023 A 
ATOM      7  C   UNL d   1      46.375 -18.821  43.996  0.00  0.00     0.118 A 
ATOM      8  O   UNL d   1      46.623 -19.558  41.637  0.00  0.00    -0.263 OA
ATOM      9  C   UNL d   1      46.105 -17.792  44.949  0.00  0.00     0.004 A 
ATOM     10  C   UNL d   1      46.647 -19.856  43.034  0.00  0.00     0.185 A 
ATOM     11  C   UNL d   1      46.292 -18.573  44.779  0.00  0.00     0.026 A 
ENDROOT
BRANCH   4  12
ATOM     12  C   UNL d   1      45.812 -16.465  44.499  0.00  0.00     0.090 A 
ATOM     13  N   UNL d   1      46.248 -15.813  44.246  0.00  0.00    -0.219 NA
ATOM     14  C   UNL d   1      45.866 -15.135  44.530  0.00  0.00     0.215 A 
ATOM     15  S   UNL d   1      45.201 -15.373  44.955  0.00  0.00    -0.045 SA
ATOM     16  N   UNL d   1      46.112 -14.352  44.408  0.00  0.00    -0.120 N 
ATOM     17  C   UNL d   1      45.168 -16.200  44.935  0.00  0.00     0.058 A 
ENDBRANCH   4  12
TORSDOF 1
ENDMDL
MODEL 2
REMARK VINA RESULT:      15.3      7.781      8.240
REMARK  1 active torsions:
REMARK  status: ('A' for Active; 'I' for Inactive)
REMARK    1  A    between atoms: C_9  and  C_2 
ROOT
ATOM      1  N   UNL d   1      42.498 -15.058  36.645  0.00  0.00    -0.204 NA
ATOM      2  C   UNL d   1      43.202 -15.487  36.588  0.00  0.00     0.107 A 
ATOM      3  C   UNL d   1      41.767 -15.445  36.545  0.00  0.00     0.304 A 
ATOM      4  C   UNL d   1      44.632 -15.535  36.628  0.00  0.00     0.020 A 
ATOM      5  O   UNL d   1      42.455 -16.688  36.330  0.00  0.00    -0.299 OA
ATOM      6  C   UNL d   1      43.919 -15.107  36.686  0.00  0.00     0.023 A 
ATOM      7  C   UNL d   1      43.185 -16.301  36.430  0.00  0.00     0.118 A 
ATOM      8  O   UNL d   1      41.064 -15.021  36.602  0.00  0.00    -0.263 OA
ATOM      9  C   UNL d   1      44.612 -16.343  36.472  0.00  0.00     0.004 A 
ATOM     10  C   UNL d   1      41.748 -16.257  36.388  0.00  0.00     0.185 A 
ATOM     11  C   UNL d   1      43.892 -16.725  36.374  0.00  0.00     0.026 A 
ENDROOT
BRANCH   4  12
ATOM     12  C   UNL d   1      45.352 -15.144  36.729  0.00  0.00     0.090 A 
ATOM     13  N   UNL d   1      45.451 -14.432  37.132  0.00  0.00    -0.219 NA
ATOM     14  C   UNL d   1      46.257 -14.241  37.100  0.00  0.00     0.215 A 
ATOM     15  S   UNL d   1      46.645 -14.833  36.679  0.00  0.00    -0.045 SA
ATOM     16  N   UNL d   1      46.609 -13.568  37.434  0.00  0.00    -0.120 N 
ATOM     17  C   UNL d   1      46.083 -15.394  36.449  0.00  0.00     0.058 A 
ENDBRANCH   4  12
TORSDOF 1
ENDMDL
MODEL 3
REMARK VINA RESULT:      15.3      7.772      8.350
REMARK  1 active torsions:
REMARK  status: ('A' for Active; 'I' for Inactive)
REMARK    1  A    between atoms: C_9  and  C_2 
ROOT
ATOM      1  N   UNL d   1      45.339 -14.232  37.026  0.00  0.00    -0.204 NA
ATOM      2  C   UNL d   1      44.996 -14.947  36.794  0.00  0.00     0.107 A 
ATOM      3  C   UNL d   1      46.168 -14.171  37.089  0.00  0.00     0.304 A 
ATOM      4  C   UNL d   1      43.832 -15.726  36.499  0.00  0.00     0.020 A 
ATOM      5  O   UNL d   1      46.300 -15.544  36.687  0.00  0.00    -0.299 OA
ATOM      6  C   UNL d   1      44.183 -15.008  36.732  0.00  0.00     0.023 A 
ATOM      7  C   UNL d   1      45.472 -15.605  36.623  0.00  0.00     0.118 A 
ATOM      8  O   UNL d   1      46.513 -13.460  37.320  0.00  0.00    -0.263 OA
ATOM      9  C   UNL d   1      44.307 -16.377  36.330  0.00  0.00     0.004 A 
ATOM     10  C   UNL d   1      46.644 -14.825  36.920  0.00  0.00     0.185 A 
ATOM     11  C   UNL d   1      45.124 -16.317  36.392  0.00  0.00     0.026 A 
ENDROOT
BRANCH   4  12
ATOM     12  C   UNL d   1      43.011 -15.780  36.439  0.00  0.00     0.090 A 
ATOM     13  N   UNL d   1      42.495 -15.136  36.430  0.00  0.00    -0.219 NA
ATOM     14  C   UNL d   1      41.726 -15.438  36.363  0.00  0.00     0.215 A 
ATOM     15  S   UNL d   1      41.774 -16.260  36.330  0.00  0.00    -0.045 SA
ATOM     16  N   UNL d   1      41.030 -14.988  36.333  0.00  0.00    -0.120 N 
ATOM     17  C   UNL d   1      42.572 -16.471  36.378  0.00  0.00     0.058 A 
ENDBRANCH   4  12
TORSDOF 1
ENDMDL
