MODEL 1
REMARK VINA RESULT:      -1.6      0.000      0.000
REMARK  2 active torsions:
REMARK  status: ('A' for Active; 'I' for Inactive)
REMARK    1  A    between atoms: C_8  and  C_2 
REMARK    2  A    between atoms: C_9  and  C_4 
ROOT
ATOM      1  N   UNL d   1      29.786  17.381 -24.483  0.00  0.00    -0.246 NA
ATOM      2  C   UNL d   1      31.169  16.618 -24.008  0.00  0.00     0.003 A 
ATOM      3  C   UNL d   1      31.209  17.364 -24.356  0.00  0.00     0.018 A 
ATOM      4  C   UNL d   1      29.745  16.634 -24.135  0.00  0.00     0.081 A 
ATOM      5  C   UNL d   1      30.438  16.252 -23.897  0.00  0.00     0.019 A 
ATOM      6  C   UNL d   1      30.517  17.746 -24.594  0.00  0.00     0.081 A 
ATOM      7  C   UNL d   1      31.940  17.729 -24.467  0.00  0.00     0.002 A 
ATOM      8  C   UNL d   1      30.557  18.492 -24.942  0.00  0.00     0.019 A 
ATOM      9  C   UNL d   1      31.980  18.476 -24.815  0.00  0.00     0.000 A 
ATOM     10  C   UNL d   1      31.288  18.858 -25.053  0.00  0.00     0.002 A 
ATOM     11  C   UNL d   1      32.681  18.797 -24.908  0.00  0.00     0.000 C 
ENDROOT
BRANCH   2  12
ATOM     12  C   UNL d   1      31.857  16.238 -23.771  0.00  0.00     0.000 A 
ATOM     13  C   UNL d   1      32.316  15.835 -24.326  0.00  0.00     0.000 A 
ATOM     14  C   UNL d   1      33.008  15.453 -24.088  0.00  0.00     0.000 A 
ATOM     15  C   UNL d   1      33.240  15.475 -23.296  0.00  0.00     0.000 A 
ATOM     16  C   UNL d   1      32.781  15.878 -22.743  0.00  0.00     0.000 A 
ATOM     17  C   UNL d   1      32.088  16.261 -22.981  0.00  0.00     0.000 A 
ENDBRANCH   2  12
BRANCH   4  18
ATOM     18  C   UNL d   1      29.014  16.269 -24.024  0.00  0.00     0.021 A 
ATOM     19  C   UNL d   1      28.681  15.819 -24.630  0.00  0.00     0.022 A 
ATOM     20  C   UNL d   1      27.950  15.454 -24.519  0.00  0.00     0.099 A 
ATOM     21  N   UNL d   1      27.552  15.539 -23.802  0.00  0.00    -0.242 NA
ATOM     22  C   UNL d   1      27.910  15.983 -23.243  0.00  0.00     0.099 A 
ATOM     23  C   UNL d   1      28.616  16.354 -23.307  0.00  0.00     0.022 A 
ENDBRANCH   4  18
TORSDOF 2
ENDMDL
MODEL 2
REMARK VINA RESULT:       0.1      1.272      2.390
REMARK  2 active torsions:
REMARK  status: ('A' for Active; 'I' for Inactive)
REMARK    1  A    between atoms: C_8  and  C_2 
REMARK    2  A    between atoms: C_9  and  C_4 
ROOT
ATOM      1  N   UNL d   1      30.156  16.611 -24.441  0.00  0.00    -0.246 NA
ATOM      2  C   UNL d   1      31.380  17.670 -24.121  0.00  0.00     0.003 A 
ATOM      3  C   UNL d   1      31.549  16.932 -24.446  0.00  0.00     0.018 A 
ATOM      4  C   UNL d   1      29.987  17.350 -24.115  0.00  0.00     0.081 A 
ATOM      5  C   UNL d   1      30.600  17.881 -23.955  0.00  0.00     0.019 A 
ATOM      6  C   UNL d   1      30.936  16.401 -24.606  0.00  0.00     0.081 A 
ATOM      7  C   UNL d   1      32.329  16.722 -24.611  0.00  0.00     0.002 A 
ATOM      8  C   UNL d   1      31.105  15.663 -24.931  0.00  0.00     0.019 A 
ATOM      9  C   UNL d   1      32.498  15.983 -24.936  0.00  0.00     0.000 A 
ATOM     10  C   UNL d   1      31.885  15.453 -25.096  0.00  0.00     0.002 A 
ATOM     11  C   UNL d   1      33.241  15.810 -25.082  0.00  0.00     0.000 C 
ENDROOT
BRANCH   2  12
ATOM     12  C   UNL d   1      31.989  18.196 -23.961  0.00  0.00     0.000 A 
ATOM     13  C   UNL d   1      32.330  18.217 -23.210  0.00  0.00     0.000 A 
ATOM     14  C   UNL d   1      32.943  18.747 -23.050  0.00  0.00     0.000 A 
ATOM     15  C   UNL d   1      33.213  19.255 -23.641  0.00  0.00     0.000 A 
ATOM     16  C   UNL d   1      32.872  19.235 -24.392  0.00  0.00     0.000 A 
ATOM     17  C   UNL d   1      32.259  18.704 -24.552  0.00  0.00     0.000 A 
ENDBRANCH   2  12
BRANCH   4  18
ATOM     18  C   UNL d   1      29.207  17.560 -23.950  0.00  0.00     0.021 A 
ATOM     19  C   UNL d   1      28.763  17.113 -23.418  0.00  0.00     0.022 A 
ATOM     20  C   UNL d   1      27.983  17.322 -23.253  0.00  0.00     0.099 A 
ATOM     21  N   UNL d   1      27.646  17.980 -23.620  0.00  0.00    -0.242 NA
ATOM     22  C   UNL d   1      28.112  18.384 -24.127  0.00  0.00     0.099 A 
ATOM     23  C   UNL d   1      28.870  18.218 -24.317  0.00  0.00     0.022 A 
ENDBRANCH   4  18
TORSDOF 2
ENDMDL
MODEL 3
REMARK VINA RESULT:       0.8      1.516      3.697
REMARK  2 active torsions:
REMARK  status: ('A' for Active; 'I' for Inactive)
REMARK    1  A    between atoms: C_8  and  C_2 
REMARK    2  A    between atoms: C_9  and  C_4 
ROOT
ATOM      1  N   UNL d   1      31.376  18.731 -24.507  0.00  0.00    -0.246 NA
ATOM      2  C   UNL d   1      32.123  17.418 -23.843  0.00  0.00     0.003 A 
ATOM      3  C   UNL d   1      31.377  17.338 -24.186  0.00  0.00     0.018 A 
ATOM      4  C   UNL d   1      32.122  18.811 -24.164  0.00  0.00     0.081 A 
ATOM      5  C   UNL d   1      32.496  18.154 -23.832  0.00  0.00     0.019 A 
ATOM      6  C   UNL d   1      31.003  17.995 -24.518  0.00  0.00     0.081 A 
ATOM      7  C   UNL d   1      31.005  16.603 -24.197  0.00  0.00     0.002 A 
ATOM      8  C   UNL d   1      30.258  17.916 -24.861  0.00  0.00     0.019 A 
ATOM      9  C   UNL d   1      30.259  16.522 -24.540  0.00  0.00     0.000 A 
ATOM     10  C   UNL d   1      29.885  17.180 -24.872  0.00  0.00     0.002 A 
ATOM     11  C   UNL d   1      29.930  15.819 -24.537  0.00  0.00     0.000 C 
ENDROOT
BRANCH   2  12
ATOM     12  C   UNL d   1      32.494  16.765 -23.513  0.00  0.00     0.000 A 
ATOM     13  C   UNL d   1      32.524  16.680 -22.693  0.00  0.00     0.000 A 
ATOM     14  C   UNL d   1      32.898  16.022 -22.361  0.00  0.00     0.000 A 
ATOM     15  C   UNL d   1      33.241  15.453 -22.849  0.00  0.00     0.000 A 
ATOM     16  C   UNL d   1      33.211  15.539 -23.668  0.00  0.00     0.000 A 
ATOM     17  C   UNL d   1      32.837  16.196 -24.001  0.00  0.00     0.000 A 
ENDBRANCH   2  12
BRANCH   4  18
ATOM     18  C   UNL d   1      32.495  19.546 -24.153  0.00  0.00     0.021 A 
ATOM     19  C   UNL d   1      32.832  19.849 -24.843  0.00  0.00     0.022 A 
ATOM     20  C   UNL d   1      33.204  20.585 -24.832  0.00  0.00     0.099 A 
ATOM     21  N   UNL d   1      33.240  21.018 -24.131  0.00  0.00    -0.242 NA
ATOM     22  C   UNL d   1      32.901  20.687 -23.488  0.00  0.00     0.099 A 
ATOM     23  C   UNL d   1      32.530  19.980 -23.452  0.00  0.00     0.022 A 
ENDBRANCH   4  18
TORSDOF 2
ENDMDL
MODEL 4
REMARK VINA RESULT:       1.0      3.991      5.906
REMARK  2 active torsions:
REMARK  status: ('A' for Active; 'I' for Inactive)
REMARK    1  A    between atoms: C_8  and  C_2 
REMARK    2  A    between atoms: C_9  and  C_4 
ROOT
ATOM      1  N   UNL d   1      33.030  19.975 -21.948  0.00  0.00    -0.246 NA
ATOM      2  C   UNL d   1      32.788  21.467 -22.609  0.00  0.00     0.003 A 
ATOM      3  C   UNL d   1      32.937  21.393 -21.801  0.00  0.00     0.018 A 
ATOM      4  C   UNL d   1      32.881  20.048 -22.756  0.00  0.00     0.081 A 
ATOM      5  C   UNL d   1      32.760  20.795 -23.087  0.00  0.00     0.019 A 
ATOM      6  C   UNL d   1      33.058  20.646 -21.470  0.00  0.00     0.081 A 
ATOM      7  C   UNL d   1      32.965  22.065 -21.324  0.00  0.00     0.002 A 
ATOM      8  C   UNL d   1      33.207  20.572 -20.663  0.00  0.00     0.019 A 
ATOM      9  C   UNL d   1      33.114  21.991 -20.516  0.00  0.00     0.000 A 
ATOM     10  C   UNL d   1      33.236  21.244 -20.185  0.00  0.00     0.002 A 
ATOM     11  C   UNL d   1      33.135  22.640 -20.089  0.00  0.00     0.000 C 
ENDROOT
BRANCH   2  12
ATOM     12  C   UNL d   1      32.668  22.209 -22.937  0.00  0.00     0.000 A 
ATOM     13  C   UNL d   1      33.241  22.538 -23.431  0.00  0.00     0.000 A 
ATOM     14  C   UNL d   1      33.119  23.285 -23.762  0.00  0.00     0.000 A 
ATOM     15  C   UNL d   1      32.425  23.701 -23.598  0.00  0.00     0.000 A 
ATOM     16  C   UNL d   1      31.853  23.371 -23.105  0.00  0.00     0.000 A 
ATOM     17  C   UNL d   1      31.975  22.624 -22.774  0.00  0.00     0.000 A 
ENDBRANCH   2  12
BRANCH   4  18
ATOM     18  C   UNL d   1      32.853  19.376 -23.233  0.00  0.00     0.021 A 
ATOM     19  C   UNL d   1      33.113  19.414 -24.015  0.00  0.00     0.022 A 
ATOM     20  C   UNL d   1      33.085  18.743 -24.493  0.00  0.00     0.099 A 
ATOM     21  N   UNL d   1      32.797  18.032 -24.188  0.00  0.00    -0.242 NA
ATOM     22  C   UNL d   1      32.556  18.040 -23.427  0.00  0.00     0.099 A 
ATOM     23  C   UNL d   1      32.565  18.666 -22.929  0.00  0.00     0.022 A 
ENDBRANCH   4  18
TORSDOF 2
ENDMDL
