MODEL 1
REMARK VINA RESULT:      62.6      0.000      0.000
REMARK  10 active torsions:
REMARK  status: ('A' for Active; 'I' for Inactive)
REMARK       I    between atoms: C_6  and  N_1 
REMARK    1  A    between atoms: C_7  and  C_3 
REMARK    2  A    between atoms: C_9  and  C_4 
REMARK    3  A    between atoms: C_19  and  C_6 
REMARK    4  A    between atoms: C_10  and  C_25 
REMARK    5  A    between atoms: O_23  and  C_10 
REMARK    6  A    between atoms: S_18  and  C_19 
REMARK    7  A    between atoms: C_25  and  S_18 
REMARK    8  A    between atoms: C_26  and  O_23 
REMARK    9  A    between atoms: C_27  and  C_26 
REMARK   10  A    between atoms: C_28  and  C_27 
ROOT
ATOM      1  N   UNL d   1     -50.998  25.793  33.439  0.00  0.00    -0.195 N 
ATOM      2  N   UNL d   1     -51.804  25.960  33.469  0.00  0.00    -0.162 NA
ATOM      3  C   UNL d   1     -52.207  25.270  33.483  0.00  0.00     0.109 A 
ATOM      4  C   UNL d   1     -50.920  24.974  33.434  0.00  0.00     0.088 A 
ATOM      5  C   UNL d   1     -51.666  24.647  33.462  0.00  0.00     0.041 A 
ATOM      6  C   UNL d   1     -50.378  26.347  33.416  0.00  0.00     0.275 C 
ATOM      7  O   UNL d   1     -49.597  26.097  33.386  0.00  0.00    -0.266 OA
ENDROOT
BRANCH   4   8
ATOM      8  C   UNL d   1     -50.230  24.534  33.408  0.00  0.00     0.018 A 
ATOM      9  C   UNL d   1     -50.271  23.715  33.342  0.00  0.00     0.004 A 
ATOM     10  C   UNL d   1     -49.581  23.275  33.315  0.00  0.00     0.030 A 
ATOM     11  C   UNL d   1     -48.844  23.640  33.353  0.00  0.00     0.140 A 
ATOM     12  C   UNL d   1     -48.811  24.471  33.420  0.00  0.00     0.030 A 
ATOM     13  F   UNL d   1     -48.156  23.190  33.326  0.00  0.00    -0.204 F 
ATOM     14  C   UNL d   1     -49.497  24.913  33.447  0.00  0.00     0.004 A 
ENDBRANCH   4   8
BRANCH   6  15
ATOM     15  C   UNL d   1     -50.552  27.154  33.424  0.00  0.00     0.127 C 
BRANCH  15  16
ATOM     16  S   UNL d   1     -49.947  27.708  33.465  0.00  0.00    -0.089 SA
BRANCH  16  17
ATOM     17  C   UNL d   1     -49.608  27.888  34.190  0.00  0.00     0.103 C 
BRANCH  17  18
ATOM     18  C   UNL d   1     -49.263  28.623  34.323  0.00  0.00     0.307 C 
ATOM     19  O   UNL d   1     -49.427  29.248  33.807  0.00  0.00    -0.258 OA
BRANCH  18  20
ATOM     20  O   UNL d   1     -48.753  28.742  34.966  0.00  0.00    -0.271 OA
BRANCH  20  21
ATOM     21  C   UNL d   1     -48.528  29.501  35.179  0.00  0.00     0.126 C 
BRANCH  21  22
ATOM     22  C   UNL d   1     -47.720  29.704  35.198  0.00  0.00     0.027 C 
BRANCH  22  23
ATOM     23  C   UNL d   1     -47.423  30.154  35.822  0.00  0.00     0.002 C 
ATOM     24  C   UNL d   1     -47.020  30.854  35.656  0.00  0.00     0.000 C 
ENDBRANCH  22  23
ENDBRANCH  21  22
ENDBRANCH  20  21
ENDBRANCH  18  20
ENDBRANCH  17  18
ENDBRANCH  16  17
ENDBRANCH  15  16
ENDBRANCH   6  15
BRANCH   3  25
ATOM     25  C   UNL d   1     -53.031  25.234  33.514  0.00  0.00     0.049 A 
ATOM     26  S   UNL d   1     -53.630  25.758  33.704  0.00  0.00    -0.085 SA
ATOM     27  C   UNL d   1     -54.350  25.369  33.623  0.00  0.00     0.035 A 
ATOM     28  C   UNL d   1     -54.200  24.594  33.380  0.00  0.00     0.007 A 
ATOM     29  C   UNL d   1     -53.382  24.507  33.312  0.00  0.00     0.009 A 
ENDBRANCH   3  25
TORSDOF 10
ENDMDL
