MODEL 1
REMARK VINA RESULT:       3.0      0.000      0.000
REMARK  10 active torsions:
REMARK  status: ('A' for Active; 'I' for Inactive)
REMARK    1  A    between atoms: C_5  and  C_1 
REMARK    2  A    between atoms: N_6  and  C_2 
REMARK    3  A    between atoms: C_7  and  C_5 
REMARK    4  A    between atoms: C_8  and  C_5 
REMARK    5  A    between atoms: O_18  and  C_7 
REMARK    6  A    between atoms: C_22  and  O_18 
REMARK    7  A    between atoms: C_23  and  C_22 
REMARK    8  A    between atoms: C_26  and  C_23 
REMARK    9  A    between atoms: C_24  and  C_25 
REMARK   10  A    between atoms: C_25  and  C_26 
ROOT
ATOM      1  C   UNL d   1      30.427  17.854 -23.896  0.00  0.00     0.122 A 
ATOM      2  C   UNL d   1      30.434  17.029 -23.957  0.00  0.00     0.166 A 
ATOM      3  N   UNL d   1      29.738  16.611 -23.814  0.00  0.00    -0.225 NA
ATOM      4  N   UNL d   1      29.731  18.256 -23.694  0.00  0.00    -0.241 NA
ATOM      5  C   UNL d   1      29.046  17.001 -23.613  0.00  0.00     0.101 A 
ATOM      6  C   UNL d   1      29.042  17.830 -23.553  0.00  0.00     0.099 A 
ATOM      7  C   UNL d   1      28.350  18.224 -23.352  0.00  0.00     0.021 A 
ATOM      8  C   UNL d   1      28.349  16.575 -23.470  0.00  0.00     0.021 A 
ATOM      9  C   UNL d   1      27.654  16.977 -23.268  0.00  0.00     0.002 A 
ATOM     10  C   UNL d   1      27.654  17.798 -23.210  0.00  0.00     0.002 A 
ENDROOT
BRANCH   1  11
ATOM     11  C   UNL d   1      31.124  18.293 -24.038  0.00  0.00     0.105 C 
BRANCH  11  12
ATOM     12  C   UNL d   1      31.581  18.572 -23.413  0.00  0.00     0.303 C 
ATOM     13  O   UNL d   1      31.580  18.169 -22.691  0.00  0.00    -0.259 OA
BRANCH  12  14
ATOM     14  O   UNL d   1      32.037  19.250 -23.508  0.00  0.00    -0.271 OA
BRANCH  14  15
ATOM     15  C   UNL d   1      32.575  19.463 -22.912  0.00  0.00     0.126 C 
BRANCH  15  16
ATOM     16  C   UNL d   1      32.640  20.251 -22.687  0.00  0.00     0.027 C 
BRANCH  16  17
ATOM     17  C   UNL d   1      32.584  20.454 -21.891  0.00  0.00     0.002 C 
BRANCH  17  18
ATOM     18  C   UNL d   1      32.275  21.185 -21.678  0.00  0.00     0.000 C 
BRANCH  18  19
ATOM     19  C   UNL d   1      31.958  21.296 -20.925  0.00  0.00     0.000 C 
ATOM     20  C   UNL d   1      32.063  22.013 -20.544  0.00  0.00     0.000 C 
ENDBRANCH  18  19
ENDBRANCH  17  18
ENDBRANCH  16  17
ENDBRANCH  15  16
ENDBRANCH  14  15
ENDBRANCH  12  14
ENDBRANCH  11  12
BRANCH  11  21
ATOM     21  C   UNL d   1      31.360  18.451 -24.828  0.00  0.00     0.129 C 
ATOM     22  N   UNL d   1      32.255  18.684 -25.059  0.00  0.00    -0.146 N 
ENDBRANCH  11  21
ENDBRANCH   1  11
BRANCH   2  23
ATOM     23  N   UNL d   1      31.131  16.635 -24.159  0.00  0.00    -0.285 N 
ATOM     24  C   UNL d   1      31.750  16.590 -23.607  0.00  0.00     0.101 A 
ATOM     25  C   UNL d   1      32.448  16.200 -23.797  0.00  0.00     0.100 A 
ATOM     26  N   UNL d   1      32.531  15.851 -24.545  0.00  0.00    -0.299 N 
ATOM     27  C   UNL d   1      31.913  15.897 -25.097  0.00  0.00     0.100 A 
ATOM     28  C   UNL d   1      33.239  15.453 -24.746  0.00  0.00     0.100 C 
ATOM     29  C   UNL d   1      31.209  16.291 -24.901  0.00  0.00     0.101 A 
ENDBRANCH   2  23
TORSDOF 10
ENDMDL
MODEL 2
REMARK VINA RESULT:       3.2      2.917      6.214
REMARK  10 active torsions:
REMARK  status: ('A' for Active; 'I' for Inactive)
REMARK    1  A    between atoms: C_5  and  C_1 
REMARK    2  A    between atoms: N_6  and  C_2 
REMARK    3  A    between atoms: C_7  and  C_5 
REMARK    4  A    between atoms: C_8  and  C_5 
REMARK    5  A    between atoms: O_18  and  C_7 
REMARK    6  A    between atoms: C_22  and  O_18 
REMARK    7  A    between atoms: C_23  and  C_22 
REMARK    8  A    between atoms: C_26  and  C_23 
REMARK    9  A    between atoms: C_24  and  C_25 
REMARK   10  A    between atoms: C_25  and  C_26 
ROOT
ATOM      1  C   UNL d   1      32.904  21.958 -21.226  0.00  0.00     0.122 A 
ATOM      2  C   UNL d   1      32.691  22.739 -21.393  0.00  0.00     0.166 A 
ATOM      3  N   UNL d   1      32.591  23.269 -20.769  0.00  0.00    -0.225 NA
ATOM      4  N   UNL d   1      33.016  21.709 -20.444  0.00  0.00    -0.241 NA
ATOM      5  C   UNL d   1      32.699  23.030 -19.993  0.00  0.00     0.101 A 
ATOM      6  C   UNL d   1      32.913  22.244 -19.828  0.00  0.00     0.099 A 
ATOM      7  C   UNL d   1      33.022  22.002 -19.051  0.00  0.00     0.021 A 
ATOM      8  C   UNL d   1      32.596  23.567 -19.369  0.00  0.00     0.021 A 
ATOM      9  C   UNL d   1      32.708  23.318 -18.587  0.00  0.00     0.002 A 
ATOM     10  C   UNL d   1      32.920  22.538 -18.429  0.00  0.00     0.002 A 
ENDROOT
BRANCH   1  11
ATOM     11  C   UNL d   1      33.010  21.409 -21.847  0.00  0.00     0.105 C 
BRANCH  11  12
ATOM     12  C   UNL d   1      32.925  20.601 -21.714  0.00  0.00     0.303 C 
ATOM     13  O   UNL d   1      32.595  20.333 -21.005  0.00  0.00    -0.259 OA
BRANCH  12  14
ATOM     14  O   UNL d   1      33.170  20.062 -22.287  0.00  0.00    -0.271 OA
BRANCH  14  15
ATOM     15  C   UNL d   1      32.761  19.343 -22.366  0.00  0.00     0.126 C 
BRANCH  15  16
ATOM     16  C   UNL d   1      32.972  18.822 -22.965  0.00  0.00     0.027 C 
BRANCH  16  17
ATOM     17  C   UNL d   1      32.447  18.231 -23.195  0.00  0.00     0.002 C 
BRANCH  17  18
ATOM     18  C   UNL d   1      32.590  17.452 -22.978  0.00  0.00     0.000 C 
BRANCH  18  19
ATOM     19  C   UNL d   1      32.100  16.848 -23.255  0.00  0.00     0.000 C 
ATOM     20  C   UNL d   1      31.838  16.271 -22.737  0.00  0.00     0.000 C 
ENDBRANCH  18  19
ENDBRANCH  17  18
ENDBRANCH  16  17
ENDBRANCH  15  16
ENDBRANCH  14  15
ENDBRANCH  12  14
ENDBRANCH  11  12
BRANCH  11  21
ATOM     21  C   UNL d   1      33.205  21.685 -22.616  0.00  0.00     0.129 C 
ATOM     22  N   UNL d   1      33.136  21.135 -23.391  0.00  0.00    -0.146 N 
ENDBRANCH  11  21
ENDBRANCH   1  11
BRANCH   2  23
ATOM     23  N   UNL d   1      32.582  22.981 -22.175  0.00  0.00    -0.285 N 
ATOM     24  C   UNL d   1      31.832  22.908 -22.524  0.00  0.00     0.101 A 
ATOM     25  C   UNL d   1      31.712  23.145 -23.302  0.00  0.00     0.100 A 
ATOM     26  N   UNL d   1      32.345  23.459 -23.737  0.00  0.00    -0.299 N 
ATOM     27  C   UNL d   1      33.095  23.531 -23.387  0.00  0.00     0.100 A 
ATOM     28  C   UNL d   1      32.231  23.702 -24.529  0.00  0.00     0.100 C 
ATOM     29  C   UNL d   1      33.212  23.291 -22.602  0.00  0.00     0.101 A 
ENDBRANCH   2  23
TORSDOF 10
ENDMDL
