MODEL 1
REMARK VINA RESULT:      -8.0      0.000      0.000
REMARK  4 active torsions:
REMARK  status: ('A' for Active; 'I' for Inactive)
REMARK    1  A    between atoms: C_6  and  N_1 
REMARK    2  A    between atoms: C_3  and  C_4 
REMARK    3  A    between atoms: C_5  and  C_3 
REMARK       I    between atoms: C_4  and  N_10 
REMARK    4  A    between atoms: N_10  and  C_13 
ROOT
ATOM      1  C   UNL d   1     -49.011  11.810  22.881  0.00  0.00     0.281 C 
ATOM      2  N   UNL d   1     -48.546  12.065  23.514  0.00  0.00    -0.208 NA
ATOM      3  O   UNL d   1     -48.657  11.421  22.245  0.00  0.00    -0.265 OA
ENDROOT
BRANCH   1   4
ATOM      4  C   UNL d   1     -49.824  11.943  22.886  0.00  0.00     0.086 C 
BRANCH   4   5
ATOM      5  C   UNL d   1     -50.149  12.558  22.432  0.00  0.00     0.144 A 
ATOM      6  C   UNL d   1     -50.732  13.042  22.757  0.00  0.00     0.297 A 
ATOM      7  N   UNL d   1     -51.063  13.658  22.314  0.00  0.00    -0.204 NA
ATOM      8  O   UNL d   1     -50.989  12.912  23.535  0.00  0.00    -0.264 OA
ATOM      9  C   UNL d   1     -50.799  13.774  21.545  0.00  0.00     0.123 A 
ATOM     10  C   UNL d   1     -50.216  13.290  21.220  0.00  0.00     0.120 A 
ATOM     11  N   UNL d   1     -49.897  12.688  21.664  0.00  0.00    -0.237 NA
ENDBRANCH   4   5
ENDBRANCH   1   4
BRANCH   2  12
ATOM     12  C   UNL d   1     -47.733  11.932  23.509  0.00  0.00     0.086 A 
ATOM     13  C   UNL d   1     -47.220  12.549  23.319  0.00  0.00     0.043 A 
ATOM     14  C   UNL d   1     -46.407  12.414  23.314  0.00  0.00     0.128 A 
ATOM     15  C   UNL d   1     -46.110  11.667  23.499  0.00  0.00     0.024 A 
ATOM     16  C   UNL d   1     -46.627  11.054  23.688  0.00  0.00     0.003 A 
ATOM     17  C   UNL d   1     -47.438  11.188  23.692  0.00  0.00     0.019 A 
BRANCH  14  18
ATOM     18  N   UNL d   1     -45.891  13.028  23.125  0.00  0.00    -0.114 N 
ATOM     19  O   UNL d   1     -45.370  12.958  22.490  0.00  0.00    -0.532 OA
ATOM     20  O   UNL d   1     -45.891  13.730  23.576  0.00  0.00    -0.532 OA
ENDBRANCH  14  18
ENDBRANCH   2  12
TORSDOF 4
ENDMDL
MODEL 2
REMARK VINA RESULT:      -7.7      1.410      1.617
REMARK  4 active torsions:
REMARK  status: ('A' for Active; 'I' for Inactive)
REMARK    1  A    between atoms: C_6  and  N_1 
REMARK    2  A    between atoms: C_3  and  C_4 
REMARK    3  A    between atoms: C_5  and  C_3 
REMARK       I    between atoms: C_4  and  N_10 
REMARK    4  A    between atoms: N_10  and  C_13 
ROOT
ATOM      1  C   UNL d   1     -48.269  13.743  22.601  0.00  0.00     0.281 C 
ATOM      2  N   UNL d   1     -47.875  13.565  23.305  0.00  0.00    -0.208 NA
ATOM      3  O   UNL d   1     -48.245  13.208  21.973  0.00  0.00    -0.265 OA
ENDROOT
BRANCH   1   4
ATOM      4  C   UNL d   1     -48.682  14.451  22.527  0.00  0.00     0.086 C 
BRANCH   4   5
ATOM      5  C   UNL d   1     -49.479  14.448  22.293  0.00  0.00     0.144 A 
ATOM      6  C   UNL d   1     -49.977  15.063  22.527  0.00  0.00     0.297 A 
ATOM      7  N   UNL d   1     -50.772  15.070  22.300  0.00  0.00    -0.204 NA
ATOM      8  O   UNL d   1     -49.678  15.680  22.995  0.00  0.00    -0.264 OA
ATOM      9  C   UNL d   1     -51.054  14.453  21.837  0.00  0.00     0.123 A 
ATOM     10  C   UNL d   1     -50.556  13.839  21.603  0.00  0.00     0.120 A 
ATOM     11  N   UNL d   1     -49.777  13.841  21.831  0.00  0.00    -0.237 NA
ENDBRANCH   4   5
ENDBRANCH   1   4
BRANCH   2  12
ATOM     12  C   UNL d   1     -47.462  12.856  23.378  0.00  0.00     0.086 A 
ATOM     13  C   UNL d   1     -46.656  12.835  23.204  0.00  0.00     0.043 A 
ATOM     14  C   UNL d   1     -46.243  12.125  23.278  0.00  0.00     0.128 A 
ATOM     15  C   UNL d   1     -46.635  11.443  23.525  0.00  0.00     0.024 A 
ATOM     16  C   UNL d   1     -47.439  11.469  23.698  0.00  0.00     0.003 A 
ATOM     17  C   UNL d   1     -47.852  12.177  23.624  0.00  0.00     0.019 A 
BRANCH  14  18
ATOM     18  N   UNL d   1     -45.439  12.100  23.105  0.00  0.00    -0.114 N 
ATOM     19  O   UNL d   1     -45.091  12.683  22.636  0.00  0.00    -0.532 OA
ATOM     20  O   UNL d   1     -44.964  11.483  23.404  0.00  0.00    -0.532 OA
ENDBRANCH  14  18
ENDBRANCH   2  12
TORSDOF 4
ENDMDL
MODEL 3
REMARK VINA RESULT:      -7.7      1.645      4.543
REMARK  4 active torsions:
REMARK  status: ('A' for Active; 'I' for Inactive)
REMARK    1  A    between atoms: C_6  and  N_1 
REMARK    2  A    between atoms: C_3  and  C_4 
REMARK    3  A    between atoms: C_5  and  C_3 
REMARK       I    between atoms: C_4  and  N_10 
REMARK    4  A    between atoms: N_10  and  C_13 
ROOT
ATOM      1  C   UNL d   1     -47.665  14.071  22.993  0.00  0.00     0.281 C 
ATOM      2  N   UNL d   1     -48.042  14.454  22.366  0.00  0.00    -0.208 NA
ATOM      3  O   UNL d   1     -48.101  13.850  23.658  0.00  0.00    -0.265 OA
ENDROOT
BRANCH   1   4
ATOM      4  C   UNL d   1     -46.858  13.912  22.954  0.00  0.00     0.086 C 
BRANCH   4   5
ATOM      5  C   UNL d   1     -46.574  13.150  23.120  0.00  0.00     0.144 A 
ATOM      6  C   UNL d   1     -45.821  12.929  22.864  0.00  0.00     0.297 A 
ATOM      7  N   UNL d   1     -45.528  12.172  23.023  0.00  0.00    -0.204 NA
ATOM      8  O   UNL d   1     -45.354  13.470  22.442  0.00  0.00    -0.264 OA
ATOM      9  C   UNL d   1     -46.001  11.647  23.441  0.00  0.00     0.123 A 
ATOM     10  C   UNL d   1     -46.754  11.868  23.697  0.00  0.00     0.120 A 
ATOM     11  N   UNL d   1     -47.032  12.614  23.535  0.00  0.00    -0.237 NA
ENDBRANCH   4   5
ENDBRANCH   1   4
BRANCH   2  12
ATOM     12  C   UNL d   1     -48.849  14.614  22.405  0.00  0.00     0.086 A 
ATOM     13  C   UNL d   1     -49.383  14.109  22.030  0.00  0.00     0.043 A 
ATOM     14  C   UNL d   1     -50.190  14.269  22.070  0.00  0.00     0.128 A 
ATOM     15  C   UNL d   1     -50.461  14.930  22.483  0.00  0.00     0.024 A 
ATOM     16  C   UNL d   1     -49.924  15.431  22.856  0.00  0.00     0.003 A 
ATOM     17  C   UNL d   1     -49.118  15.272  22.816  0.00  0.00     0.019 A 
BRANCH  14  18
ATOM     18  N   UNL d   1     -50.726  13.768  21.696  0.00  0.00    -0.114 N 
ATOM     19  O   UNL d   1     -51.012  13.096  22.081  0.00  0.00    -0.532 OA
ATOM     20  O   UNL d   1     -50.986  13.934  20.921  0.00  0.00    -0.532 OA
ENDBRANCH  14  18
ENDBRANCH   2  12
TORSDOF 4
ENDMDL
MODEL 4
REMARK VINA RESULT:      -7.5      1.246      4.106
REMARK  4 active torsions:
REMARK  status: ('A' for Active; 'I' for Inactive)
REMARK    1  A    between atoms: C_6  and  N_1 
REMARK    2  A    between atoms: C_3  and  C_4 
REMARK    3  A    between atoms: C_5  and  C_3 
REMARK       I    between atoms: C_4  and  N_10 
REMARK    4  A    between atoms: N_10  and  C_13 
ROOT
ATOM      1  C   UNL d   1     -47.788  12.215  23.415  0.00  0.00     0.281 C 
ATOM      2  N   UNL d   1     -48.338  11.686  23.099  0.00  0.00    -0.208 NA
ATOM      3  O   UNL d   1     -48.042  12.947  23.698  0.00  0.00    -0.265 OA
ENDROOT
BRANCH   1   4
ATOM      4  C   UNL d   1     -46.991  12.011  23.446  0.00  0.00     0.086 C 
BRANCH   4   5
ATOM      5  C   UNL d   1     -46.426  12.470  23.046  0.00  0.00     0.144 A 
ATOM      6  C   UNL d   1     -45.636  12.232  23.039  0.00  0.00     0.297 A 
ATOM      7  N   UNL d   1     -45.065  12.681  22.644  0.00  0.00    -0.204 NA
ATOM      8  O   UNL d   1     -45.412  11.536  23.432  0.00  0.00    -0.264 OA
ATOM      9  C   UNL d   1     -45.302  13.368  22.260  0.00  0.00     0.123 A 
ATOM     10  C   UNL d   1     -46.092  13.605  22.267  0.00  0.00     0.120 A 
ATOM     11  N   UNL d   1     -46.645  13.157  22.658  0.00  0.00    -0.237 NA
ENDBRANCH   4   5
ENDBRANCH   1   4
BRANCH   2  12
ATOM     12  C   UNL d   1     -49.136  11.889  23.068  0.00  0.00     0.086 A 
ATOM     13  C   UNL d   1     -49.433  12.273  22.401  0.00  0.00     0.043 A 
ATOM     14  C   UNL d   1     -50.230  12.477  22.370  0.00  0.00     0.128 A 
ATOM     15  C   UNL d   1     -50.728  12.297  23.003  0.00  0.00     0.024 A 
ATOM     16  C   UNL d   1     -50.427  11.913  23.667  0.00  0.00     0.003 A 
ATOM     17  C   UNL d   1     -49.630  11.710  23.698  0.00  0.00     0.019 A 
BRANCH  14  18
ATOM     18  N   UNL d   1     -50.530  12.860  21.706  0.00  0.00    -0.114 N 
ATOM     19  O   UNL d   1     -50.631  13.679  21.702  0.00  0.00    -0.532 OA
ATOM     20  O   UNL d   1     -50.735  12.423  21.026  0.00  0.00    -0.532 OA
ENDBRANCH  14  18
ENDBRANCH   2  12
TORSDOF 4
ENDMDL
MODEL 5
REMARK VINA RESULT:      -5.9      8.970     10.326
REMARK  4 active torsions:
REMARK  status: ('A' for Active; 'I' for Inactive)
REMARK    1  A    between atoms: C_6  and  N_1 
REMARK    2  A    between atoms: C_3  and  C_4 
REMARK    3  A    between atoms: C_5  and  C_3 
REMARK       I    between atoms: C_4  and  N_10 
REMARK    4  A    between atoms: N_10  and  C_13 
ROOT
ATOM      1  C   UNL d   1     -40.301  14.737  18.418  0.00  0.00     0.281 C 
ATOM      2  N   UNL d   1     -40.121  15.452  18.791  0.00  0.00    -0.208 NA
ATOM      3  O   UNL d   1     -40.654  14.129  18.850  0.00  0.00    -0.265 OA
ENDROOT
BRANCH   1   4
ATOM      4  C   UNL d   1     -40.129  14.633  17.620  0.00  0.00     0.086 C 
BRANCH   4   5
ATOM      5  C   UNL d   1     -39.521  14.117  17.387  0.00  0.00     0.144 A 
ATOM      6  C   UNL d   1     -39.030  14.322  16.756  0.00  0.00     0.297 A 
ATOM      7  N   UNL d   1     -38.422  13.816  16.515  0.00  0.00    -0.204 NA
ATOM      8  O   UNL d   1     -39.147  15.042  16.359  0.00  0.00    -0.264 OA
ATOM      9  C   UNL d   1     -38.318  13.107  16.917  0.00  0.00     0.123 A 
ATOM     10  C   UNL d   1     -38.809  12.903  17.547  0.00  0.00     0.120 A 
ATOM     11  N   UNL d   1     -39.404  13.407  17.776  0.00  0.00    -0.237 NA
ENDBRANCH   4   5
ENDBRANCH   1   4
BRANCH   2  12
ATOM     12  C   UNL d   1     -40.293  15.556  19.589  0.00  0.00     0.086 A 
ATOM     13  C   UNL d   1     -39.715  15.396  20.155  0.00  0.00     0.043 A 
ATOM     14  C   UNL d   1     -39.888  15.500  20.954  0.00  0.00     0.128 A 
ATOM     15  C   UNL d   1     -40.635  15.763  21.184  0.00  0.00     0.024 A 
ATOM     16  C   UNL d   1     -41.209  15.922  20.616  0.00  0.00     0.003 A 
ATOM     17  C   UNL d   1     -41.037  15.818  19.818  0.00  0.00     0.019 A 
BRANCH  14  18
ATOM     18  N   UNL d   1     -39.313  15.341  21.521  0.00  0.00    -0.114 N 
ATOM     19  O   UNL d   1     -38.771  15.922  21.745  0.00  0.00    -0.532 OA
ATOM     20  O   UNL d   1     -39.272  14.588  21.878  0.00  0.00    -0.532 OA
ENDBRANCH  14  18
ENDBRANCH   2  12
TORSDOF 4
ENDMDL
MODEL 6
REMARK VINA RESULT:      -5.4      8.842     10.234
REMARK  4 active torsions:
REMARK  status: ('A' for Active; 'I' for Inactive)
REMARK    1  A    between atoms: C_6  and  N_1 
REMARK    2  A    between atoms: C_3  and  C_4 
REMARK    3  A    between atoms: C_5  and  C_3 
REMARK       I    between atoms: C_4  and  N_10 
REMARK    4  A    between atoms: N_10  and  C_13 
ROOT
ATOM      1  C   UNL d   1     -40.512  15.040  19.512  0.00  0.00     0.281 C 
ATOM      2  N   UNL d   1     -40.543  14.482  18.904  0.00  0.00    -0.208 NA
ATOM      3  O   UNL d   1     -40.327  15.825  19.337  0.00  0.00    -0.265 OA
ENDROOT
BRANCH   1   4
ATOM      4  C   UNL d   1     -40.667  14.813  20.289  0.00  0.00     0.086 C 
BRANCH   4   5
ATOM      5  C   UNL d   1     -40.131  15.002  20.894  0.00  0.00     0.144 A 
ATOM      6  C   UNL d   1     -39.957  14.444  21.476  0.00  0.00     0.297 A 
ATOM      7  N   UNL d   1     -39.425  14.621  22.084  0.00  0.00    -0.204 NA
ATOM      8  O   UNL d   1     -40.319  13.697  21.452  0.00  0.00    -0.264 OA
ATOM      9  C   UNL d   1     -39.074  15.364  22.095  0.00  0.00     0.123 A 
ATOM     10  C   UNL d   1     -39.248  15.922  21.512  0.00  0.00     0.120 A 
ATOM     11  N   UNL d   1     -39.772  15.738  20.920  0.00  0.00    -0.237 NA
ENDBRANCH   4   5
ENDBRANCH   1   4
BRANCH   2  12
ATOM     12  C   UNL d   1     -40.389  14.709  18.127  0.00  0.00     0.086 A 
ATOM     13  C   UNL d   1     -39.685  14.475  17.766  0.00  0.00     0.043 A 
ATOM     14  C   UNL d   1     -39.531  14.703  16.989  0.00  0.00     0.128 A 
ATOM     15  C   UNL d   1     -40.079  15.162  16.577  0.00  0.00     0.024 A 
ATOM     16  C   UNL d   1     -40.781  15.393  16.942  0.00  0.00     0.003 A 
ATOM     17  C   UNL d   1     -40.934  15.166  17.717  0.00  0.00     0.019 A 
BRANCH  14  18
ATOM     18  N   UNL d   1     -38.830  14.472  16.626  0.00  0.00    -0.114 N 
ATOM     19  O   UNL d   1     -38.815  13.824  16.115  0.00  0.00    -0.532 OA
ATOM     20  O   UNL d   1     -38.124  14.891  16.771  0.00  0.00    -0.532 OA
ENDBRANCH  14  18
ENDBRANCH   2  12
TORSDOF 4
ENDMDL
MODEL 7
REMARK VINA RESULT:      -5.3      9.200      9.738
REMARK  4 active torsions:
REMARK  status: ('A' for Active; 'I' for Inactive)
REMARK    1  A    between atoms: C_6  and  N_1 
REMARK    2  A    between atoms: C_3  and  C_4 
REMARK    3  A    between atoms: C_5  and  C_3 
REMARK       I    between atoms: C_4  and  N_10 
REMARK    4  A    between atoms: N_10  and  C_13 
ROOT
ATOM      1  C   UNL d   1     -40.047  14.941  19.964  0.00  0.00     0.281 C 
ATOM      2  N   UNL d   1     -40.297  14.648  20.695  0.00  0.00    -0.208 NA
ATOM      3  O   UNL d   1     -39.280  15.235  19.883  0.00  0.00    -0.265 OA
ENDROOT
BRANCH   1   4
ATOM      4  C   UNL d   1     -40.560  14.937  19.320  0.00  0.00     0.086 C 
BRANCH   4   5
ATOM      5  C   UNL d   1     -40.287  14.712  18.569  0.00  0.00     0.144 A 
ATOM      6  C   UNL d   1     -40.526  15.136  17.903  0.00  0.00     0.297 A 
ATOM      7  N   UNL d   1     -40.260  14.921  17.150  0.00  0.00    -0.204 NA
ATOM      8  O   UNL d   1     -41.036  15.785  17.989  0.00  0.00    -0.264 OA
ATOM      9  C   UNL d   1     -39.755  14.277  17.080  0.00  0.00     0.123 A 
ATOM     10  C   UNL d   1     -39.517  13.853  17.746  0.00  0.00     0.120 A 
ATOM     11  N   UNL d   1     -39.784  14.072  18.482  0.00  0.00    -0.237 NA
ENDBRANCH   4   5
ENDBRANCH   1   4
BRANCH   2  12
ATOM     12  C   UNL d   1     -39.784  14.652  21.339  0.00  0.00     0.086 A 
ATOM     13  C   UNL d   1     -39.421  13.950  21.576  0.00  0.00     0.043 A 
ATOM     14  C   UNL d   1     -38.908  13.954  22.220  0.00  0.00     0.128 A 
ATOM     15  C   UNL d   1     -38.758  14.658  22.624  0.00  0.00     0.024 A 
ATOM     16  C   UNL d   1     -39.121  15.356  22.384  0.00  0.00     0.003 A 
ATOM     17  C   UNL d   1     -39.634  15.352  21.741  0.00  0.00     0.019 A 
BRANCH  14  18
ATOM     18  N   UNL d   1     -38.545  13.255  22.459  0.00  0.00    -0.114 N 
ATOM     19  O   UNL d   1     -37.970  12.897  21.988  0.00  0.00    -0.532 OA
ATOM     20  O   UNL d   1     -38.755  12.899  23.183  0.00  0.00    -0.532 OA
ENDBRANCH  14  18
ENDBRANCH   2  12
TORSDOF 4
ENDMDL
MODEL 8
REMARK VINA RESULT:      -5.2      9.596     10.627
REMARK  4 active torsions:
REMARK  status: ('A' for Active; 'I' for Inactive)
REMARK    1  A    between atoms: C_6  and  N_1 
REMARK    2  A    between atoms: C_3  and  C_4 
REMARK    3  A    between atoms: C_5  and  C_3 
REMARK       I    between atoms: C_4  and  N_10 
REMARK    4  A    between atoms: N_10  and  C_13 
ROOT
ATOM      1  C   UNL d   1     -38.683  15.287  20.233  0.00  0.00     0.281 C 
ATOM      2  N   UNL d   1     -39.251  15.726  19.825  0.00  0.00    -0.208 NA
ATOM      3  O   UNL d   1     -38.227  14.731  19.827  0.00  0.00    -0.265 OA
ENDROOT
BRANCH   1   4
ATOM      4  C   UNL d   1     -38.572  15.404  21.041  0.00  0.00     0.086 C 
BRANCH   4   5
ATOM      5  C   UNL d   1     -38.636  14.767  21.569  0.00  0.00     0.144 A 
ATOM      6  C   UNL d   1     -38.926  14.893  22.331  0.00  0.00     0.297 A 
ATOM      7  N   UNL d   1     -38.994  14.266  22.865  0.00  0.00    -0.204 NA
ATOM      8  O   UNL d   1     -39.151  15.658  22.564  0.00  0.00    -0.264 OA
ATOM      9  C   UNL d   1     -38.767  13.516  22.621  0.00  0.00     0.123 A 
ATOM     10  C   UNL d   1     -38.477  13.389  21.858  0.00  0.00     0.120 A 
ATOM     11  N   UNL d   1     -38.415  14.012  21.341  0.00  0.00    -0.237 NA
ENDBRANCH   4   5
ENDBRANCH   1   4
BRANCH   2  12
ATOM     12  C   UNL d   1     -39.361  15.608  19.017  0.00  0.00     0.086 A 
ATOM     13  C   UNL d   1     -40.012  15.174  18.754  0.00  0.00     0.043 A 
ATOM     14  C   UNL d   1     -40.121  15.056  17.945  0.00  0.00     0.128 A 
ATOM     15  C   UNL d   1     -39.584  15.372  17.405  0.00  0.00     0.024 A 
ATOM     16  C   UNL d   1     -38.936  15.805  17.673  0.00  0.00     0.003 A 
ATOM     17  C   UNL d   1     -38.826  15.922  18.480  0.00  0.00     0.019 A 
BRANCH  14  18
ATOM     18  N   UNL d   1     -40.769  14.624  17.679  0.00  0.00    -0.114 N 
ATOM     19  O   UNL d   1     -40.913  13.863  17.964  0.00  0.00    -0.532 OA
ATOM     20  O   UNL d   1     -41.289  14.951  17.115  0.00  0.00    -0.532 OA
ENDBRANCH  14  18
ENDBRANCH   2  12
TORSDOF 4
ENDMDL
