MODEL 1
REMARK VINA RESULT:      68.1      0.000      0.000
REMARK  5 active torsions:
REMARK  status: ('A' for Active; 'I' for Inactive)
REMARK    1  A    between atoms: C_4  and  C_1 
REMARK    2  A    between atoms: C_5  and  C_2 
REMARK    3  A    between atoms: N_6  and  C_4 
REMARK    4  A    between atoms: C_25  and  N_10 
REMARK    5  A    between atoms: C_21  and  C_25 
ROOT
ATOM      1  N   UNL d   1     -59.448 -99.888 -42.048  0.00  0.00    -0.191 NA
ATOM      2  C   UNL d   1     -59.617 -99.624 -42.811  0.00  0.00     0.103 C 
ATOM      3  C   UNL d   1     -59.787 -99.363 -43.572  0.00  0.00     0.097 C 
ENDROOT
BRANCH   3   4
ATOM      4  C   UNL d   1     -59.346 -98.755 -43.904  0.00  0.00     0.091 C 
BRANCH   4   5
ATOM      5  N   UNL d   1     -58.608 -98.914 -44.241  0.00  0.00    -0.299 N 
ATOM      6  C   UNL d   1     -58.567 -99.228 -45.002  0.00  0.00     0.100 A 
ATOM      7  C   UNL d   1     -57.833 -99.387 -45.342  0.00  0.00     0.100 A 
ATOM      8  N   UNL d   1     -57.140 -99.232 -44.920  0.00  0.00    -0.291 N 
ATOM      9  C   UNL d   1     -57.177 -98.918 -44.158  0.00  0.00     0.100 A 
ATOM     10  C   UNL d   1     -57.917 -98.759 -43.820  0.00  0.00     0.100 A 
BRANCH   8  11
ATOM     11  C   UNL d   1     -56.414 -99.392 -45.261  0.00  0.00     0.143 C 
ATOM     12  S   UNL d   1     -56.217 -99.062 -45.990  0.00  0.00    -0.057 SA
BRANCH  11  13
ATOM     13  C   UNL d   1     -55.873 -99.884 -44.877  0.00  0.00     0.126 A 
ATOM     14  O   UNL d   1     -55.927-100.158 -44.102  0.00  0.00    -0.305 OA
ATOM     15  C   UNL d   1     -55.269-100.634 -43.945  0.00  0.00     0.101 A 
ATOM     16  C   UNL d   1     -54.807-100.652 -44.632  0.00  0.00     0.027 A 
ATOM     17  C   UNL d   1     -55.181-100.189 -45.205  0.00  0.00     0.029 A 
BRANCH  15  18
ATOM     18  C   UNL d   1     -55.100-101.021 -43.238  0.00  0.00     0.034 A 
ATOM     19  C   UNL d   1     -55.038-101.841 -43.231  0.00  0.00     0.060 A 
ATOM     20  C   UNL d   1     -54.869-102.235 -42.526  0.00  0.00     0.012 A 
ATOM     21 CL   UNL d   1     -55.143-102.271 -43.930  0.00  0.00    -0.082 Cl
ATOM     22  C   UNL d   1     -54.763-101.801 -41.825  0.00  0.00     0.012 A 
ATOM     23  C   UNL d   1     -54.829-100.971 -41.843  0.00  0.00     0.058 A 
ATOM     24  C   UNL d   1     -54.997-100.588 -42.550  0.00  0.00     0.014 A 
ATOM     25 CL   UNL d   1     -54.723-100.540 -41.143  0.00  0.00    -0.082 Cl
ENDBRANCH  15  18
ENDBRANCH  11  13
ENDBRANCH   8  11
ENDBRANCH   4   5
ENDBRANCH   3   4
TORSDOF 5
ENDMDL
