MODEL 1
REMARK VINA RESULT:      -1.9      0.000      0.000
REMARK  5 active torsions:
REMARK  status: ('A' for Active; 'I' for Inactive)
REMARK       I    between atoms: N_2  and  C_1 
REMARK    1  A    between atoms: C_11  and  C_1 
REMARK    2  A    between atoms: C_4  and  N_2 
REMARK    3  A    between atoms: C_3  and  C_4 
REMARK    4  A    between atoms: C_5  and  C_3 
REMARK    5  A    between atoms: N_6  and  C_3 
ROOT
ATOM      1  C   UNL d   1     -41.698-122.598 -51.337  0.00  0.00     0.088 C 
ENDROOT
BRANCH   1   2
ATOM      2  C   UNL d   1     -41.521-122.985 -52.043  0.00  0.00     0.101 C 
ATOM      3  C   UNL d   1     -41.123-123.702 -52.026  0.00  0.00     0.022 C 
BRANCH   2   4
ATOM      4  N   UNL d   1     -41.746-122.647 -52.759  0.00  0.00    -0.206 NA
ATOM      5  C   UNL d   1     -41.576-123.037 -53.472  0.00  0.00     0.279 C 
ATOM      6  O   UNL d   1     -41.184-123.761 -53.456  0.00  0.00    -0.265 OA
BRANCH   5   7
ATOM      7  C   UNL d   1     -41.802-122.699 -54.189  0.00  0.00     0.058 A 
ATOM      8  C   UNL d   1     -41.242-122.576 -54.792  0.00  0.00     0.005 A 
ATOM      9  C   UNL d   1     -41.478-122.238 -55.501  0.00  0.00     0.000 A 
ATOM     10  C   UNL d   1     -42.269-122.018 -55.623  0.00  0.00     0.000 A 
ATOM     11  C   UNL d   1     -42.819-122.142 -55.022  0.00  0.00     0.000 A 
ATOM     12  C   UNL d   1     -42.589-122.482 -54.305  0.00  0.00     0.005 A 
ENDBRANCH   5   7
ENDBRANCH   2   4
ENDBRANCH   1   2
BRANCH   1  13
ATOM     13  C   UNL d   1     -41.491-121.805 -51.237  0.00  0.00     0.047 A 
ATOM     14  S   UNL d   1     -41.289-121.433 -50.524  0.00  0.00    -0.085 SA
ATOM     15  C   UNL d   1     -41.123-120.642 -50.682  0.00  0.00     0.035 A 
ATOM     16  C   UNL d   1     -41.219-120.509 -51.494  0.00  0.00     0.007 A 
ATOM     17  C   UNL d   1     -41.448-121.231 -51.844  0.00  0.00     0.009 A 
ENDBRANCH   1  13
BRANCH   1  18
ATOM     18  N   UNL d   1     -42.087-123.001 -50.723  0.00  0.00    -0.299 N 
ATOM     19  C   UNL d   1     -41.654-123.337 -50.116  0.00  0.00     0.107 A 
ATOM     20  C   UNL d   1     -42.029-123.739 -49.502  0.00  0.00     0.142 A 
ATOM     21  O   UNL d   1     -42.860-123.810 -49.493  0.00  0.00    -0.300 OA
ATOM     22  C   UNL d   1     -43.298-123.467 -50.113  0.00  0.00     0.142 A 
ATOM     23  C   UNL d   1     -42.912-123.065 -50.725  0.00  0.00     0.107 A 
ENDBRANCH   1  18
TORSDOF 5
ENDMDL
MODEL 2
REMARK VINA RESULT:      -0.7      1.264      2.139
REMARK  5 active torsions:
REMARK  status: ('A' for Active; 'I' for Inactive)
REMARK       I    between atoms: N_2  and  C_1 
REMARK    1  A    between atoms: C_11  and  C_1 
REMARK    2  A    between atoms: C_4  and  N_2 
REMARK    3  A    between atoms: C_3  and  C_4 
REMARK    4  A    between atoms: C_5  and  C_3 
REMARK    5  A    between atoms: N_6  and  C_3 
ROOT
ATOM      1  C   UNL d   1     -42.156-122.470 -50.268  0.00  0.00     0.088 C 
ENDROOT
BRANCH   1   2
ATOM      2  C   UNL d   1     -41.661-122.235 -50.885  0.00  0.00     0.101 C 
ATOM      3  C   UNL d   1     -41.146-121.606 -50.778  0.00  0.00     0.022 C 
BRANCH   2   4
ATOM      4  N   UNL d   1     -41.692-122.636 -51.603  0.00  0.00    -0.206 NA
ATOM      5  C   UNL d   1     -41.455-122.252 -52.301  0.00  0.00     0.279 C 
ATOM      6  O   UNL d   1     -41.192-121.472 -52.267  0.00  0.00    -0.265 OA
BRANCH   5   7
ATOM      7  C   UNL d   1     -41.485-122.653 -53.020  0.00  0.00     0.058 A 
ATOM      8  C   UNL d   1     -41.878-122.320 -53.673  0.00  0.00     0.005 A 
ATOM      9  C   UNL d   1     -41.901-122.728 -54.384  0.00  0.00     0.000 A 
ATOM     10  C   UNL d   1     -41.538-123.471 -54.458  0.00  0.00     0.000 A 
ATOM     11  C   UNL d   1     -41.150-123.796 -53.808  0.00  0.00     0.000 A 
ATOM     12  C   UNL d   1     -41.123-123.390 -53.089  0.00  0.00     0.005 A 
ENDBRANCH   5   7
ENDBRANCH   2   4
ENDBRANCH   1   2
BRANCH   1  13
ATOM     13  C   UNL d   1     -42.975-122.401 -50.345  0.00  0.00     0.047 A 
ATOM     14  S   UNL d   1     -43.418-121.702 -50.311  0.00  0.00    -0.085 SA
ATOM     15  C   UNL d   1     -44.213-121.893 -50.415  0.00  0.00     0.035 A 
ATOM     16  C   UNL d   1     -44.277-122.713 -50.516  0.00  0.00     0.007 A 
ATOM     17  C   UNL d   1     -43.508-123.034 -50.473  0.00  0.00     0.009 A 
ENDBRANCH   1  13
BRANCH   1  18
ATOM     18  N   UNL d   1     -41.834-122.776 -49.566  0.00  0.00    -0.299 N 
ATOM     19  C   UNL d   1     -41.890-122.350 -48.869  0.00  0.00     0.107 A 
ATOM     20  C   UNL d   1     -41.575-122.646 -48.168  0.00  0.00     0.142 A 
ATOM     21  O   UNL d   1     -41.192-123.386 -48.159  0.00  0.00    -0.300 OA
ATOM     22  C   UNL d   1     -41.136-123.817 -48.870  0.00  0.00     0.142 A 
ATOM     23  C   UNL d   1     -41.456-123.513 -49.569  0.00  0.00     0.107 A 
ENDBRANCH   1  18
TORSDOF 5
ENDMDL
MODEL 3
REMARK VINA RESULT:      -0.2      1.117      2.126
REMARK  5 active torsions:
REMARK  status: ('A' for Active; 'I' for Inactive)
REMARK       I    between atoms: N_2  and  C_1 
REMARK    1  A    between atoms: C_11  and  C_1 
REMARK    2  A    between atoms: C_4  and  N_2 
REMARK    3  A    between atoms: C_3  and  C_4 
REMARK    4  A    between atoms: C_5  and  C_3 
REMARK    5  A    between atoms: N_6  and  C_3 
ROOT
ATOM      1  C   UNL d   1     -41.794-122.511 -51.400  0.00  0.00     0.088 C 
ENDROOT
BRANCH   1   2
ATOM      2  C   UNL d   1     -41.565-122.892 -52.096  0.00  0.00     0.101 C 
ATOM      3  C   UNL d   1     -41.125-123.582 -52.058  0.00  0.00     0.022 C 
BRANCH   2   4
ATOM      4  N   UNL d   1     -41.783-122.572 -52.823  0.00  0.00    -0.206 NA
ATOM      5  C   UNL d   1     -41.604-122.980 -53.524  0.00  0.00     0.279 C 
ATOM      6  O   UNL d   1     -41.210-123.703 -53.484  0.00  0.00    -0.265 OA
BRANCH   5   7
ATOM      7  C   UNL d   1     -41.822-122.661 -54.251  0.00  0.00     0.058 A 
ATOM      8  C   UNL d   1     -41.276-122.222 -54.700  0.00  0.00     0.005 A 
ATOM      9  C   UNL d   1     -41.505-121.909 -55.423  0.00  0.00     0.000 A 
ATOM     10  C   UNL d   1     -42.275-122.025 -55.711  0.00  0.00     0.000 A 
ATOM     11  C   UNL d   1     -42.811-122.461 -55.262  0.00  0.00     0.000 A 
ATOM     12  C   UNL d   1     -42.588-122.779 -54.533  0.00  0.00     0.005 A 
ENDBRANCH   5   7
ENDBRANCH   2   4
ENDBRANCH   1   2
BRANCH   1  13
ATOM     13  C   UNL d   1     -42.208-122.925 -50.819  0.00  0.00     0.047 A 
ATOM     14  S   UNL d   1     -41.907-123.521 -50.328  0.00  0.00    -0.085 SA
ATOM     15  C   UNL d   1     -42.513-123.778 -49.832  0.00  0.00     0.035 A 
ATOM     16  C   UNL d   1     -43.198-123.347 -50.005  0.00  0.00     0.007 A 
ATOM     17  C   UNL d   1     -43.012-122.813 -50.620  0.00  0.00     0.009 A 
ENDBRANCH   1  13
BRANCH   1  18
ATOM     18  N   UNL d   1     -41.609-121.710 -51.281  0.00  0.00    -0.299 N 
ATOM     19  C   UNL d   1     -41.725-121.168 -51.883  0.00  0.00     0.107 A 
ATOM     20  C   UNL d   1     -41.545-120.371 -51.775  0.00  0.00     0.142 A 
ATOM     21  O   UNL d   1     -41.240-120.105 -51.046  0.00  0.00    -0.300 OA
ATOM     22  C   UNL d   1     -41.123-120.659 -50.435  0.00  0.00     0.142 A 
ATOM     23  C   UNL d   1     -41.307-121.457 -50.553  0.00  0.00     0.107 A 
ENDBRANCH   1  18
TORSDOF 5
ENDMDL
