MODEL 1
REMARK VINA RESULT:      28.9      0.000      0.000
REMARK  3 active torsions:
REMARK  status: ('A' for Active; 'I' for Inactive)
REMARK    1  A    between atoms: S_6  and  C_1 
REMARK    2  A    between atoms: C_9  and  S_6 
REMARK    3  A    between atoms: C_7  and  C_9 
REMARK       I    between atoms: N_8  and  C_7 
ROOT
ATOM      1  C   UNL d   1      13.954  12.637  -2.321  0.00  0.00     0.049 A 
ATOM      2  N   UNL d   1      12.961  11.783  -2.591  0.00  0.00    -0.245 NA
ATOM      3  C   UNL d   1      13.472  12.051  -1.999  0.00  0.00     0.087 A 
ATOM      4  C   UNL d   1      13.750  12.739  -3.111  0.00  0.00     0.025 A 
ATOM      5  C   UNL d   1      13.137  12.214  -3.284  0.00  0.00     0.082 A 
ATOM      6  C   UNL d   1      13.501  11.784  -1.220  0.00  0.00     0.021 C 
ATOM      7  C   UNL d   1      14.036  13.237  -3.699  0.00  0.00     0.002 A 
ATOM      8  C   UNL d   1      12.811  12.188  -4.043  0.00  0.00     0.019 A 
ATOM      9  C   UNL d   1      13.720  13.221  -4.459  0.00  0.00     0.000 A 
ATOM     10  C   UNL d   1      13.099  12.686  -4.626  0.00  0.00     0.002 A 
ENDROOT
BRANCH   1  11
ATOM     11  S   UNL d   1      14.549  13.058  -1.919  0.00  0.00    -0.080 SA
BRANCH  11  12
ATOM     12  C   UNL d   1      14.428  13.276  -1.129  0.00  0.00     0.097 C 
BRANCH  12  13
ATOM     13  C   UNL d   1      15.076  13.523  -0.674  0.00  0.00     0.272 C 
ATOM     14  N   UNL d   1      15.211  14.339  -0.571  0.00  0.00    -0.267 N 
ATOM     15  C   UNL d   1      15.856  14.588  -0.118  0.00  0.00     0.110 A 
ATOM     16  C   UNL d   1      14.704  14.896  -0.918  0.00  0.00     0.110 A 
ATOM     17  C   UNL d   1      15.991  15.399  -0.015  0.00  0.00     0.142 A 
ATOM     18  O   UNL d   1      15.487  15.960  -0.360  0.00  0.00    -0.300 OA
ATOM     19  C   UNL d   1      14.840  15.700  -0.814  0.00  0.00     0.142 A 
ATOM     20  O   UNL d   1      15.586  12.969  -0.325  0.00  0.00    -0.266 OA
ENDBRANCH  12  13
ENDBRANCH  11  12
ENDBRANCH   1  11
TORSDOF 3
ENDMDL
