MODEL 1
REMARK VINA RESULT:      92.2      0.000      0.000
REMARK  5 active torsions:
REMARK  status: ('A' for Active; 'I' for Inactive)
REMARK    1  A    between atoms: C_4  and  N_1 
REMARK    2  A    between atoms: C_8  and  C_2 
REMARK    3  A    between atoms: C_13  and  C_6 
REMARK    4  A    between atoms: C_7  and  C_8 
REMARK    5  A    between atoms: O_24  and  C_22 
ROOT
ATOM      1  N   UNL d   1     -50.025  25.320  33.529  0.00  0.00    -0.255 N 
ATOM      2  C   UNL d   1     -49.850  26.637  33.705  0.00  0.00     0.101 A 
ATOM      3  C   UNL d   1     -49.218  25.485  33.459  0.00  0.00     0.305 A 
ATOM      4  C   UNL d   1     -49.112  26.291  33.566  0.00  0.00     0.256 A 
ATOM      5  C   UNL d   1     -50.416  26.036  33.682  0.00  0.00     0.075 A 
ATOM      6  O   UNL d   1     -48.624  24.931  33.306  0.00  0.00    -0.263 OA
ATOM      7  O   UNL d   1     -48.386  26.692  33.541  0.00  0.00    -0.281 OA
ENDROOT
BRANCH   2   8
ATOM      8  C   UNL d   1     -49.996  27.439  33.842  0.00  0.00     0.223 C 
ATOM      9  O   UNL d   1     -50.688  27.781  33.555  0.00  0.00    -0.284 OA
BRANCH   8  10
ATOM     10  C   UNL d   1     -49.452  27.891  34.262  0.00  0.00     0.139 A 
ATOM     11  O   UNL d   1     -49.209  27.756  35.037  0.00  0.00    -0.304 OA
ATOM     12  C   UNL d   1     -48.658  28.344  35.238  0.00  0.00     0.100 A 
ATOM     13  C   UNL d   1     -48.234  28.489  35.927  0.00  0.00     0.025 A 
ATOM     14  C   UNL d   1     -48.571  28.833  34.581  0.00  0.00     0.025 A 
ATOM     15  C   UNL d   1     -47.718  29.126  35.964  0.00  0.00     0.002 A 
ATOM     16  C   UNL d   1     -47.624  29.624  35.307  0.00  0.00     0.000 A 
ATOM     17  C   UNL d   1     -48.048  29.477  34.621  0.00  0.00     0.002 A 
ATOM     18  C   UNL d   1     -49.056  28.558  33.982  0.00  0.00     0.030 A 
ENDBRANCH   8  10
ENDBRANCH   2   8
BRANCH   5  19
ATOM     19  C   UNL d   1     -51.230  26.127  33.791  0.00  0.00     0.018 A 
ATOM     20  C   UNL d   1     -51.618  25.693  34.365  0.00  0.00     0.026 A 
ATOM     21  C   UNL d   1     -52.429  25.782  34.476  0.00  0.00     0.094 A 
ATOM     22  C   UNL d   1     -52.852  26.317  34.001  0.00  0.00     0.024 A 
ATOM     23  C   UNL d   1     -52.450  26.754  33.421  0.00  0.00     0.002 A 
ATOM     24  C   UNL d   1     -51.645  26.660  33.316  0.00  0.00     0.002 A 
BRANCH  21  25
ATOM     25  O   UNL d   1     -52.821  25.343  35.056  0.00  0.00    -0.328 OA
ATOM     26  C   UNL d   1     -53.070  25.704  35.752  0.00  0.00     0.181 C 
ENDBRANCH  21  25
ENDBRANCH   5  19
BRANCH   1  27
ATOM     27  C   UNL d   1     -50.380  24.572  33.459  0.00  0.00     0.179 A 
ATOM     28  N   UNL d   1     -49.981  23.857  33.348  0.00  0.00    -0.108 NA
ATOM     29  O   UNL d   1     -50.548  23.261  33.310  0.00  0.00    -0.210 OA
ATOM     30  C   UNL d   1     -51.289  23.600  33.395  0.00  0.00     0.128 A 
ATOM     31  C   UNL d   1     -51.193  24.415  33.488  0.00  0.00     0.067 A 
ATOM     32  C   UNL d   1     -52.016  23.199  33.389  0.00  0.00     0.029 C 
ENDBRANCH   1  27
TORSDOF 5
ENDMDL
