MODEL 1
REMARK VINA RESULT:      15.9      0.000      0.000
REMARK  3 active torsions:
REMARK  status: ('A' for Active; 'I' for Inactive)
REMARK    1  A    between atoms: C_4  and  C_1 
REMARK    2  A    between atoms: O_10  and  C_4 
REMARK    3  A    between atoms: C_13  and  O_10 
ROOT
ATOM      1  C   UNL d   1      59.012  49.692  50.675  0.00  0.00     0.121 A 
ATOM      2  C   UNL d   1      58.574  49.700  49.956  0.00  0.00     0.204 A 
ATOM      3  C   UNL d   1      57.760  49.700  49.987  0.00  0.00     0.057 A 
ATOM      4  N   UNL d   1      57.782  49.686  51.397  0.00  0.00    -0.244 NA
ATOM      5  C   UNL d   1      58.616  49.685  51.396  0.00  0.00     0.107 A 
ATOM      6  C   UNL d   1      57.363  49.693  50.708  0.00  0.00     0.085 A 
ATOM      7  O   UNL d   1      58.967  49.707  49.242  0.00  0.00    -0.286 OA
ATOM      8  C   UNL d   1      57.330  49.708  49.272  0.00  0.00     0.005 A 
ATOM      9  C   UNL d   1      56.538  49.693  50.713  0.00  0.00     0.019 A 
ATOM     10  C   UNL d   1      56.496  49.708  49.292  0.00  0.00     0.000 A 
ATOM     11  C   UNL d   1      56.100  49.701  50.013  0.00  0.00     0.002 A 
ENDROOT
BRANCH   1  12
ATOM     12  C   UNL d   1      59.843  49.692  50.654  0.00  0.00     0.305 C 
ATOM     13  O   UNL d   1      60.242  49.677  49.928  0.00  0.00    -0.259 OA
BRANCH  12  14
ATOM     14  O   UNL d   1      60.262  49.706  51.341  0.00  0.00    -0.271 OA
BRANCH  14  15
ATOM     15  C   UNL d   1      61.070  49.548  51.333  0.00  0.00     0.126 C 
ATOM     16  C   UNL d   1      61.511  49.581  52.039  0.00  0.00     0.029 C 
ENDBRANCH  14  15
ENDBRANCH  12  14
ENDBRANCH   1  12
TORSDOF 3
ENDMDL
MODEL 2
REMARK VINA RESULT:      18.9      0.877      3.374
REMARK  3 active torsions:
REMARK  status: ('A' for Active; 'I' for Inactive)
REMARK    1  A    between atoms: C_4  and  C_1 
REMARK    2  A    between atoms: O_10  and  C_4 
REMARK    3  A    between atoms: C_13  and  O_10 
ROOT
ATOM      1  C   UNL d   1      58.534  49.693  50.630  0.00  0.00     0.121 A 
ATOM      2  C   UNL d   1      59.310  49.693  50.304  0.00  0.00     0.204 A 
ATOM      3  C   UNL d   1      59.953  49.689  50.805  0.00  0.00     0.057 A 
ATOM      4  N   UNL d   1      59.109  49.686  51.935  0.00  0.00    -0.244 NA
ATOM      5  C   UNL d   1      58.433  49.690  51.447  0.00  0.00     0.107 A 
ATOM      6  C   UNL d   1      59.852  49.686  51.622  0.00  0.00     0.085 A 
ATOM      7  O   UNL d   1      59.410  49.696  49.495  0.00  0.00    -0.286 OA
ATOM      8  C   UNL d   1      60.720  49.688  50.478  0.00  0.00     0.005 A 
ATOM      9  C   UNL d   1      60.518  49.682  52.110  0.00  0.00     0.019 A 
ATOM     10  C   UNL d   1      61.384  49.684  50.982  0.00  0.00     0.000 A 
ATOM     11  C   UNL d   1      61.283  49.681  51.799  0.00  0.00     0.002 A 
ENDROOT
BRANCH   1  12
ATOM     12  C   UNL d   1      57.873  49.697  50.126  0.00  0.00     0.305 C 
ATOM     13  O   UNL d   1      57.975  49.694  49.304  0.00  0.00    -0.259 OA
BRANCH  12  14
ATOM     14  O   UNL d   1      57.131  49.705  50.438  0.00  0.00    -0.271 OA
BRANCH  14  15
ATOM     15  C   UNL d   1      56.531  49.269  50.079  0.00  0.00     0.126 C 
ATOM     16  C   UNL d   1      56.037  49.626  49.511  0.00  0.00     0.029 C 
ENDBRANCH  14  15
ENDBRANCH  12  14
ENDBRANCH   1  12
TORSDOF 3
ENDMDL
