MODEL 1
REMARK VINA RESULT:      -2.2      0.000      0.000
REMARK  3 active torsions:
REMARK  status: ('A' for Active; 'I' for Inactive)
REMARK    1  A    between atoms: N_9  and  C_3 
REMARK    2  A    between atoms: C_12  and  C_5 
REMARK    3  A    between atoms: C_17  and  N_10 
ROOT
ATOM      1  N   UNL d   1      32.796  20.668 -22.307  0.00  0.00    -0.196 N 
ATOM      2  C   UNL d   1      32.819  21.483 -22.178  0.00  0.00     0.167 A 
ATOM      3  C   UNL d   1      32.920  20.368 -23.063  0.00  0.00     0.152 A 
ATOM      4  N   UNL d   1      32.641  20.297 -21.591  0.00  0.00    -0.163 NA
ATOM      5  C   UNL d   1      32.677  21.618 -21.381  0.00  0.00     0.055 A 
ATOM      6  C   UNL d   1      32.567  20.892 -21.016  0.00  0.00     0.104 A 
ATOM      7  N   UNL d   1      32.965  21.997 -22.804  0.00  0.00    -0.227 NA
ATOM      8  C   UNL d   1      33.069  20.882 -23.698  0.00  0.00     0.057 A 
ATOM      9  C   UNL d   1      33.091  21.696 -23.568  0.00  0.00     0.086 A 
ATOM     10  C   UNL d   1      32.410  20.769 -20.216  0.00  0.00     0.023 C 
ATOM     11  C   UNL d   1      33.239  22.215 -24.199  0.00  0.00     0.021 C 
ENDROOT
BRANCH   3  12
ATOM     12  N   UNL d   1      32.897  19.545 -23.194  0.00  0.00    -0.286 N 
ATOM     13  C   UNL d   1      32.527  19.246 -23.874  0.00  0.00     0.101 A 
ATOM     14  C   UNL d   1      32.504  18.431 -24.004  0.00  0.00     0.100 A 
ATOM     15  N   UNL d   1      32.852  17.917 -23.453  0.00  0.00    -0.301 N 
ATOM     16  C   UNL d   1      33.218  18.217 -22.780  0.00  0.00     0.100 A 
ATOM     17  C   UNL d   1      33.241  19.031 -22.651  0.00  0.00     0.101 A 
BRANCH  15  18
ATOM     18  C   UNL d   1      32.829  17.098 -23.583  0.00  0.00     0.064 A 
ATOM     19  C   UNL d   1      32.385  16.791 -24.205  0.00  0.00     0.018 A 
ATOM     20  C   UNL d   1      32.469  15.969 -24.195  0.00  0.00     0.002 A 
ATOM     21  C   UNL d   1      32.963  15.774 -23.570  0.00  0.00     0.002 A 
ATOM     22  C   UNL d   1      33.186  16.460 -23.193  0.00  0.00     0.018 A 
ENDBRANCH  15  18
ENDBRANCH   3  12
BRANCH   5  23
ATOM     23  C   UNL d   1      32.634  22.308 -20.936  0.00  0.00     0.004 A 
ATOM     24  C   UNL d   1      31.975  22.813 -21.014  0.00  0.00     0.000 A 
ATOM     25  C   UNL d   1      31.933  23.503 -20.569  0.00  0.00     0.000 A 
ATOM     26  C   UNL d   1      32.539  23.699 -20.044  0.00  0.00     0.000 A 
ATOM     27  C   UNL d   1      33.193  23.202 -19.964  0.00  0.00     0.000 A 
ATOM     28  C   UNL d   1      33.241  22.504 -20.412  0.00  0.00     0.000 A 
ENDBRANCH   5  23
TORSDOF 3
ENDMDL
MODEL 2
REMARK VINA RESULT:      -0.4      0.930      5.070
REMARK  3 active torsions:
REMARK  status: ('A' for Active; 'I' for Inactive)
REMARK    1  A    between atoms: N_9  and  C_3 
REMARK    2  A    between atoms: C_12  and  C_5 
REMARK    3  A    between atoms: C_17  and  N_10 
ROOT
ATOM      1  N   UNL d   1      32.890  19.654 -22.981  0.00  0.00    -0.196 N 
ATOM      2  C   UNL d   1      32.855  19.259 -23.704  0.00  0.00     0.167 A 
ATOM      3  C   UNL d   1      33.041  20.463 -22.960  0.00  0.00     0.152 A 
ATOM      4  N   UNL d   1      32.755  19.109 -22.382  0.00  0.00    -0.163 NA
ATOM      5  C   UNL d   1      32.699  18.468 -23.555  0.00  0.00     0.055 A 
ATOM      6  C   UNL d   1      32.636  18.371 -22.743  0.00  0.00     0.104 A 
ATOM      7  N   UNL d   1      32.971  19.673 -24.406  0.00  0.00    -0.227 NA
ATOM      8  C   UNL d   1      33.159  20.884 -23.665  0.00  0.00     0.057 A 
ATOM      9  C   UNL d   1      33.124  20.489 -24.389  0.00  0.00     0.086 A 
ATOM     10  C   UNL d   1      32.482  17.663 -22.349  0.00  0.00     0.023 C 
ATOM     11  C   UNL d   1      33.241  20.905 -25.097  0.00  0.00     0.021 C 
ENDROOT
BRANCH   3  12
ATOM     12  N   UNL d   1      33.076  20.862 -22.229  0.00  0.00    -0.286 N 
ATOM     13  C   UNL d   1      33.099  21.692 -22.213  0.00  0.00     0.101 A 
ATOM     14  C   UNL d   1      33.134  22.087 -21.489  0.00  0.00     0.100 A 
ATOM     15  N   UNL d   1      33.146  21.652 -20.782  0.00  0.00    -0.301 N 
ATOM     16  C   UNL d   1      33.123  20.830 -20.802  0.00  0.00     0.100 A 
ATOM     17  C   UNL d   1      33.088  20.435 -21.525  0.00  0.00     0.101 A 
BRANCH  15  18
ATOM     18  C   UNL d   1      33.181  22.049 -20.055  0.00  0.00     0.064 A 
ATOM     19  C   UNL d   1      33.201  22.873 -20.035  0.00  0.00     0.018 A 
ATOM     20  C   UNL d   1      33.234  23.106 -19.243  0.00  0.00     0.002 A 
ATOM     21  C   UNL d   1      33.234  22.427 -18.781  0.00  0.00     0.002 A 
ATOM     22  C   UNL d   1      33.202  21.780 -19.272  0.00  0.00     0.018 A 
ENDBRANCH  15  18
ENDBRANCH   3  12
BRANCH   5  23
ATOM     23  C   UNL d   1      32.604  17.819 -24.052  0.00  0.00     0.004 A 
ATOM     24  C   UNL d   1      31.863  17.667 -24.400  0.00  0.00     0.000 A 
ATOM     25  C   UNL d   1      31.769  17.018 -24.897  0.00  0.00     0.000 A 
ATOM     26  C   UNL d   1      32.406  16.517 -25.052  0.00  0.00     0.000 A 
ATOM     27  C   UNL d   1      33.142  16.664 -24.708  0.00  0.00     0.000 A 
ATOM     28  C   UNL d   1      33.241  17.318 -24.206  0.00  0.00     0.000 A 
ENDBRANCH   5  23
TORSDOF 3
ENDMDL
