MODEL 1
REMARK VINA RESULT:      50.4      0.000      0.000
REMARK  4 active torsions:
REMARK  status: ('A' for Active; 'I' for Inactive)
REMARK    1  A    between atoms: C_7  and  N_1 
REMARK    2  A    between atoms: C_8  and  C_7 
REMARK       I    between atoms: N_11  and  C_8 
REMARK    3  A    between atoms: C_13  and  N_11 
REMARK    4  A    between atoms: C_15  and  C_13 
ROOT
ATOM      1  C   UNL d   1      58.732  49.707  50.516  0.00  0.00     0.148 C 
ENDROOT
BRANCH   1   2
ATOM      2  N   UNL d   1      57.908  49.705  50.483  0.00  0.00    -0.235 N 
ATOM      3  C   UNL d   1      57.525  49.705  49.749  0.00  0.00     0.273 A 
ATOM      4  C   UNL d   1      56.709  49.703  49.716  0.00  0.00     0.086 A 
ATOM      5  O   UNL d   1      57.970  49.707  49.052  0.00  0.00    -0.266 OA
ATOM      6  C   UNL d   1      56.326  49.702  48.977  0.00  0.00     0.012 C 
ATOM      7  S   UNL d   1      56.259  49.701  50.401  0.00  0.00    -0.077 SA
ATOM      8  C   UNL d   1      56.634  49.701  51.130  0.00  0.00     0.086 A 
ATOM      9  C   UNL d   1      57.458  49.704  51.180  0.00  0.00     0.273 A 
ATOM     10  C   UNL d   1      56.189  49.700  51.824  0.00  0.00     0.012 C 
ATOM     11  O   UNL d   1      57.837  49.704  51.911  0.00  0.00    -0.266 OA
ENDBRANCH   1   2
BRANCH   1  12
ATOM     12  C   UNL d   1      59.131  49.056  50.822  0.00  0.00     0.297 C 
ATOM     13  N   UNL d   1      59.874  49.141  51.162  0.00  0.00    -0.205 NA
ATOM     14  O   UNL d   1      58.781  48.310  50.787  0.00  0.00    -0.264 OA
BRANCH  13  15
ATOM     15  C   UNL d   1      60.278  48.497  51.469  0.00  0.00     0.102 C 
BRANCH  15  16
ATOM     16  C   UNL d   1      60.761  48.028  50.991  0.00  0.00     0.019 A 
ATOM     17  C   UNL d   1      60.717  47.206  51.049  0.00  0.00     0.004 A 
ATOM     18  C   UNL d   1      61.200  46.732  50.572  0.00  0.00     0.030 A 
ATOM     19  C   UNL d   1      61.718  47.086  50.042  0.00  0.00     0.140 A 
ATOM     20  C   UNL d   1      61.762  47.907  49.983  0.00  0.00     0.030 A 
ATOM     21  F   UNL d   1      62.205  46.620  49.561  0.00  0.00    -0.204 F 
ATOM     22  C   UNL d   1      61.280  48.386  50.461  0.00  0.00     0.004 A 
ENDBRANCH  15  16
ENDBRANCH  13  15
ENDBRANCH   1  12
TORSDOF 4
ENDMDL
MODEL 2
REMARK VINA RESULT:      52.5      1.469      2.060
REMARK  4 active torsions:
REMARK  status: ('A' for Active; 'I' for Inactive)
REMARK    1  A    between atoms: C_7  and  N_1 
REMARK    2  A    between atoms: C_8  and  C_7 
REMARK       I    between atoms: N_11  and  C_8 
REMARK    3  A    between atoms: C_13  and  N_11 
REMARK    4  A    between atoms: C_15  and  C_13 
ROOT
ATOM      1  C   UNL d   1      60.479  49.680  50.438  0.00  0.00     0.148 C 
ENDROOT
BRANCH   1   2
ATOM      2  N   UNL d   1      59.744  49.689  50.813  0.00  0.00    -0.235 N 
ATOM      3  C   UNL d   1      59.051  49.693  50.359  0.00  0.00     0.273 A 
ATOM      4  C   UNL d   1      58.323  49.702  50.730  0.00  0.00     0.086 A 
ATOM      5  O   UNL d   1      59.098  49.688  49.534  0.00  0.00    -0.266 OA
ATOM      6  C   UNL d   1      57.628  49.706  50.273  0.00  0.00     0.012 C 
ATOM      7  S   UNL d   1      58.266  49.707  51.547  0.00  0.00    -0.077 SA
ATOM      8  C   UNL d   1      58.950  49.703  52.000  0.00  0.00     0.086 A 
ATOM      9  C   UNL d   1      59.693  49.694  51.641  0.00  0.00     0.273 A 
ATOM     10  C   UNL d   1      58.901  49.708  52.823  0.00  0.00     0.012 C 
ATOM     11  O   UNL d   1      60.380  49.690  52.093  0.00  0.00    -0.266 OA
ENDBRANCH   1   2
BRANCH   1  12
ATOM     12  C   UNL d   1      61.036  49.111  50.643  0.00  0.00     0.297 C 
ATOM     13  N   UNL d   1      61.024  48.367  50.295  0.00  0.00    -0.205 NA
ATOM     14  O   UNL d   1      61.613  49.289  51.205  0.00  0.00    -0.264 OA
BRANCH  13  15
ATOM     15  C   UNL d   1      61.575  47.795  50.494  0.00  0.00     0.102 C 
BRANCH  15  16
ATOM     16  C   UNL d   1      61.504  47.019  50.219  0.00  0.00     0.019 A 
ATOM     17  C   UNL d   1      61.691  46.846  49.434  0.00  0.00     0.004 A 
ATOM     18  C   UNL d   1      61.621  46.069  49.155  0.00  0.00     0.030 A 
ATOM     19  C   UNL d   1      61.365  45.477  49.663  0.00  0.00     0.140 A 
ATOM     20  C   UNL d   1      61.179  45.650  50.448  0.00  0.00     0.030 A 
ATOM     21  F   UNL d   1      61.292  44.698  49.393  0.00  0.00    -0.204 F 
ATOM     22  C   UNL d   1      61.248  46.428  50.731  0.00  0.00     0.004 A 
ENDBRANCH  15  16
ENDBRANCH  13  15
ENDBRANCH   1  12
TORSDOF 4
ENDMDL
