MODEL 1
REMARK VINA RESULT:      -3.9      0.000      0.000
REMARK  4 active torsions:
REMARK  status: ('A' for Active; 'I' for Inactive)
REMARK    1  A    between atoms: N_2  and  S_1 
REMARK    2  A    between atoms: C_4  and  S_1 
REMARK    3  A    between atoms: C_5  and  N_3 
REMARK    4  A    between atoms: C_12  and  C_13 
ROOT
ATOM      1  N   UNL d   1      56.626  -0.235  32.134  0.00  0.00    -0.226 N 
ATOM      2  N   UNL d   1      55.585   0.131  33.361  0.00  0.00    -0.299 N 
ATOM      3  C   UNL d   1      56.252   0.497  32.153  0.00  0.00     0.111 A 
ATOM      4  C   UNL d   1      56.482  -0.793  32.732  0.00  0.00     0.111 A 
ATOM      5  C   UNL d   1      55.731   0.680  32.766  0.00  0.00     0.100 A 
ATOM      6  C   UNL d   1      55.961  -0.610  33.345  0.00  0.00     0.100 A 
ENDROOT
BRANCH   1   7
ATOM      7  S   UNL d   1      57.150  -0.419  31.518  0.00  0.00     0.271 S 
ATOM      8  O   UNL d   1      56.885  -1.200  31.526  0.00  0.00    -0.200 OA
ATOM      9  O   UNL d   1      57.414   0.363  31.510  0.00  0.00    -0.200 OA
BRANCH   7  10
ATOM     10  C   UNL d   1      57.668  -0.601  30.908  0.00  0.00     0.104 A 
ATOM     11  C   UNL d   1      57.731  -1.375  30.637  0.00  0.00     0.013 A 
ATOM     12  C   UNL d   1      58.251  -1.558  30.024  0.00  0.00    -0.004 A 
ATOM     13  C   UNL d   1      58.709  -0.966  29.681  0.00  0.00    -0.023 A 
ATOM     14  C   UNL d   1      58.646  -0.195  29.952  0.00  0.00    -0.004 A 
ATOM     15  C   UNL d   1      58.125  -0.012  30.565  0.00  0.00     0.013 A 
BRANCH  13  16
ATOM     16  C   UNL d   1      59.232  -1.150  29.065  0.00  0.00     0.019 C 
ATOM     17  C   UNL d   1      58.872  -1.888  28.980  0.00  0.00     0.004 C 
ATOM     18  C   UNL d   1      59.592  -0.413  29.151  0.00  0.00     0.004 C 
ATOM     19  C   UNL d   1      59.751  -1.332  28.455  0.00  0.00     0.004 C 
ENDBRANCH  13  16
ENDBRANCH   7  10
ENDBRANCH   1   7
BRANCH   2  20
ATOM     20  C   UNL d   1      55.059   0.315  33.980  0.00  0.00     0.092 A 
ATOM     21  C   UNL d   1      55.354   0.489  34.739  0.00  0.00     0.156 A 
ATOM     22  F   UNL d   1      56.115   0.479  34.867  0.00  0.00    -0.203 F 
ATOM     23  C   UNL d   1      54.835   0.671  35.350  0.00  0.00     0.031 A 
ATOM     24  C   UNL d   1      54.015   0.682  35.209  0.00  0.00     0.002 A 
ATOM     25  C   UNL d   1      53.727   0.509  34.456  0.00  0.00     0.002 A 
ATOM     26  C   UNL d   1      54.245   0.327  33.846  0.00  0.00     0.020 A 
ENDBRANCH   2  20
TORSDOF 4
ENDMDL
