MODEL 1
REMARK VINA RESULT:      83.9      0.000      0.000
REMARK  4 active torsions:
REMARK  status: ('A' for Active; 'I' for Inactive)
REMARK    1  A    between atoms: S_2  and  N_1 
REMARK    2  A    between atoms: N_6  and  S_2 
REMARK    3  A    between atoms: C_10  and  C_3 
REMARK    4  A    between atoms: C_11  and  C_10 
ROOT
ATOM      1  N   UNL d   1      60.232  48.895  51.065  0.00  0.00    -0.201 N 
ATOM      2  C   UNL d   1      60.841  48.447  50.704  0.00  0.00     0.158 A 
ATOM      3  N   UNL d   1      61.473  48.405  51.240  0.00  0.00    -0.226 NA
ATOM      4  C   UNL d   1      60.497  49.119  51.810  0.00  0.00     0.095 A 
ATOM      5  C   UNL d   1      61.259  48.819  51.920  0.00  0.00     0.100 A 
ATOM      6  C   UNL d   1      60.134  49.561  52.403  0.00  0.00     0.020 A 
ATOM      7  C   UNL d   1      61.656  48.965  52.628  0.00  0.00     0.021 A 
ATOM      8  C   UNL d   1      60.530  49.708  53.111  0.00  0.00     0.002 A 
ATOM      9  C   UNL d   1      61.295  49.409  53.226  0.00  0.00     0.002 A 
ENDROOT
BRANCH   1  10
ATOM     10  S   UNL d   1      59.508  49.075  50.734  0.00  0.00     0.338 S 
ATOM     11  O   UNL d   1      59.148  48.483  51.179  0.00  0.00    -0.181 OA
ATOM     12  O   UNL d   1      59.865  49.668  50.288  0.00  0.00    -0.181 OA
BRANCH  10  13
ATOM     13  N   UNL d   1      58.783  49.266  50.393  0.00  0.00    -0.216 N 
ATOM     14  C   UNL d   1      58.751  49.518  49.608  0.00  0.00     0.093 A 
ATOM     15  C   UNL d   1      58.030  49.708  49.269  0.00  0.00     0.020 A 
ATOM     16  C   UNL d   1      57.338  49.650  49.700  0.00  0.00     0.003 A 
ATOM     17  C   UNL d   1      57.361  49.398  50.486  0.00  0.00     0.020 A 
ATOM     18  C   UNL d   1      58.092  49.205  50.834  0.00  0.00     0.093 A 
ENDBRANCH  10  13
ENDBRANCH   1  10
BRANCH   2  19
ATOM     19  C   UNL d   1      60.812  48.110  49.949  0.00  0.00     0.038 C 
BRANCH  19  20
ATOM     20  C   UNL d   1      61.255  47.435  49.791  0.00  0.00     0.003 A 
ATOM     21  C   UNL d   1      60.916  46.689  49.909  0.00  0.00     0.000 A 
ATOM     22  C   UNL d   1      61.358  46.014  49.750  0.00  0.00     0.000 A 
ATOM     23  C   UNL d   1      62.127  46.075  49.478  0.00  0.00     0.000 A 
ATOM     24  C   UNL d   1      62.467  46.824  49.360  0.00  0.00     0.000 A 
ATOM     25  C   UNL d   1      62.025  47.503  49.519  0.00  0.00     0.000 A 
ENDBRANCH  19  20
ENDBRANCH   2  19
TORSDOF 4
ENDMDL
