MODEL 1
REMARK VINA RESULT:      -6.7      0.000      0.000
REMARK  4 active torsions:
REMARK  status: ('A' for Active; 'I' for Inactive)
REMARK    1  A    between atoms: S_2  and  N_1 
REMARK    2  A    between atoms: C_10  and  S_2 
REMARK    3  A    between atoms: C_7  and  C_4 
REMARK    4  A    between atoms: C_12  and  C_5 
ROOT
ATOM      1  N   UNL d   1     -47.894  13.759  22.720  0.00  0.00    -0.152 N 
ATOM      2  N   UNL d   1     -47.100  13.870  22.587  0.00  0.00    -0.155 NA
ATOM      3  C   UNL d   1     -46.752  13.128  22.498  0.00  0.00     0.110 A 
ATOM      4  C   UNL d   1     -48.053  12.948  22.716  0.00  0.00     0.096 A 
ATOM      5  C   UNL d   1     -47.324  12.546  22.574  0.00  0.00     0.041 A 
ENDROOT
BRANCH   1   6
ATOM      6  S   UNL d   1     -48.437  14.339  22.837  0.00  0.00     0.286 S 
ATOM      7  O   UNL d   1     -47.652  14.538  23.026  0.00  0.00    -0.198 OA
ATOM      8  O   UNL d   1     -48.308  15.112  23.123  0.00  0.00    -0.198 OA
BRANCH   6   9
ATOM      9  C   UNL d   1     -49.108  14.816  22.898  0.00  0.00     0.105 A 
ATOM     10  C   UNL d   1     -49.528  15.026  22.219  0.00  0.00     0.013 A 
ATOM     11  C   UNL d   1     -50.202  15.505  22.278  0.00  0.00     0.001 A 
ATOM     12  C   UNL d   1     -50.453  15.772  23.018  0.00  0.00     0.000 A 
ATOM     13  C   UNL d   1     -50.029  15.559  23.698  0.00  0.00     0.001 A 
ATOM     14  C   UNL d   1     -49.359  15.082  23.638  0.00  0.00     0.013 A 
ENDBRANCH   6   9
ENDBRANCH   1   6
BRANCH   4  15
ATOM     15  C   UNL d   1     -48.788  12.590  22.830  0.00  0.00     0.019 A 
ATOM     16  C   UNL d   1     -49.282  12.446  22.177  0.00  0.00     0.002 A 
ATOM     17  C   UNL d   1     -49.990  12.100  22.286  0.00  0.00     0.007 A 
ATOM     18  C   UNL d   1     -50.256  11.873  23.057  0.00  0.00     0.035 A 
ATOM     19  C   UNL d   1     -49.737  12.030  23.698  0.00  0.00     0.007 A 
ATOM     20 BR   UNL d   1     -50.991  11.514  23.170  0.00  0.00    -0.049 Br
ATOM     21  C   UNL d   1     -49.029  12.375  23.588  0.00  0.00     0.002 A 
ENDBRANCH   4  15
BRANCH   3  22
ATOM     22  C   UNL d   1     -45.957  12.969  22.354  0.00  0.00     0.049 A 
ATOM     23  S   UNL d   1     -45.485  12.427  22.778  0.00  0.00    -0.085 SA
ATOM     24  C   UNL d   1     -44.768  12.485  22.419  0.00  0.00     0.035 A 
ATOM     25  C   UNL d   1     -44.722  12.974  21.844  0.00  0.00     0.007 A 
ATOM     26  C   UNL d   1     -45.461  13.295  21.780  0.00  0.00     0.009 A 
ENDBRANCH   3  22
TORSDOF 4
ENDMDL
MODEL 2
REMARK VINA RESULT:      -6.0      1.445      2.557
REMARK  4 active torsions:
REMARK  status: ('A' for Active; 'I' for Inactive)
REMARK    1  A    between atoms: S_2  and  N_1 
REMARK    2  A    between atoms: C_10  and  S_2 
REMARK    3  A    between atoms: C_7  and  C_4 
REMARK    4  A    between atoms: C_12  and  C_5 
ROOT
ATOM      1  N   UNL d   1     -47.592  12.765  22.664  0.00  0.00    -0.152 N 
ATOM      2  N   UNL d   1     -46.870  12.408  22.556  0.00  0.00    -0.155 NA
ATOM      3  C   UNL d   1     -46.315  13.000  22.406  0.00  0.00     0.110 A 
ATOM      4  C   UNL d   1     -47.500  13.582  22.585  0.00  0.00     0.096 A 
ATOM      5  C   UNL d   1     -46.686  13.731  22.420  0.00  0.00     0.041 A 
ENDROOT
BRANCH   1   6
ATOM      6  S   UNL d   1     -48.284  12.388  22.823  0.00  0.00     0.286 S 
ATOM      7  O   UNL d   1     -47.603  12.049  23.161  0.00  0.00    -0.198 OA
ATOM      8  O   UNL d   1     -48.399  11.702  23.284  0.00  0.00    -0.198 OA
BRANCH   6   9
ATOM      9  C   UNL d   1     -49.064  12.127  22.889  0.00  0.00     0.105 A 
ATOM     10  C   UNL d   1     -49.519  12.013  22.209  0.00  0.00     0.013 A 
ATOM     11  C   UNL d   1     -50.303  11.750  22.273  0.00  0.00     0.001 A 
ATOM     12  C   UNL d   1     -50.628  11.604  23.017  0.00  0.00     0.000 A 
ATOM     13  C   UNL d   1     -50.169  11.720  23.697  0.00  0.00     0.001 A 
ATOM     14  C   UNL d   1     -49.389  11.981  23.633  0.00  0.00     0.013 A 
ENDBRANCH   6   9
ENDBRANCH   1   6
BRANCH   4  15
ATOM     15  C   UNL d   1     -48.092  14.154  22.652  0.00  0.00     0.019 A 
ATOM     16  C   UNL d   1     -48.490  14.417  21.972  0.00  0.00     0.002 A 
ATOM     17  C   UNL d   1     -49.060  14.968  22.037  0.00  0.00     0.007 A 
ATOM     18  C   UNL d   1     -49.274  15.297  22.788  0.00  0.00     0.035 A 
ATOM     19  C   UNL d   1     -48.855  15.013  23.458  0.00  0.00     0.007 A 
ATOM     20 BR   UNL d   1     -49.865  15.868  22.855  0.00  0.00    -0.049 Br
ATOM     21  C   UNL d   1     -48.284  14.461  23.392  0.00  0.00     0.002 A 
ENDBRANCH   4  15
BRANCH   3  22
ATOM     22  C   UNL d   1     -45.512  12.899  22.262  0.00  0.00     0.049 A 
ATOM     23  S   UNL d   1     -45.025  13.423  21.832  0.00  0.00    -0.085 SA
ATOM     24  C   UNL d   1     -44.304  13.069  21.857  0.00  0.00     0.035 A 
ATOM     25  C   UNL d   1     -44.267  12.413  22.232  0.00  0.00     0.007 A 
ATOM     26  C   UNL d   1     -45.018  12.281  22.499  0.00  0.00     0.009 A 
ENDBRANCH   3  22
TORSDOF 4
ENDMDL
MODEL 3
REMARK VINA RESULT:      -5.4      7.760      9.835
REMARK  4 active torsions:
REMARK  status: ('A' for Active; 'I' for Inactive)
REMARK    1  A    between atoms: S_2  and  N_1 
REMARK    2  A    between atoms: C_10  and  S_2 
REMARK    3  A    between atoms: C_7  and  C_4 
REMARK    4  A    between atoms: C_12  and  C_5 
ROOT
ATOM      1  N   UNL d   1     -39.508  14.440  19.196  0.00  0.00    -0.152 N 
ATOM      2  N   UNL d   1     -39.477  14.249  18.407  0.00  0.00    -0.155 NA
ATOM      3  C   UNL d   1     -38.725  13.948  18.248  0.00  0.00     0.110 A 
ATOM      4  C   UNL d   1     -38.779  14.262  19.542  0.00  0.00     0.096 A 
ATOM      5  C   UNL d   1     -38.280  13.948  18.937  0.00  0.00     0.041 A 
ENDROOT
BRANCH   1   6
ATOM      6  S   UNL d   1     -40.141  14.751  19.580  0.00  0.00     0.286 S 
ATOM      7  O   UNL d   1     -39.925  15.134  18.874  0.00  0.00    -0.198 OA
ATOM      8  O   UNL d   1     -40.604  15.408  19.356  0.00  0.00    -0.198 OA
BRANCH   6   9
ATOM      9  C   UNL d   1     -40.761  14.943  20.089  0.00  0.00     0.105 A 
ATOM     10  C   UNL d   1     -41.238  14.345  20.403  0.00  0.00     0.013 A 
ATOM     11  C   UNL d   1     -41.861  14.536  20.915  0.00  0.00     0.001 A 
ATOM     12  C   UNL d   1     -42.006  15.324  21.110  0.00  0.00     0.000 A 
ATOM     13  C   UNL d   1     -41.527  15.922  20.794  0.00  0.00     0.001 A 
ATOM     14  C   UNL d   1     -40.906  15.731  20.285  0.00  0.00     0.013 A 
ENDBRANCH   6   9
ENDBRANCH   1   6
BRANCH   4  15
ATOM     15  C   UNL d   1     -38.569  14.369  20.333  0.00  0.00     0.019 A 
ATOM     16  C   UNL d   1     -38.714  13.762  20.883  0.00  0.00     0.002 A 
ATOM     17  C   UNL d   1     -38.512  13.865  21.646  0.00  0.00     0.007 A 
ATOM     18  C   UNL d   1     -38.150  14.582  21.914  0.00  0.00     0.035 A 
ATOM     19  C   UNL d   1     -38.016  15.177  21.337  0.00  0.00     0.007 A 
ATOM     20 BR   UNL d   1     -37.941  14.689  22.705  0.00  0.00    -0.049 Br
ATOM     21  C   UNL d   1     -38.218  15.074  20.574  0.00  0.00     0.002 A 
ENDBRANCH   4  15
BRANCH   3  22
ATOM     22  C   UNL d   1     -38.443  13.682  17.523  0.00  0.00     0.049 A 
ATOM     23  S   UNL d   1     -38.241  14.166  16.873  0.00  0.00    -0.085 SA
ATOM     24  C   UNL d   1     -38.001  13.639  16.316  0.00  0.00     0.035 A 
ATOM     25  C   UNL d   1     -38.021  12.910  16.517  0.00  0.00     0.007 A 
ATOM     26  C   UNL d   1     -38.297  12.908  17.276  0.00  0.00     0.009 A 
ENDBRANCH   3  22
TORSDOF 4
ENDMDL
MODEL 4
REMARK VINA RESULT:      -4.1      6.157      8.957
REMARK  4 active torsions:
REMARK  status: ('A' for Active; 'I' for Inactive)
REMARK    1  A    between atoms: S_2  and  N_1 
REMARK    2  A    between atoms: C_10  and  S_2 
REMARK    3  A    between atoms: C_7  and  C_4 
REMARK    4  A    between atoms: C_12  and  C_5 
ROOT
ATOM      1  N   UNL d   1     -41.077  14.165  19.902  0.00  0.00    -0.152 N 
ATOM      2  N   UNL d   1     -41.774  13.753  19.972  0.00  0.00    -0.155 NA
ATOM      3  C   UNL d   1     -41.921  13.637  20.776  0.00  0.00     0.110 A 
ATOM      4  C   UNL d   1     -40.778  14.313  20.659  0.00  0.00     0.096 A 
ATOM      5  C   UNL d   1     -41.317  13.975  21.215  0.00  0.00     0.041 A 
ENDROOT
BRANCH   1   6
ATOM      6  S   UNL d   1     -40.732  14.394  19.214  0.00  0.00     0.286 S 
ATOM      7  O   UNL d   1     -41.066  13.631  19.214  0.00  0.00    -0.198 OA
ATOM      8  O   UNL d   1     -40.669  13.959  18.505  0.00  0.00    -0.198 OA
BRANCH   6   9
ATOM      9  C   UNL d   1     -40.344  14.775  18.594  0.00  0.00     0.105 A 
ATOM     10  C   UNL d   1     -40.578  15.533  18.365  0.00  0.00     0.013 A 
ATOM     11  C   UNL d   1     -40.190  15.918  17.742  0.00  0.00     0.001 A 
ATOM     12  C   UNL d   1     -39.569  15.542  17.350  0.00  0.00     0.000 A 
ATOM     13  C   UNL d   1     -39.336  14.781  17.581  0.00  0.00     0.001 A 
ATOM     14  C   UNL d   1     -39.723  14.399  18.202  0.00  0.00     0.013 A 
ENDBRANCH   6   9
ENDBRANCH   1   6
BRANCH   4  15
ATOM     15  C   UNL d   1     -40.082  14.715  20.844  0.00  0.00     0.019 A 
ATOM     16  C   UNL d   1     -40.106  15.533  20.992  0.00  0.00     0.002 A 
ATOM     17  C   UNL d   1     -39.434  15.921  21.171  0.00  0.00     0.007 A 
ATOM     18  C   UNL d   1     -38.690  15.519  21.215  0.00  0.00     0.035 A 
ATOM     19  C   UNL d   1     -38.696  14.694  21.062  0.00  0.00     0.007 A 
ATOM     20 BR   UNL d   1     -37.994  15.921  21.401  0.00  0.00    -0.049 Br
ATOM     21  C   UNL d   1     -39.368  14.306  20.883  0.00  0.00     0.002 A 
ENDBRANCH   4  15
BRANCH   3  22
ATOM     22  C   UNL d   1     -42.564  13.247  21.109  0.00  0.00     0.049 A 
ATOM     23  S   UNL d   1     -42.533  12.519  21.517  0.00  0.00    -0.085 SA
ATOM     24  C   UNL d   1     -43.298  12.389  21.724  0.00  0.00     0.035 A 
ATOM     25  C   UNL d   1     -43.795  12.917  21.510  0.00  0.00     0.007 A 
ATOM     26  C   UNL d   1     -43.358  13.473  21.118  0.00  0.00     0.009 A 
ENDBRANCH   3  22
TORSDOF 4
ENDMDL
MODEL 5
REMARK VINA RESULT:      -3.9      1.987      4.401
REMARK  4 active torsions:
REMARK  status: ('A' for Active; 'I' for Inactive)
REMARK    1  A    between atoms: S_2  and  N_1 
REMARK    2  A    between atoms: C_10  and  S_2 
REMARK    3  A    between atoms: C_7  and  C_4 
REMARK    4  A    between atoms: C_12  and  C_5 
ROOT
ATOM      1  N   UNL d   1     -48.498  13.231  23.176  0.00  0.00    -0.152 N 
ATOM      2  N   UNL d   1     -49.240  13.522  23.333  0.00  0.00    -0.155 NA
ATOM      3  C   UNL d   1     -49.226  14.337  23.201  0.00  0.00     0.110 A 
ATOM      4  C   UNL d   1     -48.010  13.856  22.945  0.00  0.00     0.096 A 
ATOM      5  C   UNL d   1     -48.475  14.561  22.960  0.00  0.00     0.041 A 
ENDROOT
BRANCH   1   6
ATOM      6  S   UNL d   1     -48.272  12.462  23.236  0.00  0.00     0.286 S 
ATOM      7  O   UNL d   1     -48.935  12.679  23.690  0.00  0.00    -0.198 OA
ATOM      8  O   UNL d   1     -48.621  11.861  23.696  0.00  0.00    -0.198 OA
BRANCH   6   9
ATOM      9  C   UNL d   1     -47.916  11.720  23.185  0.00  0.00     0.105 A 
ATOM     10  C   UNL d   1     -47.300  11.522  23.698  0.00  0.00     0.013 A 
ATOM     11  C   UNL d   1     -46.940  10.777  23.649  0.00  0.00     0.001 A 
ATOM     12  C   UNL d   1     -47.199  10.232  23.085  0.00  0.00     0.000 A 
ATOM     13  C   UNL d   1     -47.817  10.433  22.572  0.00  0.00     0.001 A 
ATOM     14  C   UNL d   1     -48.174  11.176  22.622  0.00  0.00     0.013 A 
ENDBRANCH   6   9
ENDBRANCH   1   6
BRANCH   4  15
ATOM     15  C   UNL d   1     -47.213  13.809  22.735  0.00  0.00     0.019 A 
ATOM     16  C   UNL d   1     -46.628  13.876  23.321  0.00  0.00     0.002 A 
ATOM     17  C   UNL d   1     -45.860  13.830  23.119  0.00  0.00     0.007 A 
ATOM     18  C   UNL d   1     -45.620  13.713  22.315  0.00  0.00     0.035 A 
ATOM     19  C   UNL d   1     -46.233  13.648  21.744  0.00  0.00     0.007 A 
ATOM     20 BR   UNL d   1     -44.824  13.665  22.106  0.00  0.00    -0.049 Br
ATOM     21  C   UNL d   1     -47.001  13.694  21.946  0.00  0.00     0.002 A 
ENDBRANCH   4  15
BRANCH   3  22
ATOM     22  C   UNL d   1     -49.853  14.862  23.289  0.00  0.00     0.049 A 
ATOM     23  S   UNL d   1     -50.630  14.743  23.009  0.00  0.00    -0.085 SA
ATOM     24  C   UNL d   1     -51.014  15.411  23.238  0.00  0.00     0.035 A 
ATOM     25  C   UNL d   1     -50.600  15.922  23.612  0.00  0.00     0.007 A 
ATOM     26  C   UNL d   1     -49.860  15.600  23.659  0.00  0.00     0.009 A 
ENDBRANCH   3  22
TORSDOF 4
ENDMDL
