MODEL 1
REMARK VINA RESULT:      79.0      0.000      0.000
REMARK  4 active torsions:
REMARK  status: ('A' for Active; 'I' for Inactive)
REMARK    1  A    between atoms: S_2  and  C_1 
REMARK    2  A    between atoms: C_8  and  S_2 
REMARK    3  A    between atoms: N_7  and  C_4 
REMARK    4  A    between atoms: C_11  and  N_7 
ROOT
ATOM      1  C   UNL d   1      60.816  47.931  50.464  0.00  0.00     0.187 A 
ATOM      2  N   UNL d   1      60.075  48.231  50.458  0.00  0.00    -0.208 NA
ATOM      3  C   UNL d   1      60.122  49.019  50.698  0.00  0.00     0.196 A 
ATOM      4  C   UNL d   1      61.391  48.451  50.693  0.00  0.00     0.118 A 
ATOM      5  S   UNL d   1      60.936  49.200  50.857  0.00  0.00    -0.035 SA
ATOM      6 CL   UNL d   1      62.182  48.431  50.788  0.00  0.00    -0.073 Cl
ENDROOT
BRANCH   1   7
ATOM      7  S   UNL d   1      61.088  47.161  50.270  0.00  0.00     0.228 S 
ATOM      8  O   UNL d   1      61.718  47.568  49.758  0.00  0.00    -0.216 OA
ATOM      9  O   UNL d   1      60.477  46.884  50.762  0.00  0.00    -0.216 OA
BRANCH   7  10
ATOM     10  C   UNL d   1      61.302  46.432  50.120  0.00  0.00     0.089 A 
ATOM     11  C   UNL d   1      61.592  46.142  49.434  0.00  0.00     0.011 A 
ATOM     12  C   UNL d   1      61.798  45.320  49.376  0.00  0.00     0.001 A 
ATOM     13  C   UNL d   1      61.745  44.753  49.934  0.00  0.00     0.000 A 
ATOM     14  C   UNL d   1      61.429  45.004  50.727  0.00  0.00     0.001 A 
ATOM     15  C   UNL d   1      61.968  43.876  49.860  0.00  0.00     0.000 C 
ATOM     16  C   UNL d   1      61.223  45.826  50.785  0.00  0.00     0.011 A 
ENDBRANCH   7  10
ENDBRANCH   1   7
BRANCH   3  17
ATOM     17  N   UNL d   1      59.509  49.697  50.821  0.00  0.00    -0.221 NA
BRANCH  17  18
ATOM     18  C   UNL d   1      58.698  49.676  50.472  0.00  0.00     0.084 A 
ATOM     19  C   UNL d   1      58.141  49.683  51.040  0.00  0.00     0.018 A 
ATOM     20  C   UNL d   1      58.224  49.704  51.829  0.00  0.00     0.002 C 
ATOM     21  C   UNL d   1      57.405  49.665  50.729  0.00  0.00     0.002 A 
ATOM     22  C   UNL d   1      57.284  49.640  49.830  0.00  0.00     0.000 A 
ATOM     23  C   UNL d   1      57.861  49.636  49.317  0.00  0.00     0.002 A 
ATOM     24  C   UNL d   1      58.636  49.657  49.741  0.00  0.00     0.019 A 
ENDBRANCH  17  18
ENDBRANCH   3  17
TORSDOF 4
ENDMDL
