MODEL 1
REMARK VINA RESULT:      -3.6      0.000      0.000
REMARK  9 active torsions:
REMARK  status: ('A' for Active; 'I' for Inactive)
REMARK    1  A    between atoms: P_4  and  C_1 
REMARK    2  A    between atoms: N_7  and  C_3 
REMARK    3  A    between atoms: O_10  and  P_4 
REMARK    4  A    between atoms: O_11  and  P_4 
REMARK    5  A    between atoms: C_8  and  C_5 
REMARK    6  A    between atoms: C_14  and  N_7 
REMARK    7  A    between atoms: C_21  and  O_10 
REMARK    8  A    between atoms: C_20  and  O_11 
REMARK    9  A    between atoms: C_19  and  C_14 
ROOT
ATOM      1  C   UNL d   1     -40.153  14.534  20.203  0.00  0.00     0.205 A 
ATOM      2  N   UNL d   1     -39.698  14.658  19.534  0.00  0.00    -0.211 NA
ATOM      3  C   UNL d   1     -40.849  14.150  19.989  0.00  0.00     0.209 A 
ATOM      4  C   UNL d   1     -40.100  14.359  18.913  0.00  0.00     0.184 A 
ATOM      5  O   UNL d   1     -40.808  14.042  19.167  0.00  0.00    -0.270 OA
ENDROOT
BRANCH   1   6
ATOM      6  P   UNL d   1     -39.952  14.758  20.994  0.00  0.00     0.395 P 
ATOM      7  O   UNL d   1     -40.398  15.449  20.925  0.00  0.00    -0.251 OA
BRANCH   6   8
ATOM      8  O   UNL d   1     -39.750  14.966  21.765  0.00  0.00    -0.263 OA
BRANCH   8   9
ATOM      9  C   UNL d   1     -39.735  15.737  22.004  0.00  0.00     0.126 C 
ATOM     10  C   UNL d   1     -39.509  15.920  22.753  0.00  0.00     0.029 C 
ENDBRANCH   8   9
ENDBRANCH   6   8
BRANCH   6  11
ATOM     11  O   UNL d   1     -39.502  14.048  21.046  0.00  0.00    -0.263 OA
BRANCH  11  12
ATOM     12  C   UNL d   1     -38.919  14.000  21.613  0.00  0.00     0.126 C 
ATOM     13  C   UNL d   1     -38.497  13.296  21.652  0.00  0.00     0.029 C 
ENDBRANCH  11  12
ENDBRANCH   6  11
ENDBRANCH   1   6
BRANCH   3  14
ATOM     14  N   UNL d   1     -41.417  13.956  20.578  0.00  0.00    -0.219 NA
BRANCH  14  15
ATOM     15  C   UNL d   1     -42.154  13.651  20.353  0.00  0.00     0.101 C 
BRANCH  15  16
ATOM     16  C   UNL d   1     -42.638  13.292  20.920  0.00  0.00     0.019 A 
ATOM     17  C   UNL d   1     -42.391  12.586  21.305  0.00  0.00     0.002 A 
ATOM     18  C   UNL d   1     -42.877  12.239  21.864  0.00  0.00     0.000 A 
ATOM     19  C   UNL d   1     -43.619  12.572  22.062  0.00  0.00     0.000 A 
ATOM     20  C   UNL d   1     -43.867  13.286  21.671  0.00  0.00     0.000 A 
ATOM     21  C   UNL d   1     -43.362  13.625  21.107  0.00  0.00     0.002 A 
ENDBRANCH  15  16
ENDBRANCH  14  15
ENDBRANCH   3  14
BRANCH   4  22
ATOM     22  C   UNL d   1     -39.808  14.385  18.141  0.00  0.00     0.042 A 
ATOM     23  C   UNL d   1     -39.957  15.024  17.651  0.00  0.00     0.006 A 
ATOM     24  C   UNL d   1     -39.662  15.036  16.887  0.00  0.00     0.030 A 
ATOM     25  C   UNL d   1     -39.208  14.408  16.592  0.00  0.00     0.140 A 
ATOM     26  C   UNL d   1     -39.050  13.743  17.095  0.00  0.00     0.030 A 
ATOM     27  F   UNL d   1     -38.899  14.392  15.832  0.00  0.00    -0.204 F 
ATOM     28  C   UNL d   1     -39.352  13.740  17.860  0.00  0.00     0.006 A 
ENDBRANCH   4  22
TORSDOF 9
ENDMDL
MODEL 2
REMARK VINA RESULT:      -2.9      5.888      7.817
REMARK  9 active torsions:
REMARK  status: ('A' for Active; 'I' for Inactive)
REMARK    1  A    between atoms: P_4  and  C_1 
REMARK    2  A    between atoms: N_7  and  C_3 
REMARK    3  A    between atoms: O_10  and  P_4 
REMARK    4  A    between atoms: O_11  and  P_4 
REMARK    5  A    between atoms: C_8  and  C_5 
REMARK    6  A    between atoms: C_14  and  N_7 
REMARK    7  A    between atoms: C_21  and  O_10 
REMARK    8  A    between atoms: C_20  and  O_11 
REMARK    9  A    between atoms: C_19  and  C_14 
ROOT
ATOM      1  C   UNL d   1     -46.518  12.721  23.170  0.00  0.00     0.205 A 
ATOM      2  N   UNL d   1     -45.780  12.370  23.216  0.00  0.00    -0.211 NA
ATOM      3  C   UNL d   1     -47.097  12.148  23.288  0.00  0.00     0.209 A 
ATOM      4  C   UNL d   1     -45.893  11.594  23.360  0.00  0.00     0.184 A 
ATOM      5  O   UNL d   1     -46.692  11.433  23.408  0.00  0.00    -0.270 OA
ENDROOT
BRANCH   1   6
ATOM      6  P   UNL d   1     -46.675  13.540  23.026  0.00  0.00     0.395 P 
ATOM      7  O   UNL d   1     -47.215  13.560  23.649  0.00  0.00    -0.251 OA
BRANCH   6   8
ATOM      8  O   UNL d   1     -46.819  14.337  22.875  0.00  0.00    -0.263 OA
BRANCH   8   9
ATOM      9  C   UNL d   1     -47.561  14.649  22.932  0.00  0.00     0.126 C 
ATOM     10  C   UNL d   1     -47.702  15.395  22.668  0.00  0.00     0.029 C 
ENDBRANCH   8   9
ENDBRANCH   6   8
BRANCH   6  11
ATOM     11  O   UNL d   1     -46.119  13.501  22.393  0.00  0.00    -0.263 OA
BRANCH  11  12
ATOM     12  C   UNL d   1     -45.698  14.172  22.206  0.00  0.00     0.126 C 
ATOM     13  C   UNL d   1     -45.040  14.074  21.722  0.00  0.00     0.029 C 
ENDBRANCH  11  12
ENDBRANCH   6  11
ENDBRANCH   1   6
BRANCH   3  14
ATOM     14  N   UNL d   1     -47.910  12.366  23.268  0.00  0.00    -0.219 NA
BRANCH  14  15
ATOM     15  C   UNL d   1     -48.492  11.776  23.265  0.00  0.00     0.101 C 
BRANCH  15  16
ATOM     16  C   UNL d   1     -49.275  11.977  23.092  0.00  0.00     0.019 A 
ATOM     17  C   UNL d   1     -49.566  11.920  22.304  0.00  0.00     0.002 A 
ATOM     18  C   UNL d   1     -50.342  12.121  22.144  0.00  0.00     0.000 A 
ATOM     19  C   UNL d   1     -50.858  12.383  22.749  0.00  0.00     0.000 A 
ATOM     20  C   UNL d   1     -50.562  12.439  23.546  0.00  0.00     0.000 A 
ATOM     21  C   UNL d   1     -49.772  12.232  23.691  0.00  0.00     0.002 A 
ENDBRANCH  15  16
ENDBRANCH  14  15
ENDBRANCH   3  14
BRANCH   4  22
ATOM     22  C   UNL d   1     -45.268  11.061  23.441  0.00  0.00     0.042 A 
ATOM     23  C   UNL d   1     -45.400  10.272  23.617  0.00  0.00     0.006 A 
ATOM     24  C   UNL d   1     -44.770   9.755  23.695  0.00  0.00     0.030 A 
ATOM     25  C   UNL d   1     -43.988  10.012  23.599  0.00  0.00     0.140 A 
ATOM     26  C   UNL d   1     -43.844  10.829  23.416  0.00  0.00     0.030 A 
ATOM     27  F   UNL d   1     -43.337   9.518  23.671  0.00  0.00    -0.204 F 
ATOM     28  C   UNL d   1     -44.483  11.341  23.340  0.00  0.00     0.006 A 
ENDBRANCH   4  22
TORSDOF 9
ENDMDL
MODEL 3
REMARK VINA RESULT:      -1.8      5.616      7.949
REMARK  9 active torsions:
REMARK  status: ('A' for Active; 'I' for Inactive)
REMARK    1  A    between atoms: P_4  and  C_1 
REMARK    2  A    between atoms: N_7  and  C_3 
REMARK    3  A    between atoms: O_10  and  P_4 
REMARK    4  A    between atoms: O_11  and  P_4 
REMARK    5  A    between atoms: C_8  and  C_5 
REMARK    6  A    between atoms: C_14  and  N_7 
REMARK    7  A    between atoms: C_21  and  O_10 
REMARK    8  A    between atoms: C_20  and  O_11 
REMARK    9  A    between atoms: C_19  and  C_14 
ROOT
ATOM      1  C   UNL d   1     -47.419  12.593  22.319  0.00  0.00     0.205 A 
ATOM      2  N   UNL d   1     -46.663  12.321  22.161  0.00  0.00    -0.211 NA
ATOM      3  C   UNL d   1     -47.388  13.400  22.478  0.00  0.00     0.209 A 
ATOM      4  C   UNL d   1     -46.169  12.944  22.219  0.00  0.00     0.184 A 
ATOM      5  O   UNL d   1     -46.589  13.616  22.413  0.00  0.00    -0.270 OA
ENDROOT
BRANCH   1   6
ATOM      6  P   UNL d   1     -48.127  12.129  22.323  0.00  0.00     0.395 P 
ATOM      7  O   UNL d   1     -48.277  12.329  21.537  0.00  0.00    -0.251 OA
BRANCH   6   8
ATOM      8  O   UNL d   1     -48.814  11.675  22.338  0.00  0.00    -0.263 OA
BRANCH   8   9
ATOM      9  C   UNL d   1     -49.451  11.858  21.877  0.00  0.00     0.126 C 
ATOM     10  C   UNL d   1     -49.999  11.294  21.710  0.00  0.00     0.029 C 
ENDBRANCH   8   9
ENDBRANCH   6   8
BRANCH   6  11
ATOM     11  O   UNL d   1     -47.958  11.936  23.125  0.00  0.00    -0.263 OA
BRANCH  11  12
ATOM     12  C   UNL d   1     -48.237  11.230  23.420  0.00  0.00     0.126 C 
ATOM     13  C   UNL d   1     -47.677  10.696  23.697  0.00  0.00     0.029 C 
ENDBRANCH  11  12
ENDBRANCH   6  11
ENDBRANCH   1   6
BRANCH   3  14
ATOM     14  N   UNL d   1     -48.096  13.817  22.659  0.00  0.00    -0.219 NA
BRANCH  14  15
ATOM     15  C   UNL d   1     -48.067  14.634  22.793  0.00  0.00     0.101 C 
BRANCH  15  16
ATOM     16  C   UNL d   1     -48.772  15.061  22.865  0.00  0.00     0.019 A 
ATOM     17  C   UNL d   1     -49.120  15.426  22.191  0.00  0.00     0.002 A 
ATOM     18  C   UNL d   1     -49.816  15.846  22.272  0.00  0.00     0.000 A 
ATOM     19  C   UNL d   1     -50.194  15.922  23.015  0.00  0.00     0.000 A 
ATOM     20  C   UNL d   1     -49.842  15.552  23.696  0.00  0.00     0.000 A 
ATOM     21  C   UNL d   1     -49.134  15.130  23.595  0.00  0.00     0.002 A 
ENDBRANCH  15  16
ENDBRANCH  14  15
ENDBRANCH   3  14
BRANCH   4  22
ATOM     22  C   UNL d   1     -45.355  12.879  22.095  0.00  0.00     0.042 A 
ATOM     23  C   UNL d   1     -44.898  12.354  22.527  0.00  0.00     0.006 A 
ATOM     24  C   UNL d   1     -44.093  12.300  22.393  0.00  0.00     0.030 A 
ATOM     25  C   UNL d   1     -43.719  12.770  21.821  0.00  0.00     0.140 A 
ATOM     26  C   UNL d   1     -44.187  13.316  21.369  0.00  0.00     0.030 A 
ATOM     27  F   UNL d   1     -42.915  12.738  21.664  0.00  0.00    -0.204 F 
ATOM     28  C   UNL d   1     -44.996  13.363  21.512  0.00  0.00     0.006 A 
ENDBRANCH   4  22
TORSDOF 9
ENDMDL
MODEL 4
REMARK VINA RESULT:      -1.7      1.758      4.305
REMARK  9 active torsions:
REMARK  status: ('A' for Active; 'I' for Inactive)
REMARK    1  A    between atoms: P_4  and  C_1 
REMARK    2  A    between atoms: N_7  and  C_3 
REMARK    3  A    between atoms: O_10  and  P_4 
REMARK    4  A    between atoms: O_11  and  P_4 
REMARK    5  A    between atoms: C_8  and  C_5 
REMARK    6  A    between atoms: C_14  and  N_7 
REMARK    7  A    between atoms: C_21  and  O_10 
REMARK    8  A    between atoms: C_20  and  O_11 
REMARK    9  A    between atoms: C_19  and  C_14 
ROOT
ATOM      1  C   UNL d   1     -40.590  14.466  20.594  0.00  0.00     0.205 A 
ATOM      2  N   UNL d   1     -41.171  14.195  21.103  0.00  0.00    -0.211 NA
ATOM      3  C   UNL d   1     -40.775  14.238  19.826  0.00  0.00     0.209 A 
ATOM      4  C   UNL d   1     -41.710  13.805  20.663  0.00  0.00     0.184 A 
ATOM      5  O   UNL d   1     -41.489  13.817  19.877  0.00  0.00    -0.270 OA
ENDROOT
BRANCH   1   6
ATOM      6  P   UNL d   1     -39.903  14.910  20.811  0.00  0.00     0.395 P 
ATOM      7  O   UNL d   1     -40.243  15.603  20.521  0.00  0.00    -0.251 OA
BRANCH   6   8
ATOM      8  O   UNL d   1     -39.229  15.333  21.026  0.00  0.00    -0.263 OA
BRANCH   8   9
ATOM      9  C   UNL d   1     -38.679  15.557  20.480  0.00  0.00     0.126 C 
ATOM     10  C   UNL d   1     -38.004  15.921  20.718  0.00  0.00     0.029 C 
ENDBRANCH   8   9
ENDBRANCH   6   8
BRANCH   6  11
ATOM     11  O   UNL d   1     -39.571  14.193  21.103  0.00  0.00    -0.263 OA
BRANCH  11  12
ATOM     12  C   UNL d   1     -39.074  14.230  21.747  0.00  0.00     0.126 C 
ATOM     13  C   UNL d   1     -38.961  13.534  22.169  0.00  0.00     0.029 C 
ENDBRANCH  11  12
ENDBRANCH   6  11
ENDBRANCH   1   6
BRANCH   3  14
ATOM     14  N   UNL d   1     -40.262  14.448  19.193  0.00  0.00    -0.219 NA
BRANCH  14  15
ATOM     15  C   UNL d   1     -40.497  14.307  18.411  0.00  0.00     0.101 C 
BRANCH  15  16
ATOM     16  C   UNL d   1     -39.974  14.468  17.791  0.00  0.00     0.019 A 
ATOM     17  C   UNL d   1     -39.333  13.947  17.628  0.00  0.00     0.002 A 
ATOM     18  C   UNL d   1     -38.821  14.116  17.013  0.00  0.00     0.000 A 
ATOM     19  C   UNL d   1     -38.919  14.799  16.540  0.00  0.00     0.000 A 
ATOM     20  C   UNL d   1     -39.568  15.325  16.706  0.00  0.00     0.000 A 
ATOM     21  C   UNL d   1     -40.078  15.139  17.334  0.00  0.00     0.002 A 
ENDBRANCH  15  16
ENDBRANCH  14  15
ENDBRANCH   3  14
BRANCH   4  22
ATOM     22  C   UNL d   1     -42.381  13.453  20.991  0.00  0.00     0.042 A 
ATOM     23  C   UNL d   1     -42.342  12.722  21.358  0.00  0.00     0.006 A 
ATOM     24  C   UNL d   1     -43.016  12.385  21.679  0.00  0.00     0.030 A 
ATOM     25  C   UNL d   1     -43.749  12.770  21.642  0.00  0.00     0.140 A 
ATOM     26  C   UNL d   1     -43.796  13.528  21.263  0.00  0.00     0.030 A 
ATOM     27  F   UNL d   1     -44.440  12.458  21.954  0.00  0.00    -0.204 F 
ATOM     28  C   UNL d   1     -43.113  13.859  20.943  0.00  0.00     0.006 A 
ENDBRANCH   4  22
TORSDOF 9
ENDMDL
MODEL 5
REMARK VINA RESULT:      -1.0      5.158      7.786
REMARK  9 active torsions:
REMARK  status: ('A' for Active; 'I' for Inactive)
REMARK    1  A    between atoms: P_4  and  C_1 
REMARK    2  A    between atoms: N_7  and  C_3 
REMARK    3  A    between atoms: O_10  and  P_4 
REMARK    4  A    between atoms: O_11  and  P_4 
REMARK    5  A    between atoms: C_8  and  C_5 
REMARK    6  A    between atoms: C_14  and  N_7 
REMARK    7  A    between atoms: C_21  and  O_10 
REMARK    8  A    between atoms: C_20  and  O_11 
REMARK    9  A    between atoms: C_19  and  C_14 
ROOT
ATOM      1  C   UNL d   1     -46.610  12.647  22.975  0.00  0.00     0.205 A 
ATOM      2  N   UNL d   1     -47.340  13.003  23.080  0.00  0.00    -0.211 NA
ATOM      3  C   UNL d   1     -46.162  13.096  22.452  0.00  0.00     0.209 A 
ATOM      4  C   UNL d   1     -47.350  13.662  22.631  0.00  0.00     0.184 A 
ATOM      5  O   UNL d   1     -46.639  13.741  22.236  0.00  0.00    -0.270 OA
ENDROOT
BRANCH   1   6
ATOM      6  P   UNL d   1     -46.345  11.931  23.342  0.00  0.00     0.395 P 
ATOM      7  O   UNL d   1     -45.630  12.285  23.549  0.00  0.00    -0.251 OA
BRANCH   6   8
ATOM      8  O   UNL d   1     -46.099  11.229  23.695  0.00  0.00    -0.263 OA
BRANCH   8   9
ATOM      9  C   UNL d   1     -45.651  10.689  23.295  0.00  0.00     0.126 C 
ATOM     10  C   UNL d   1     -45.113  10.243  23.692  0.00  0.00     0.029 C 
ENDBRANCH   8   9
ENDBRANCH   6   8
BRANCH   6  11
ATOM     11  O   UNL d   1     -47.082  11.585  23.122  0.00  0.00    -0.263 OA
BRANCH  11  12
ATOM     12  C   UNL d   1     -47.497  11.167  23.685  0.00  0.00     0.126 C 
ATOM     13  C   UNL d   1     -48.221  10.853  23.455  0.00  0.00     0.029 C 
ENDBRANCH  11  12
ENDBRANCH   6  11
ENDBRANCH   1   6
BRANCH   3  14
ATOM     14  N   UNL d   1     -45.383  12.849  22.249  0.00  0.00    -0.219 NA
BRANCH  14  15
ATOM     15  C   UNL d   1     -45.038  13.119  21.546  0.00  0.00     0.101 C 
BRANCH  15  16
ATOM     16  C   UNL d   1     -44.214  13.119  21.470  0.00  0.00     0.019 A 
ATOM     17  C   UNL d   1     -43.771  13.814  21.634  0.00  0.00     0.002 A 
ATOM     18  C   UNL d   1     -42.957  13.803  21.555  0.00  0.00     0.000 A 
ATOM     19  C   UNL d   1     -42.552  13.112  21.313  0.00  0.00     0.000 A 
ATOM     20  C   UNL d   1     -43.003  12.408  21.147  0.00  0.00     0.000 A 
ATOM     21  C   UNL d   1     -43.828  12.437  21.232  0.00  0.00     0.002 A 
ENDBRANCH  15  16
ENDBRANCH  14  15
ENDBRANCH   3  14
BRANCH   4  22
ATOM     22  C   UNL d   1     -48.002  14.166  22.596  0.00  0.00     0.042 A 
ATOM     23  C   UNL d   1     -48.214  14.634  23.234  0.00  0.00     0.006 A 
ATOM     24  C   UNL d   1     -48.864  15.129  23.185  0.00  0.00     0.030 A 
ATOM     25  C   UNL d   1     -49.322  15.171  22.496  0.00  0.00     0.140 A 
ATOM     26  C   UNL d   1     -49.108  14.689  21.831  0.00  0.00     0.030 A 
ATOM     27  F   UNL d   1     -49.978  15.657  22.418  0.00  0.00    -0.204 F 
ATOM     28  C   UNL d   1     -48.453  14.194  21.890  0.00  0.00     0.006 A 
ENDBRANCH   4  22
TORSDOF 9
ENDMDL
