MODEL 1
REMARK VINA RESULT:      58.1      0.000      0.000
REMARK  6 active torsions:
REMARK  status: ('A' for Active; 'I' for Inactive)
REMARK    1  A    between atoms: C_3  and  C_2 
REMARK    2  A    between atoms: O_5  and  C_3 
REMARK    3  A    between atoms: C_9  and  O_5 
REMARK    4  A    between atoms: C_6  and  C_9 
REMARK    5  A    between atoms: C_7  and  C_6 
REMARK    6  A    between atoms: O_19  and  C_16 
ROOT
ATOM      1  C   UNL d   1     -55.396-100.195 -45.165  0.00  0.00     0.318 C 
ATOM      2  O   UNL d   1     -55.044-100.109 -45.907  0.00  0.00    -0.257 OA
ENDROOT
BRANCH   1   3
ATOM      3  C   UNL d   1     -56.121 -99.835 -45.003  0.00  0.00     0.145 A 
ATOM      4  N   UNL d   1     -56.417 -99.832 -44.221  0.00  0.00    -0.240 NA
ATOM      5  C   UNL d   1     -57.140 -99.475 -44.055  0.00  0.00     0.082 A 
ATOM      6  C   UNL d   1     -57.580 -99.113 -44.670  0.00  0.00     0.018 A 
ATOM      7  C   UNL d   1     -57.432 -99.471 -43.288  0.00  0.00     0.019 A 
ATOM      8  C   UNL d   1     -57.286 -99.115 -45.450  0.00  0.00     0.003 A 
ATOM      9  C   UNL d   1     -58.302 -98.756 -44.505  0.00  0.00     0.002 A 
ATOM     10  C   UNL d   1     -56.558 -99.476 -45.615  0.00  0.00     0.025 A 
ATOM     11  C   UNL d   1     -58.588 -98.758 -43.727  0.00  0.00     0.000 A 
ATOM     12  C   UNL d   1     -58.155 -99.113 -43.123  0.00  0.00     0.002 A 
ENDBRANCH   1   3
BRANCH   1  13
ATOM     13  O   UNL d   1     -55.017-100.645 -44.579  0.00  0.00    -0.266 OA
BRANCH  13  14
ATOM     14  C   UNL d   1     -55.440-101.208 -44.151  0.00  0.00     0.168 C 
BRANCH  14  15
ATOM     15  C   UNL d   1     -55.052-101.839 -43.793  0.00  0.00     0.220 C 
ATOM     16  O   UNL d   1     -54.720-102.429 -44.264  0.00  0.00    -0.284 OA
BRANCH  15  17
ATOM     17  C   UNL d   1     -54.996-101.880 -42.970  0.00  0.00     0.041 A 
ATOM     18  C   UNL d   1     -55.168-102.590 -42.588  0.00  0.00     0.005 A 
ATOM     19  C   UNL d   1     -55.111-102.627 -41.767  0.00  0.00     0.024 A 
ATOM     20  C   UNL d   1     -54.884-101.957 -41.334  0.00  0.00     0.094 A 
ATOM     21  C   UNL d   1     -54.715-101.252 -41.728  0.00  0.00     0.024 A 
ATOM     22  C   UNL d   1     -54.772-101.214 -42.548  0.00  0.00     0.005 A 
BRANCH  20  23
ATOM     23  O   UNL d   1     -54.829-101.997 -40.520  0.00  0.00    -0.328 OA
ATOM     24  C   UNL d   1     -54.765-102.735 -40.146  0.00  0.00     0.181 C 
ENDBRANCH  20  23
ENDBRANCH  15  17
ENDBRANCH  14  15
ENDBRANCH  13  14
ENDBRANCH   1  13
TORSDOF 6
ENDMDL
