MODEL 1
REMARK VINA RESULT:       0.0      0.000      0.000
REMARK  5 active torsions:
REMARK  status: ('A' for Active; 'I' for Inactive)
REMARK    1  A    between atoms: C_7  and  C_1 
REMARK    2  A    between atoms: C_10  and  C_6 
REMARK    3  A    between atoms: O_18  and  C_7 
REMARK    4  A    between atoms: N_8  and  C_10 
REMARK    5  A    between atoms: C_23  and  O_18 
ROOT
ATOM      1  C   UNL d   1      29.296  16.520 -23.688  0.00  0.00     0.081 A 
ATOM      2  C   UNL d   1      28.805  16.269 -23.075  0.00  0.00     0.069 A 
ATOM      3  C   UNL d   1      30.067  16.239 -23.525  0.00  0.00     0.027 A 
ATOM      4  N   UNL d   1      29.254  15.839 -22.537  0.00  0.00    -0.304 N 
ATOM      5  C   UNL d   1      30.040  15.819 -22.815  0.00  0.00     0.065 A 
ATOM      6  C   UNL d   1      30.769  16.317 -23.933  0.00  0.00     0.058 A 
ATOM      7  C   UNL d   1      30.716  15.474 -22.510  0.00  0.00     0.021 A 
ATOM      8  C   UNL d   1      31.454  15.973 -23.631  0.00  0.00     0.197 A 
ATOM      9  C   UNL d   1      31.428  15.550 -22.918  0.00  0.00     0.044 A 
ATOM     10  C   UNL d   1      27.989  16.429 -23.019  0.00  0.00     0.019 C 
ATOM     11  C   UNL d   1      28.979  15.486 -21.841  0.00  0.00     0.099 C 
ATOM     12  O   UNL d   1      32.173  16.048 -24.040  0.00  0.00    -0.286 OA
ENDROOT
BRANCH   6  13
ATOM     13  C   UNL d   1      30.791  16.738 -24.642  0.00  0.00     0.083 C 
BRANCH  13  14
ATOM     14  N   UNL d   1      31.372  17.316 -24.756  0.00  0.00    -0.302 N 
ATOM     15  C   UNL d   1      32.149  17.093 -24.899  0.00  0.00     0.080 A 
ATOM     16  C   UNL d   1      32.731  17.674 -25.013  0.00  0.00     0.019 A 
ATOM     17  C   UNL d   1      32.530  18.471 -24.983  0.00  0.00     0.003 A 
ATOM     18  C   UNL d   1      31.749  18.696 -24.839  0.00  0.00     0.019 A 
ATOM     19  C   UNL d   1      33.110  19.045 -25.097  0.00  0.00     0.000 C 
ATOM     20  C   UNL d   1      31.167  18.114 -24.725  0.00  0.00     0.080 A 
ENDBRANCH  13  14
ENDBRANCH   6  13
BRANCH   1  21
ATOM     21  C   UNL d   1      29.076  16.968 -24.346  0.00  0.00     0.302 C 
ATOM     22  O   UNL d   1      29.043  16.616 -25.096  0.00  0.00    -0.259 OA
BRANCH  21  23
ATOM     23  O   UNL d   1      28.892  17.763 -24.248  0.00  0.00    -0.271 OA
BRANCH  23  24
ATOM     24  C   UNL d   1      28.474  18.165 -24.840  0.00  0.00     0.126 C 
ATOM     25  C   UNL d   1      28.210  18.933 -24.710  0.00  0.00     0.029 C 
ENDBRANCH  23  24
ENDBRANCH  21  23
ENDBRANCH   1  21
TORSDOF 5
ENDMDL
MODEL 2
REMARK VINA RESULT:       0.9      1.417      3.574
REMARK  5 active torsions:
REMARK  status: ('A' for Active; 'I' for Inactive)
REMARK    1  A    between atoms: C_7  and  C_1 
REMARK    2  A    between atoms: C_10  and  C_6 
REMARK    3  A    between atoms: O_18  and  C_7 
REMARK    4  A    between atoms: N_8  and  C_10 
REMARK    5  A    between atoms: C_23  and  O_18 
ROOT
ATOM      1  C   UNL d   1      31.787  17.402 -24.407  0.00  0.00     0.081 A 
ATOM      2  C   UNL d   1      32.518  17.021 -24.386  0.00  0.00     0.069 A 
ATOM      3  C   UNL d   1      31.215  16.837 -24.636  0.00  0.00     0.027 A 
ATOM      4  N   UNL d   1      32.412  16.234 -24.597  0.00  0.00    -0.304 N 
ATOM      5  C   UNL d   1      31.600  16.117 -24.754  0.00  0.00     0.065 A 
ATOM      6  C   UNL d   1      30.409  16.897 -24.747  0.00  0.00     0.058 A 
ATOM      7  C   UNL d   1      31.181  15.453 -24.983  0.00  0.00     0.021 A 
ATOM      8  C   UNL d   1      29.980  16.232 -24.979  0.00  0.00     0.197 A 
ATOM      9  C   UNL d   1      30.367  15.508 -25.097  0.00  0.00     0.044 A 
ATOM     10  C   UNL d   1      33.241  17.384 -24.184  0.00  0.00     0.019 C 
ATOM     11  C   UNL d   1      33.001  15.656 -24.648  0.00  0.00     0.099 C 
ATOM     12  O   UNL d   1      29.159  16.285 -25.094  0.00  0.00    -0.286 OA
ENDROOT
BRANCH   6  13
ATOM     13  C   UNL d   1      30.027  17.618 -24.629  0.00  0.00     0.083 C 
BRANCH  13  14
ATOM     14  N   UNL d   1      29.332  17.644 -24.182  0.00  0.00    -0.302 N 
ATOM     15  C   UNL d   1      29.159  17.036 -23.658  0.00  0.00     0.080 A 
ATOM     16  C   UNL d   1      28.461  17.063 -23.209  0.00  0.00     0.019 A 
ATOM     17  C   UNL d   1      27.943  17.698 -23.290  0.00  0.00     0.003 A 
ATOM     18  C   UNL d   1      28.116  18.309 -23.816  0.00  0.00     0.019 A 
ATOM     19  C   UNL d   1      27.251  17.721 -22.843  0.00  0.00     0.000 C 
ATOM     20  C   UNL d   1      28.815  18.281 -24.264  0.00  0.00     0.080 A 
ENDBRANCH  13  14
ENDBRANCH   6  13
BRANCH   1  21
ATOM     21  C   UNL d   1      31.637  18.196 -24.234  0.00  0.00     0.302 C 
ATOM     22  O   UNL d   1      31.480  18.731 -24.847  0.00  0.00    -0.259 OA
BRANCH  21  23
ATOM     23  O   UNL d   1      31.646  18.446 -23.451  0.00  0.00    -0.271 OA
BRANCH  23  24
ATOM     24  C   UNL d   1      32.105  19.100 -23.232  0.00  0.00     0.126 C 
ATOM     25  C   UNL d   1      32.387  19.167 -22.464  0.00  0.00     0.029 C 
ENDBRANCH  23  24
ENDBRANCH  21  23
ENDBRANCH   1  21
TORSDOF 5
ENDMDL
