MODEL 1
REMARK VINA RESULT:      12.1      0.000      0.000
REMARK  3 active torsions:
REMARK  status: ('A' for Active; 'I' for Inactive)
REMARK    1  A    between atoms: C_8  and  C_2 
REMARK    2  A    between atoms: C_9  and  C_3 
REMARK    3  A    between atoms: N_6  and  C_8 
ROOT
ATOM      1  N   UNL d   1      45.123 -15.722  43.644  0.00  0.00    -0.121 NA
ATOM      2  C   UNL d   1      45.902 -16.660  44.187  0.00  0.00     0.222 A 
ATOM      3  C   UNL d   1      45.592 -15.357  44.214  0.00  0.00     0.204 A 
ATOM      4  O   UNL d   1      46.075 -15.944  44.549  0.00  0.00    -0.267 OA
ATOM      5  N   UNL d   1      45.310 -16.526  43.623  0.00  0.00    -0.119 NA
ENDROOT
BRANCH   2   6
ATOM      6  C   UNL d   1      46.253 -17.393  44.350  0.00  0.00     0.127 C 
BRANCH   6   7
ATOM      7  N   UNL d   1      46.328 -17.958  43.755  0.00  0.00    -0.301 N 
ATOM      8  C   UNL d   1      46.431 -18.745  43.961  0.00  0.00     0.064 A 
ATOM      9  C   UNL d   1      46.507 -19.320  43.374  0.00  0.00     0.016 A 
ATOM     10  C   UNL d   1      46.461 -18.973  44.747  0.00  0.00     0.018 A 
ATOM     11  C   UNL d   1      46.610 -20.106  43.571  0.00  0.00     0.001 A 
ATOM     12  C   UNL d   1      46.477 -19.092  42.579  0.00  0.00     0.003 A 
ATOM     13  C   UNL d   1      46.639 -20.330  44.357  0.00  0.00     0.000 A 
ATOM     14  C   UNL d   1      46.564 -19.759  44.952  0.00  0.00     0.002 A 
ATOM     15  C   UNL d   1      46.374 -18.302  42.375  0.00  0.00     0.019 A 
ATOM     16  C   UNL d   1      46.298 -17.727  42.969  0.00  0.00     0.080 A 
ENDBRANCH   6   7
ENDBRANCH   2   6
BRANCH   3  17
ATOM     17  C   UNL d   1      45.584 -14.555  44.415  0.00  0.00     0.043 A 
ATOM     18  C   UNL d   1      46.257 -14.215  44.751  0.00  0.00     0.004 A 
ATOM     19  C   UNL d   1      46.253 -13.415  44.953  0.00  0.00     0.000 A 
ATOM     20  C   UNL d   1      45.575 -12.960  44.817  0.00  0.00     0.000 A 
ATOM     21  C   UNL d   1      44.904 -13.307  44.480  0.00  0.00     0.000 A 
ATOM     22  C   UNL d   1      44.913 -14.107  44.279  0.00  0.00     0.004 A 
ENDBRANCH   3  17
TORSDOF 3
ENDMDL
MODEL 2
REMARK VINA RESULT:      13.2      0.830      4.874
REMARK  3 active torsions:
REMARK  status: ('A' for Active; 'I' for Inactive)
REMARK    1  A    between atoms: C_8  and  C_2 
REMARK    2  A    between atoms: C_9  and  C_3 
REMARK    3  A    between atoms: N_6  and  C_8 
ROOT
ATOM      1  N   UNL d   1      46.086 -17.954  44.689  0.00  0.00    -0.121 NA
ATOM      2  C   UNL d   1      46.247 -16.686  44.307  0.00  0.00     0.222 A 
ATOM      3  C   UNL d   1      46.265 -17.957  43.885  0.00  0.00     0.204 A 
ATOM      4  O   UNL d   1      46.365 -17.166  43.651  0.00  0.00    -0.267 OA
ATOM      5  N   UNL d   1      46.074 -17.172  44.954  0.00  0.00    -0.119 NA
ENDROOT
BRANCH   2   6
ATOM      6  C   UNL d   1      46.293 -15.858  44.326  0.00  0.00     0.127 C 
BRANCH   6   7
ATOM      7  N   UNL d   1      45.631 -15.411  44.530  0.00  0.00    -0.301 N 
ATOM      8  C   UNL d   1      45.678 -14.594  44.511  0.00  0.00     0.064 A 
ATOM      9  C   UNL d   1      45.022 -14.135  44.714  0.00  0.00     0.016 A 
ATOM     10  C   UNL d   1      46.372 -14.218  44.291  0.00  0.00     0.018 A 
ATOM     11  C   UNL d   1      45.061 -13.320  44.697  0.00  0.00     0.001 A 
ATOM     12  C   UNL d   1      44.320 -14.513  44.936  0.00  0.00     0.003 A 
ATOM     13  C   UNL d   1      45.756 -12.949  44.476  0.00  0.00     0.000 A 
ATOM     14  C   UNL d   1      46.419 -13.401  44.271  0.00  0.00     0.002 A 
ATOM     15  C   UNL d   1      44.275 -15.334  44.955  0.00  0.00     0.019 A 
ATOM     16  C   UNL d   1      44.938 -15.790  44.750  0.00  0.00     0.080 A 
ENDBRANCH   6   7
ENDBRANCH   2   6
BRANCH   3  17
ATOM     17  C   UNL d   1      46.333 -18.624  43.401  0.00  0.00     0.043 A 
ATOM     18  C   UNL d   1      46.302 -19.376  43.742  0.00  0.00     0.004 A 
ATOM     19  C   UNL d   1      46.369 -20.044  43.262  0.00  0.00     0.000 A 
ATOM     20  C   UNL d   1      46.468 -19.956  42.445  0.00  0.00     0.000 A 
ATOM     21  C   UNL d   1      46.498 -19.199  42.111  0.00  0.00     0.000 A 
ATOM     22  C   UNL d   1      46.430 -18.535  42.594  0.00  0.00     0.004 A 
ENDBRANCH   3  17
TORSDOF 3
ENDMDL
