MODEL 1
REMARK VINA RESULT:      95.1      0.000      0.000
REMARK  4 active torsions:
REMARK  status: ('A' for Active; 'I' for Inactive)
REMARK    1  A    between atoms: C_14  and  N_1 
REMARK    2  A    between atoms: S_12  and  C_2 
REMARK       I    between atoms: N_7  and  C_10 
REMARK    3  A    between atoms: C_10  and  C_16 
REMARK    4  A    between atoms: C_16  and  S_12 
ROOT
ATOM      1  N   UNL d   1      60.962  48.129  51.182  0.00  0.00    -0.254 N 
ATOM      2  C   UNL d   1      60.611  48.854  50.999  0.00  0.00     0.183 A 
ATOM      3  N   UNL d   1      60.497  49.414  51.592  0.00  0.00    -0.201 NA
ATOM      4  C   UNL d   1      61.199  47.964  51.962  0.00  0.00     0.271 A 
ATOM      5  C   UNL d   1      61.081  48.531  52.553  0.00  0.00     0.115 A 
ATOM      6  C   UNL d   1      60.729  49.258  52.365  0.00  0.00     0.192 A 
ATOM      7  N   UNL d   1      61.005  49.260  53.668  0.00  0.00    -0.145 NA
ATOM      8  N   UNL d   1      60.684  49.707  53.062  0.00  0.00    -0.128 NA
ATOM      9  C   UNL d   1      61.253  48.536  53.368  0.00  0.00     0.130 A 
ATOM     10  O   UNL d   1      61.552  47.230  52.145  0.00  0.00    -0.266 OA
ENDROOT
BRANCH   2  11
ATOM     11  S   UNL d   1      60.380  49.011  50.231  0.00  0.00    -0.044 SA
BRANCH  11  12
ATOM     12  C   UNL d   1      59.951  49.707  50.056  0.00  0.00     0.099 C 
BRANCH  12  13
ATOM     13  C   UNL d   1      59.188  49.656  49.750  0.00  0.00     0.271 C 
ATOM     14  N   UNL d   1      58.538  49.651  50.255  0.00  0.00    -0.273 N 
ATOM     15  C   UNL d   1      57.779  49.600  49.953  0.00  0.00     0.067 A 
ATOM     16  C   UNL d   1      58.659  49.698  51.070  0.00  0.00     0.083 A 
ATOM     17  C   UNL d   1      57.129  49.596  50.462  0.00  0.00     0.016 A 
ATOM     18  C   UNL d   1      57.661  49.554  49.137  0.00  0.00     0.018 A 
ATOM     19  C   UNL d   1      56.368  49.544  50.151  0.00  0.00     0.001 A 
ATOM     20  C   UNL d   1      57.237  49.641  51.270  0.00  0.00     0.003 A 
ATOM     21  C   UNL d   1      56.247  49.498  49.337  0.00  0.00     0.000 A 
ATOM     22  C   UNL d   1      56.897  49.502  48.831  0.00  0.00     0.002 A 
ATOM     23  C   UNL d   1      58.010  49.693  51.583  0.00  0.00     0.019 A 
ATOM     24  O   UNL d   1      59.078  49.610  48.934  0.00  0.00    -0.266 OA
ENDBRANCH  12  13
ENDBRANCH  11  12
ENDBRANCH   2  11
BRANCH   1  25
ATOM     25  C   UNL d   1      61.080  47.559  50.588  0.00  0.00     0.069 A 
ATOM     26  C   UNL d   1      60.454  47.072  50.361  0.00  0.00     0.018 A 
ATOM     27  C   UNL d   1      60.570  46.504  49.770  0.00  0.00     0.002 A 
ATOM     28  C   UNL d   1      61.311  46.428  49.410  0.00  0.00     0.000 A 
ATOM     29  C   UNL d   1      61.932  46.920  49.643  0.00  0.00     0.002 A 
ATOM     30  C   UNL d   1      61.813  47.485  50.233  0.00  0.00     0.018 A 
ENDBRANCH   1  25
TORSDOF 4
ENDMDL
