MODEL 1
REMARK VINA RESULT:      -5.6      0.000      0.000
REMARK  3 active torsions:
REMARK  status: ('A' for Active; 'I' for Inactive)
REMARK    1  A    between atoms: C_8  and  N_1 
REMARK    2  A    between atoms: N_10  and  C_5 
REMARK    3  A    between atoms: C_15  and  N_10 
ROOT
ATOM      1  N   UNL d   1     -41.760-122.417 -51.042  0.00  0.00    -0.212 N 
ATOM      2  C   UNL d   1     -41.635-122.799 -51.763  0.00  0.00     0.170 A 
ATOM      3  C   UNL d   1     -41.618-122.225 -52.355  0.00  0.00     0.093 A 
ATOM      4  N   UNL d   1     -41.821-121.603 -51.191  0.00  0.00    -0.162 NA
ATOM      5  C   UNL d   1     -41.500-122.447 -53.147  0.00  0.00     0.169 A 
ATOM      6  C   UNL d   1     -41.732-121.491 -52.006  0.00  0.00     0.127 A 
ATOM      7  N   UNL d   1     -41.534-123.601 -51.951  0.00  0.00    -0.205 NA
ATOM      8  N   UNL d   1     -41.399-123.249 -53.334  0.00  0.00    -0.205 NA
ATOM      9  C   UNL d   1     -41.417-123.817 -52.737  0.00  0.00     0.202 A 
ENDROOT
BRANCH   1  10
ATOM     10  C   UNL d   1     -41.815-122.779 -50.302  0.00  0.00     0.085 A 
ATOM     11  C   UNL d   1     -42.546-123.006 -50.008  0.00  0.00     0.019 A 
ATOM     12  C   UNL d   1     -42.599-123.370 -49.263  0.00  0.00     0.002 A 
ATOM     13  C   UNL d   1     -43.328-123.599 -48.962  0.00  0.00     0.000 C 
ATOM     14  C   UNL d   1     -41.925-123.504 -48.822  0.00  0.00     0.000 A 
ATOM     15  C   UNL d   1     -41.182-123.275 -49.121  0.00  0.00     0.002 A 
ATOM     16  C   UNL d   1     -41.123-122.917 -49.851  0.00  0.00     0.019 A 
ENDBRANCH   1  10
BRANCH   5  17
ATOM     17  N   UNL d   1     -41.482-121.885 -53.738  0.00  0.00    -0.227 NA
BRANCH  17  18
ATOM     18  C   UNL d   1     -41.692-122.085 -54.501  0.00  0.00     0.083 C 
ATOM     19  C   UNL d   1     -42.471-121.987 -54.759  0.00  0.00     0.021 C 
ATOM     20  C   UNL d   1     -41.125-122.389 -55.024  0.00  0.00     0.021 C 
ENDBRANCH  17  18
ENDBRANCH   5  17
TORSDOF 3
ENDMDL
MODEL 2
REMARK VINA RESULT:      -3.8      0.786      1.575
REMARK  3 active torsions:
REMARK  status: ('A' for Active; 'I' for Inactive)
REMARK    1  A    between atoms: C_8  and  N_1 
REMARK    2  A    between atoms: N_10  and  C_5 
REMARK    3  A    between atoms: C_15  and  N_10 
ROOT
ATOM      1  N   UNL d   1     -41.963-123.114 -50.559  0.00  0.00    -0.212 N 
ATOM      2  C   UNL d   1     -41.721-122.516 -51.074  0.00  0.00     0.170 A 
ATOM      3  C   UNL d   1     -41.636-122.846 -51.825  0.00  0.00     0.093 A 
ATOM      4  N   UNL d   1     -42.026-123.817 -50.996  0.00  0.00    -0.162 NA
ATOM      5  C   UNL d   1     -41.397-122.372 -52.464  0.00  0.00     0.169 A 
ATOM      6  C   UNL d   1     -41.823-123.644 -51.779  0.00  0.00     0.127 A 
ATOM      7  N   UNL d   1     -41.569-121.710 -50.949  0.00  0.00    -0.205 NA
ATOM      8  N   UNL d   1     -41.245-121.567 -52.338  0.00  0.00    -0.205 NA
ATOM      9  C   UNL d   1     -41.332-121.243 -51.584  0.00  0.00     0.202 A 
ENDROOT
BRANCH   1  10
ATOM     10  C   UNL d   1     -42.114-123.030 -49.752  0.00  0.00     0.085 A 
ATOM     11  C   UNL d   1     -41.540-123.227 -49.202  0.00  0.00     0.019 A 
ATOM     12  C   UNL d   1     -41.694-123.141 -48.390  0.00  0.00     0.002 A 
ATOM     13  C   UNL d   1     -41.123-123.337 -47.834  0.00  0.00     0.000 C 
ATOM     14  C   UNL d   1     -42.419-122.861 -48.138  0.00  0.00     0.000 A 
ATOM     15  C   UNL d   1     -43.003-122.661 -48.696  0.00  0.00     0.002 A 
ATOM     16  C   UNL d   1     -42.858-122.743 -49.493  0.00  0.00     0.019 A 
ENDBRANCH   1  10
BRANCH   5  17
ATOM     17  N   UNL d   1     -41.310-122.692 -53.209  0.00  0.00    -0.227 NA
BRANCH  17  18
ATOM     18  C   UNL d   1     -41.614-122.304 -53.860  0.00  0.00     0.083 C 
ATOM     19  C   UNL d   1     -42.413-122.381 -54.057  0.00  0.00     0.021 C 
ATOM     20  C   UNL d   1     -41.123-121.828 -54.330  0.00  0.00     0.021 C 
ENDBRANCH  17  18
ENDBRANCH   5  17
TORSDOF 3
ENDMDL
MODEL 3
REMARK VINA RESULT:      -3.3      1.067      4.242
REMARK  3 active torsions:
REMARK  status: ('A' for Active; 'I' for Inactive)
REMARK    1  A    between atoms: C_8  and  N_1 
REMARK    2  A    between atoms: N_10  and  C_5 
REMARK    3  A    between atoms: C_15  and  N_10 
ROOT
ATOM      1  N   UNL d   1     -41.539-123.049 -51.543  0.00  0.00    -0.212 N 
ATOM      2  C   UNL d   1     -42.026-122.764 -50.940  0.00  0.00     0.170 A 
ATOM      3  C   UNL d   1     -41.912-123.241 -50.276  0.00  0.00     0.093 A 
ATOM      4  N   UNL d   1     -41.123-123.704 -51.249  0.00  0.00    -0.162 NA
ATOM      5  C   UNL d   1     -42.332-123.086 -49.577  0.00  0.00     0.169 A 
ATOM      6  C   UNL d   1     -41.359-123.817 -50.464  0.00  0.00     0.127 A 
ATOM      7  N   UNL d   1     -42.558-122.129 -50.917  0.00  0.00    -0.205 NA
ATOM      8  N   UNL d   1     -42.865-122.451 -49.554  0.00  0.00    -0.205 NA
ATOM      9  C   UNL d   1     -42.973-121.979 -50.222  0.00  0.00     0.202 A 
ENDROOT
BRANCH   1  10
ATOM     10  C   UNL d   1     -41.476-122.738 -52.305  0.00  0.00     0.085 A 
ATOM     11  C   UNL d   1     -41.665-123.199 -52.956  0.00  0.00     0.019 A 
ATOM     12  C   UNL d   1     -41.600-122.884 -53.722  0.00  0.00     0.002 A 
ATOM     13  C   UNL d   1     -41.788-123.341 -54.378  0.00  0.00     0.000 C 
ATOM     14  C   UNL d   1     -41.349-122.115 -53.830  0.00  0.00     0.000 A 
ATOM     15  C   UNL d   1     -41.157-121.645 -53.169  0.00  0.00     0.002 A 
ATOM     16  C   UNL d   1     -41.218-121.948 -52.416  0.00  0.00     0.019 A 
ENDBRANCH   1  10
BRANCH   5  17
ATOM     17  N   UNL d   1     -42.225-123.553 -48.916  0.00  0.00    -0.227 NA
BRANCH  17  18
ATOM     18  C   UNL d   1     -42.691-123.441 -48.255  0.00  0.00     0.083 C 
ATOM     19  C   UNL d   1     -43.427-123.811 -48.195  0.00  0.00     0.021 C 
ATOM     20  C   UNL d   1     -42.429-122.955 -47.637  0.00  0.00     0.021 C 
ENDBRANCH  17  18
ENDBRANCH   5  17
TORSDOF 3
ENDMDL
