MODEL 1
REMARK VINA RESULT:      -7.4      0.000      0.000
REMARK  8 active torsions:
REMARK  status: ('A' for Active; 'I' for Inactive)
REMARK    1  A    between atoms: C_2  and  N_1 
REMARK    2  A    between atoms: O_17  and  C_3 
REMARK    3  A    between atoms: O_18  and  C_4 
REMARK    4  A    between atoms: O_19  and  C_5 
REMARK    5  A    between atoms: O_21  and  C_6 
REMARK    6  A    between atoms: C_9  and  C_11 
REMARK    7  A    between atoms: C_12  and  C_9 
REMARK    8  A    between atoms: C_11  and  C_15 
ROOT
ATOM      1  C   UNL d   1      51.260  34.265  52.694  0.00  0.00     0.000 C 
ENDROOT
BRANCH   1   2
ATOM      2  C   UNL d   1      50.534  34.195  53.078  0.00  0.00     0.000 C 
BRANCH   2   3
ATOM      3  C   UNL d   1      49.856  34.546  52.752  0.00  0.00     0.002 A 
ATOM      4  C   UNL d   1      49.400  35.042  53.208  0.00  0.00     0.026 A 
ATOM      5  C   UNL d   1      48.727  35.393  52.888  0.00  0.00     0.149 A 
ATOM      6  C   UNL d   1      48.513  35.242  52.104  0.00  0.00     0.116 A 
ATOM      7  C   UNL d   1      48.979  34.738  51.645  0.00  0.00     0.026 A 
ATOM      8  C   UNL d   1      49.652  34.387  51.963  0.00  0.00     0.002 A 
BRANCH   5   9
ATOM      9  N   UNL d   1      48.264  35.895  53.350  0.00  0.00    -0.112 N 
ATOM     10  O   UNL d   1      48.426  36.707  53.367  0.00  0.00    -0.532 OA
ATOM     11  O   UNL d   1      47.637  35.595  53.800  0.00  0.00    -0.532 OA
ENDBRANCH   5   9
BRANCH   6  12
ATOM     12  O   UNL d   1      47.838  35.591  51.776  0.00  0.00    -0.326 OA
ATOM     13  C   UNL d   1      47.564  35.344  51.035  0.00  0.00     0.181 C 
ENDBRANCH   6  12
ENDBRANCH   2   3
ENDBRANCH   1   2
BRANCH   1  14
ATOM     14  C   UNL d   1      51.953  34.032  53.082  0.00  0.00     0.004 A 
ATOM     15  C   UNL d   1      52.372  34.576  53.539  0.00  0.00     0.026 A 
ATOM     16  C   UNL d   1      53.067  34.339  53.927  0.00  0.00     0.118 A 
ATOM     17  C   UNL d   1      53.337  33.566  53.857  0.00  0.00     0.138 A 
ATOM     18  C   UNL d   1      52.918  33.021  53.400  0.00  0.00     0.118 A 
ATOM     19  C   UNL d   1      52.229  33.251  53.013  0.00  0.00     0.026 A 
BRANCH  16  20
ATOM     20  O   UNL d   1      53.486  34.884  54.384  0.00  0.00    -0.326 OA
ATOM     21  C   UNL d   1      53.240  35.669  54.420  0.00  0.00     0.181 C 
ENDBRANCH  16  20
BRANCH  17  22
ATOM     22  O   UNL d   1      54.026  33.335  54.243  0.00  0.00    -0.324 OA
ATOM     23  C   UNL d   1      53.986  33.019  55.002  0.00  0.00     0.182 C 
ENDBRANCH  17  22
BRANCH  18  24
ATOM     24  O   UNL d   1      53.188  32.246  53.330  0.00  0.00    -0.326 OA
ATOM     25  C   UNL d   1      52.809  31.726  52.817  0.00  0.00     0.181 C 
ENDBRANCH  18  24
ENDBRANCH   1  14
TORSDOF 8
ENDMDL
MODEL 2
REMARK VINA RESULT:      -7.4      0.093      1.617
REMARK  8 active torsions:
REMARK  status: ('A' for Active; 'I' for Inactive)
REMARK    1  A    between atoms: C_2  and  N_1 
REMARK    2  A    between atoms: O_17  and  C_3 
REMARK    3  A    between atoms: O_18  and  C_4 
REMARK    4  A    between atoms: O_19  and  C_5 
REMARK    5  A    between atoms: O_21  and  C_6 
REMARK    6  A    between atoms: C_9  and  C_11 
REMARK    7  A    between atoms: C_12  and  C_9 
REMARK    8  A    between atoms: C_11  and  C_15 
ROOT
ATOM      1  C   UNL d   1      51.313  34.199  52.723  0.00  0.00     0.000 C 
ENDROOT
BRANCH   1   2
ATOM      2  C   UNL d   1      50.587  34.160  53.111  0.00  0.00     0.000 C 
BRANCH   2   3
ATOM      3  C   UNL d   1      49.917  34.520  52.777  0.00  0.00     0.002 A 
ATOM      4  C   UNL d   1      49.462  35.021  53.227  0.00  0.00     0.026 A 
ATOM      5  C   UNL d   1      48.797  35.380  52.900  0.00  0.00     0.149 A 
ATOM      6  C   UNL d   1      48.591  35.232  52.113  0.00  0.00     0.116 A 
ATOM      7  C   UNL d   1      49.056  34.722  51.660  0.00  0.00     0.026 A 
ATOM      8  C   UNL d   1      49.721  34.363  51.986  0.00  0.00     0.002 A 
BRANCH   5   9
ATOM      9  N   UNL d   1      48.336  35.889  53.357  0.00  0.00    -0.112 N 
ATOM     10  O   UNL d   1      47.748  35.582  53.851  0.00  0.00    -0.532 OA
ATOM     11  O   UNL d   1      48.455  36.708  53.325  0.00  0.00    -0.532 OA
ENDBRANCH   5   9
BRANCH   6  12
ATOM     12  O   UNL d   1      47.924  35.589  51.778  0.00  0.00    -0.326 OA
ATOM     13  C   UNL d   1      47.623  35.309  51.059  0.00  0.00     0.181 C 
ENDBRANCH   6  12
ENDBRANCH   2   3
ENDBRANCH   1   2
BRANCH   1  14
ATOM     14  C   UNL d   1      52.001  33.957  53.114  0.00  0.00     0.004 A 
ATOM     15  C   UNL d   1      52.271  33.182  53.031  0.00  0.00     0.026 A 
ATOM     16  C   UNL d   1      52.961  32.942  53.425  0.00  0.00     0.118 A 
ATOM     17  C   UNL d   1      53.375  33.474  53.898  0.00  0.00     0.138 A 
ATOM     18  C   UNL d   1      53.104  34.249  53.981  0.00  0.00     0.118 A 
ATOM     19  C   UNL d   1      52.421  34.492  53.592  0.00  0.00     0.026 A 
BRANCH  16  20
ATOM     20  O   UNL d   1      53.232  32.167  53.342  0.00  0.00    -0.326 OA
ATOM     21  C   UNL d   1      52.834  31.642  52.848  0.00  0.00     0.181 C 
ENDBRANCH  16  20
BRANCH  17  22
ATOM     22  O   UNL d   1      54.059  33.232  54.287  0.00  0.00    -0.324 OA
ATOM     23  C   UNL d   1      54.010  32.924  55.048  0.00  0.00     0.182 C 
ENDBRANCH  17  22
BRANCH  18  24
ATOM     24  O   UNL d   1      53.518  34.782  54.454  0.00  0.00    -0.326 OA
ATOM     25  C   UNL d   1      53.278  35.568  54.490  0.00  0.00     0.181 C 
ENDBRANCH  18  24
ENDBRANCH   1  14
TORSDOF 8
ENDMDL
MODEL 3
REMARK VINA RESULT:      -6.5      1.384      5.322
REMARK  8 active torsions:
REMARK  status: ('A' for Active; 'I' for Inactive)
REMARK    1  A    between atoms: C_2  and  N_1 
REMARK    2  A    between atoms: O_17  and  C_3 
REMARK    3  A    between atoms: O_18  and  C_4 
REMARK    4  A    between atoms: O_19  and  C_5 
REMARK    5  A    between atoms: O_21  and  C_6 
REMARK    6  A    between atoms: C_9  and  C_11 
REMARK    7  A    between atoms: C_12  and  C_9 
REMARK    8  A    between atoms: C_11  and  C_15 
ROOT
ATOM      1  C   UNL d   1      50.091  34.466  53.160  0.00  0.00     0.000 C 
ENDROOT
BRANCH   1   2
ATOM      2  C   UNL d   1      50.805  34.534  52.753  0.00  0.00     0.000 C 
BRANCH   2   3
ATOM      3  C   UNL d   1      51.487  34.161  53.046  0.00  0.00     0.002 A 
ATOM      4  C   UNL d   1      51.624  33.379  52.875  0.00  0.00     0.026 A 
ATOM      5  C   UNL d   1      52.300  33.006  53.163  0.00  0.00     0.149 A 
ATOM      6  C   UNL d   1      52.839  33.427  53.628  0.00  0.00     0.116 A 
ATOM      7  C   UNL d   1      52.695  34.221  53.799  0.00  0.00     0.026 A 
ATOM      8  C   UNL d   1      52.021  34.595  53.511  0.00  0.00     0.002 A 
BRANCH   5   9
ATOM      9  N   UNL d   1      52.439  32.212  52.990  0.00  0.00    -0.112 N 
ATOM     10  O   UNL d   1      52.832  32.004  52.292  0.00  0.00    -0.532 OA
ATOM     11  O   UNL d   1      52.189  31.617  53.509  0.00  0.00    -0.532 OA
ENDBRANCH   5   9
BRANCH   6  12
ATOM     12  O   UNL d   1      53.520  33.058  53.921  0.00  0.00    -0.326 OA
ATOM     13  C   UNL d   1      53.977  33.436  54.498  0.00  0.00     0.181 C 
ENDBRANCH   6  12
ENDBRANCH   2   3
ENDBRANCH   1   2
BRANCH   1  14
ATOM     14  C   UNL d   1      49.429  34.888  52.898  0.00  0.00     0.004 A 
ATOM     15  C   UNL d   1      49.128  34.753  52.142  0.00  0.00     0.026 A 
ATOM     16  C   UNL d   1      48.463  35.178  51.881  0.00  0.00     0.118 A 
ATOM     17  C   UNL d   1      48.105  35.730  52.375  0.00  0.00     0.138 A 
ATOM     18  C   UNL d   1      48.406  35.864  53.131  0.00  0.00     0.118 A 
ATOM     19  C   UNL d   1      49.065  35.446  53.394  0.00  0.00     0.026 A 
BRANCH  16  20
ATOM     20  O   UNL d   1      48.163  35.043  51.125  0.00  0.00    -0.326 OA
ATOM     21  C   UNL d   1      48.448  34.417  50.672  0.00  0.00     0.181 C 
ENDBRANCH  16  20
BRANCH  17  22
ATOM     22  O   UNL d   1      47.447  36.149  52.113  0.00  0.00    -0.324 OA
ATOM     23  C   UNL d   1      46.691  35.853  52.249  0.00  0.00     0.182 C 
ENDBRANCH  17  22
BRANCH  18  24
ATOM     24  O   UNL d   1      48.048  36.417  53.626  0.00  0.00    -0.326 OA
ATOM     25  C   UNL d   1      48.418  36.640  54.327  0.00  0.00     0.181 C 
ENDBRANCH  18  24
ENDBRANCH   1  14
TORSDOF 8
ENDMDL
MODEL 4
REMARK VINA RESULT:      -6.4      1.294      5.038
REMARK  8 active torsions:
REMARK  status: ('A' for Active; 'I' for Inactive)
REMARK    1  A    between atoms: C_2  and  N_1 
REMARK    2  A    between atoms: O_17  and  C_3 
REMARK    3  A    between atoms: O_18  and  C_4 
REMARK    4  A    between atoms: O_19  and  C_5 
REMARK    5  A    between atoms: O_21  and  C_6 
REMARK    6  A    between atoms: C_9  and  C_11 
REMARK    7  A    between atoms: C_12  and  C_9 
REMARK    8  A    between atoms: C_11  and  C_15 
ROOT
ATOM      1  C   UNL d   1      50.091  34.545  53.144  0.00  0.00     0.000 C 
ENDROOT
BRANCH   1   2
ATOM      2  C   UNL d   1      50.822  34.680  52.785  0.00  0.00     0.000 C 
BRANCH   2   3
ATOM      3  C   UNL d   1      51.512  34.351  53.110  0.00  0.00     0.002 A 
ATOM      4  C   UNL d   1      51.993  34.807  53.580  0.00  0.00     0.026 A 
ATOM      5  C   UNL d   1      52.678  34.484  53.904  0.00  0.00     0.149 A 
ATOM      6  C   UNL d   1      52.877  33.696  53.751  0.00  0.00     0.116 A 
ATOM      7  C   UNL d   1      52.385  33.238  53.273  0.00  0.00     0.026 A 
ATOM      8  C   UNL d   1      51.701  33.559  52.949  0.00  0.00     0.002 A 
BRANCH   5   9
ATOM      9  N   UNL d   1      53.167  34.947  54.381  0.00  0.00    -0.112 N 
ATOM     10  O   UNL d   1      53.580  35.585  54.053  0.00  0.00    -0.532 OA
ATOM     11  O   UNL d   1      53.249  34.779  55.187  0.00  0.00    -0.532 OA
ENDBRANCH   5   9
BRANCH   6  12
ATOM     12  O   UNL d   1      53.564  33.366  54.073  0.00  0.00    -0.326 OA
ATOM     13  C   UNL d   1      53.784  32.593  53.873  0.00  0.00     0.181 C 
ENDBRANCH   6  12
ENDBRANCH   2   3
ENDBRANCH   1   2
BRANCH   1  14
ATOM     14  C   UNL d   1      49.424  34.960  52.884  0.00  0.00     0.004 A 
ATOM     15  C   UNL d   1      49.091  35.545  53.362  0.00  0.00     0.026 A 
ATOM     16  C   UNL d   1      48.421  35.959  53.098  0.00  0.00     0.118 A 
ATOM     17  C   UNL d   1      48.091  35.788  52.364  0.00  0.00     0.138 A 
ATOM     18  C   UNL d   1      48.424  35.204  51.887  0.00  0.00     0.118 A 
ATOM     19  C   UNL d   1      49.088  34.790  52.144  0.00  0.00     0.026 A 
BRANCH  16  20
ATOM     20  O   UNL d   1      48.088  36.544  53.575  0.00  0.00    -0.326 OA
ATOM     21  C   UNL d   1      48.188  36.517  54.393  0.00  0.00     0.181 C 
ENDBRANCH  16  20
BRANCH  17  22
ATOM     22  O   UNL d   1      47.427  36.202  52.106  0.00  0.00    -0.324 OA
ATOM     23  C   UNL d   1      46.675  35.909  52.264  0.00  0.00     0.182 C 
ENDBRANCH  17  22
BRANCH  18  24
ATOM     24  O   UNL d   1      48.094  35.032  51.152  0.00  0.00    -0.326 OA
ATOM     25  C   UNL d   1      48.439  34.460  50.672  0.00  0.00     0.181 C 
ENDBRANCH  18  24
ENDBRANCH   1  14
TORSDOF 8
ENDMDL
MODEL 5
REMARK VINA RESULT:      -6.2      2.995      5.359
REMARK  8 active torsions:
REMARK  status: ('A' for Active; 'I' for Inactive)
REMARK    1  A    between atoms: C_2  and  N_1 
REMARK    2  A    between atoms: O_17  and  C_3 
REMARK    3  A    between atoms: O_18  and  C_4 
REMARK    4  A    between atoms: O_19  and  C_5 
REMARK    5  A    between atoms: O_21  and  C_6 
REMARK    6  A    between atoms: C_9  and  C_11 
REMARK    7  A    between atoms: C_12  and  C_9 
REMARK    8  A    between atoms: C_11  and  C_15 
ROOT
ATOM      1  C   UNL d   1      53.181  32.256  54.306  0.00  0.00     0.000 C 
ENDROOT
BRANCH   1   2
ATOM      2  C   UNL d   1      53.565  31.800  53.735  0.00  0.00     0.000 C 
BRANCH   2   3
ATOM      3  C   UNL d   1      53.322  31.019  53.595  0.00  0.00     0.002 A 
ATOM      4  C   UNL d   1      53.484  30.441  54.143  0.00  0.00     0.026 A 
ATOM      5  C   UNL d   1      53.244  29.665  54.007  0.00  0.00     0.149 A 
ATOM      6  C   UNL d   1      52.839  29.472  53.312  0.00  0.00     0.116 A 
ATOM      7  C   UNL d   1      52.676  30.062  52.759  0.00  0.00     0.026 A 
ATOM      8  C   UNL d   1      52.915  30.838  52.894  0.00  0.00     0.002 A 
BRANCH   5   9
ATOM      9  N   UNL d   1      53.409  29.078  54.563  0.00  0.00    -0.112 N 
ATOM     10  O   UNL d   1      52.895  28.958  55.200  0.00  0.00    -0.532 OA
ATOM     11  O   UNL d   1      54.086  28.607  54.490  0.00  0.00    -0.532 OA
ENDBRANCH   5   9
BRANCH   6  12
ATOM     12  O   UNL d   1      52.595  28.694  53.169  0.00  0.00    -0.326 OA
ATOM     13  C   UNL d   1      52.176  28.513  52.479  0.00  0.00     0.181 C 
ENDBRANCH   6  12
ENDBRANCH   2   3
ENDBRANCH   1   2
BRANCH   1  14
ATOM     14  C   UNL d   1      53.279  33.077  54.309  0.00  0.00     0.004 A 
ATOM     15  C   UNL d   1      52.745  33.557  53.903  0.00  0.00     0.026 A 
ATOM     16  C   UNL d   1      52.846  34.382  53.908  0.00  0.00     0.118 A 
ATOM     17  C   UNL d   1      53.476  34.719  54.315  0.00  0.00     0.138 A 
ATOM     18  C   UNL d   1      54.010  34.239  54.721  0.00  0.00     0.118 A 
ATOM     19  C   UNL d   1      53.914  33.421  54.720  0.00  0.00     0.026 A 
BRANCH  16  20
ATOM     20  O   UNL d   1      52.313  34.862  53.501  0.00  0.00    -0.326 OA
ATOM     21  C   UNL d   1      51.749  34.524  53.004  0.00  0.00     0.181 C 
ENDBRANCH  16  20
BRANCH  17  22
ATOM     22  O   UNL d   1      53.573  35.537  54.317  0.00  0.00    -0.324 OA
ATOM     23  C   UNL d   1      53.134  36.001  54.835  0.00  0.00     0.182 C 
ENDBRANCH  17  22
BRANCH  18  24
ATOM     24  O   UNL d   1      54.641  34.576  55.130  0.00  0.00    -0.326 OA
ATOM     25  C   UNL d   1      55.288  34.112  55.339  0.00  0.00     0.181 C 
ENDBRANCH  18  24
ENDBRANCH   1  14
TORSDOF 8
ENDMDL
MODEL 6
REMARK VINA RESULT:      -6.2      2.990      5.308
REMARK  8 active torsions:
REMARK  status: ('A' for Active; 'I' for Inactive)
REMARK    1  A    between atoms: C_2  and  N_1 
REMARK    2  A    between atoms: O_17  and  C_3 
REMARK    3  A    between atoms: O_18  and  C_4 
REMARK    4  A    between atoms: O_19  and  C_5 
REMARK    5  A    between atoms: O_21  and  C_6 
REMARK    6  A    between atoms: C_9  and  C_11 
REMARK    7  A    between atoms: C_12  and  C_9 
REMARK    8  A    between atoms: C_11  and  C_15 
ROOT
ATOM      1  C   UNL d   1      53.187  32.256  54.303  0.00  0.00     0.000 C 
ENDROOT
BRANCH   1   2
ATOM      2  C   UNL d   1      53.572  31.801  53.732  0.00  0.00     0.000 C 
BRANCH   2   3
ATOM      3  C   UNL d   1      53.327  31.021  53.589  0.00  0.00     0.002 A 
ATOM      4  C   UNL d   1      53.482  30.442  54.139  0.00  0.00     0.026 A 
ATOM      5  C   UNL d   1      53.240  29.667  54.000  0.00  0.00     0.149 A 
ATOM      6  C   UNL d   1      52.840  29.476  53.302  0.00  0.00     0.116 A 
ATOM      7  C   UNL d   1      52.685  30.066  52.747  0.00  0.00     0.026 A 
ATOM      8  C   UNL d   1      52.926  30.841  52.885  0.00  0.00     0.002 A 
BRANCH   5   9
ATOM      9  N   UNL d   1      53.397  29.080  54.558  0.00  0.00    -0.112 N 
ATOM     10  O   UNL d   1      52.883  28.968  55.197  0.00  0.00    -0.532 OA
ATOM     11  O   UNL d   1      54.067  28.598  54.485  0.00  0.00    -0.532 OA
ENDBRANCH   5   9
BRANCH   6  12
ATOM     12  O   UNL d   1      52.595  28.699  53.157  0.00  0.00    -0.326 OA
ATOM     13  C   UNL d   1      52.164  28.523  52.472  0.00  0.00     0.181 C 
ENDBRANCH   6  12
ENDBRANCH   2   3
ENDBRANCH   1   2
BRANCH   1  14
ATOM     14  C   UNL d   1      53.282  33.078  54.303  0.00  0.00     0.004 A 
ATOM     15  C   UNL d   1      53.915  33.420  54.707  0.00  0.00     0.026 A 
ATOM     16  C   UNL d   1      54.007  34.245  54.705  0.00  0.00     0.118 A 
ATOM     17  C   UNL d   1      53.470  34.721  54.303  0.00  0.00     0.138 A 
ATOM     18  C   UNL d   1      52.837  34.379  53.899  0.00  0.00     0.118 A 
ATOM     19  C   UNL d   1      52.741  33.562  53.897  0.00  0.00     0.026 A 
BRANCH  16  20
ATOM     20  O   UNL d   1      54.640  34.587  55.109  0.00  0.00    -0.326 OA
ATOM     21  C   UNL d   1      55.269  34.119  55.364  0.00  0.00     0.181 C 
ENDBRANCH  16  20
BRANCH  17  22
ATOM     22  O   UNL d   1      53.565  35.539  54.304  0.00  0.00    -0.324 OA
ATOM     23  C   UNL d   1      53.124  36.003  54.820  0.00  0.00     0.182 C 
ENDBRANCH  17  22
BRANCH  18  24
ATOM     24  O   UNL d   1      52.299  34.856  53.496  0.00  0.00    -0.326 OA
ATOM     25  C   UNL d   1      51.744  34.512  52.994  0.00  0.00     0.181 C 
ENDBRANCH  18  24
ENDBRANCH   1  14
TORSDOF 8
ENDMDL
