MODEL 1
REMARK VINA RESULT:      10.4      0.000      0.000
REMARK  3 active torsions:
REMARK  status: ('A' for Active; 'I' for Inactive)
REMARK    1  A    between atoms: N_5  and  C_2 
REMARK    2  A    between atoms: C_8  and  C_3 
REMARK       I    between atoms: C_7  and  N_5 
REMARK    3  A    between atoms: C_10  and  C_7 
ROOT
ATOM      1  N   UNL d   1      46.359 -17.432  43.638  0.00  0.00    -0.200 NA
ATOM      2  C   UNL d   1      46.225 -16.973  44.301  0.00  0.00     0.216 A 
ATOM      3  C   UNL d   1      46.302 -18.231  43.858  0.00  0.00     0.172 A 
ATOM      4  N   UNL d   1      46.130 -18.255  44.664  0.00  0.00    -0.187 NA
ATOM      5  S   UNL d   1      46.081 -17.475  44.945  0.00  0.00     0.054 SA
ENDROOT
BRANCH   2   6
ATOM      6  N   UNL d   1      46.230 -16.148  44.327  0.00  0.00    -0.181 NA
ATOM      7  C   UNL d   1      45.564 -15.743  44.584  0.00  0.00     0.281 C 
ATOM      8  O   UNL d   1      44.892 -16.159  44.816  0.00  0.00    -0.265 OA
BRANCH   7   9
ATOM      9  C   UNL d   1      45.570 -14.927  44.610  0.00  0.00     0.058 A 
ATOM     10  C   UNL d   1      44.928 -14.492  44.319  0.00  0.00     0.005 A 
ATOM     11  C   UNL d   1      44.933 -13.668  44.345  0.00  0.00     0.000 A 
ATOM     12  C   UNL d   1      45.580 -13.278  44.663  0.00  0.00     0.000 A 
ATOM     13  C   UNL d   1      46.221 -13.696  44.954  0.00  0.00     0.000 A 
ATOM     14  C   UNL d   1      46.216 -14.528  44.928  0.00  0.00     0.005 A 
ENDBRANCH   7   9
ENDBRANCH   2   6
BRANCH   3  15
ATOM     15  C   UNL d   1      46.397 -18.878  43.367  0.00  0.00     0.036 A 
ATOM     16  C   UNL d   1      46.363 -19.640  43.681  0.00  0.00     0.003 A 
ATOM     17  C   UNL d   1      46.460 -20.297  43.186  0.00  0.00     0.000 A 
ATOM     18  C   UNL d   1      46.590 -20.187  42.376  0.00  0.00     0.000 A 
ATOM     19  C   UNL d   1      46.625 -19.420  42.061  0.00  0.00     0.000 A 
ATOM     20  C   UNL d   1      46.527 -18.766  42.563  0.00  0.00     0.003 A 
ENDBRANCH   3  15
TORSDOF 3
ENDMDL
