MODEL 1
REMARK VINA RESULT:      84.0      0.000      0.000
REMARK  7 active torsions:
REMARK  status: ('A' for Active; 'I' for Inactive)
REMARK    1  A    between atoms: S_2  and  C_1 
REMARK    2  A    between atoms: C_7  and  S_2 
REMARK    3  A    between atoms: C_9  and  N_3 
REMARK    4  A    between atoms: C_11  and  C_7 
REMARK    5  A    between atoms: C_8  and  C_9 
REMARK       I    between atoms: N_10  and  C_8 
REMARK       I    between atoms: N_15  and  C_11 
REMARK    6  A    between atoms: C_12  and  C_16 
REMARK    7  A    between atoms: C_23  and  N_15 
ROOT
ATOM      1  C   UNL d   1     -48.197  29.434  34.717  0.00  0.00     0.107 A 
ATOM      2  N   UNL d   1     -48.014  30.640  35.250  0.00  0.00    -0.299 N 
ATOM      3  C   UNL d   1     -48.235  30.246  34.561  0.00  0.00     0.092 A 
ATOM      4  C   UNL d   1     -47.954  29.333  35.499  0.00  0.00     0.028 A 
ATOM      5  C   UNL d   1     -47.841  30.084  35.828  0.00  0.00     0.065 A 
ATOM      6  C   UNL d   1     -47.822  28.659  35.951  0.00  0.00     0.002 A 
ATOM      7  C   UNL d   1     -47.595  30.150  36.612  0.00  0.00     0.018 A 
ATOM      8  C   UNL d   1     -47.575  28.725  36.739  0.00  0.00     0.000 A 
ATOM      9  C   UNL d   1     -47.463  29.476  37.065  0.00  0.00     0.002 A 
ENDROOT
BRANCH   1  10
ATOM     10  S   UNL d   1     -48.373  28.827  34.180  0.00  0.00     0.217 S 
ATOM     11  O   UNL d   1     -48.834  29.316  33.713  0.00  0.00    -0.217 OA
ATOM     12  O   UNL d   1     -47.904  28.334  34.658  0.00  0.00    -0.217 OA
BRANCH  10  13
ATOM     13  C   UNL d   1     -48.546  28.217  33.646  0.00  0.00     0.161 C 
BRANCH  13  14
ATOM     14  C   UNL d   1     -49.284  27.873  33.647  0.00  0.00     0.291 C 
ATOM     15  N   UNL d   1     -49.388  27.106  33.364  0.00  0.00    -0.207 NA
ATOM     16  O   UNL d   1     -49.936  28.296  33.935  0.00  0.00    -0.264 OA
BRANCH  15  17
ATOM     17  C   UNL d   1     -50.138  26.761  33.367  0.00  0.00     0.085 A 
ATOM     18  C   UNL d   1     -50.816  27.234  33.321  0.00  0.00     0.019 A 
ATOM     19  C   UNL d   1     -51.565  26.898  33.323  0.00  0.00     0.006 A 
ATOM     20  C   UNL d   1     -51.649  26.071  33.372  0.00  0.00     0.059 A 
ATOM     21  C   UNL d   1     -50.980  25.589  33.418  0.00  0.00     0.006 A 
ATOM     22  C   UNL d   1     -50.218  25.934  33.416  0.00  0.00     0.019 A 
BRANCH  20  23
ATOM     23  C   UNL d   1     -52.391  25.726  33.375  0.00  0.00     0.297 C 
ATOM     24  O   UNL d   1     -52.480  24.905  33.446  0.00  0.00    -0.264 OA
ATOM     25  N   UNL d   1     -53.072  26.210  33.306  0.00  0.00    -0.102 N 
ENDBRANCH  20  23
ENDBRANCH  15  17
ENDBRANCH  13  14
ENDBRANCH  10  13
ENDBRANCH   1  10
BRANCH   2  26
ATOM     26  C   UNL d   1     -47.974  31.458  35.342  0.00  0.00     0.142 C 
BRANCH  26  27
ATOM     27  C   UNL d   1     -47.441  31.897  34.897  0.00  0.00     0.282 C 
ATOM     28  N   UNL d   1     -47.714  32.408  34.311  0.00  0.00    -0.271 N 
ATOM     29  C   UNL d   1     -48.499  32.539  34.105  0.00  0.00     0.083 A 
ATOM     30  C   UNL d   1     -47.244  32.884  33.821  0.00  0.00     0.083 A 
ATOM     31  C   UNL d   1     -48.523  33.088  33.496  0.00  0.00     0.021 A 
ATOM     32  C   UNL d   1     -47.748  33.304  33.317  0.00  0.00     0.021 A 
ATOM     33  O   UNL d   1     -46.634  31.826  35.038  0.00  0.00    -0.265 OA
ENDBRANCH  26  27
ENDBRANCH   2  26
TORSDOF 7
ENDMDL
