MODEL 1
REMARK VINA RESULT:     101.1      0.000      0.000
REMARK  4 active torsions:
REMARK  status: ('A' for Active; 'I' for Inactive)
REMARK    1  A    between atoms: C_6  and  C_1 
REMARK    2  A    between atoms: C_4  and  C_11 
REMARK    3  A    between atoms: N_8  and  C_6 
REMARK    4  A    between atoms: C_13  and  C_6 
ROOT
ATOM      1  C   UNL d   1     -51.324  25.997  34.952  0.00  0.00     0.067 C 
ENDROOT
BRANCH   1   2
ATOM      2  C   UNL d   1     -51.605  25.317  34.555  0.00  0.00     0.057 A 
ATOM      3  C   UNL d   1     -52.402  25.191  34.475  0.00  0.00     0.214 A 
ATOM      4  C   UNL d   1     -52.697  24.519  34.084  0.00  0.00     0.121 A 
ATOM      5  O   UNL d   1     -52.933  25.763  34.801  0.00  0.00    -0.285 OA
ATOM      6  N   UNL d   1     -53.494  24.394  34.004  0.00  0.00    -0.241 NA
ATOM      7  C   UNL d   1     -52.164  23.972  33.773  0.00  0.00     0.032 A 
ATOM      8  C   UNL d   1     -53.770  23.736  33.621  0.00  0.00     0.099 A 
ATOM      9  C   UNL d   1     -53.237  23.189  33.309  0.00  0.00     0.021 A 
ATOM     10  C   UNL d   1     -52.430  23.303  33.383  0.00  0.00     0.004 A 
ATOM     11  C   UNL d   1     -51.338  24.100  33.854  0.00  0.00     0.059 A 
ATOM     12  C   UNL d   1     -51.072  24.770  34.244  0.00  0.00     0.016 A 
ATOM     13 CL   UNL d   1     -50.788  23.565  33.550  0.00  0.00    -0.082 Cl
ENDBRANCH   1   2
BRANCH   1  14
ATOM     14  N   UNL d   1     -51.011  26.641  34.532  0.00  0.00    -0.301 N 
ATOM     15  C   UNL d   1     -51.210  26.791  33.749  0.00  0.00     0.100 A 
ATOM     16  C   UNL d   1     -50.892  27.432  33.348  0.00  0.00     0.100 A 
ATOM     17  N   UNL d   1     -50.373  27.927  33.727  0.00  0.00    -0.299 N 
ATOM     18  C   UNL d   1     -50.164  27.784  34.521  0.00  0.00     0.100 A 
ATOM     19  C   UNL d   1     -50.064  28.566  33.306  0.00  0.00     0.100 C 
ATOM     20  C   UNL d   1     -50.476  27.156  34.914  0.00  0.00     0.100 A 
ENDBRANCH   1  14
BRANCH   1  21
ATOM     21  C   UNL d   1     -51.357  26.035  35.784  0.00  0.00     0.016 A 
ATOM     22  C   UNL d   1     -50.662  26.107  36.223  0.00  0.00     0.001 A 
ATOM     23  C   UNL d   1     -50.685  26.144  37.040  0.00  0.00     0.004 A 
ATOM     24  C   UNL d   1     -51.411  26.111  37.439  0.00  0.00     0.071 A 
ATOM     25  C   UNL d   1     -52.102  26.039  37.002  0.00  0.00     0.004 A 
ATOM     26  C   UNL d   1     -52.082  26.001  36.182  0.00  0.00     0.001 A 
BRANCH  24  27
ATOM     27  C   UNL d   1     -51.448  26.147  38.248  0.00  0.00     0.419 C 
ATOM     28  F   UNL d   1     -51.446  26.238  39.056  0.00  0.00    -0.166 F 
ATOM     29  F   UNL d   1     -51.901  25.577  38.723  0.00  0.00    -0.166 F 
ATOM     30  F   UNL d   1     -51.057  26.721  38.593  0.00  0.00    -0.166 F 
ENDBRANCH  24  27
ENDBRANCH   1  21
TORSDOF 4
ENDMDL
MODEL 2
REMARK VINA RESULT:     102.2      2.627      3.520
REMARK  4 active torsions:
REMARK  status: ('A' for Active; 'I' for Inactive)
REMARK    1  A    between atoms: C_6  and  C_1 
REMARK    2  A    between atoms: C_4  and  C_11 
REMARK    3  A    between atoms: N_8  and  C_6 
REMARK    4  A    between atoms: C_13  and  C_6 
ROOT
ATOM      1  C   UNL d   1     -49.988  26.073  33.873  0.00  0.00     0.067 C 
ENDROOT
BRANCH   1   2
ATOM      2  C   UNL d   1     -50.812  26.108  33.731  0.00  0.00     0.057 A 
ATOM      3  C   UNL d   1     -51.255  25.429  33.728  0.00  0.00     0.214 A 
ATOM      4  C   UNL d   1     -52.074  25.447  33.588  0.00  0.00     0.121 A 
ATOM      5  O   UNL d   1     -50.862  24.693  33.872  0.00  0.00    -0.285 OA
ATOM      6  N   UNL d   1     -52.517  24.768  33.585  0.00  0.00    -0.241 NA
ATOM      7  C   UNL d   1     -52.439  26.174  33.450  0.00  0.00     0.032 A 
ATOM      8  C   UNL d   1     -53.315  24.798  33.448  0.00  0.00     0.099 A 
ATOM      9  C   UNL d   1     -53.679  25.525  33.310  0.00  0.00     0.021 A 
ATOM     10  C   UNL d   1     -53.245  26.218  33.309  0.00  0.00     0.004 A 
ATOM     11  C   UNL d   1     -51.982  26.879  33.452  0.00  0.00     0.059 A 
ATOM     12  C   UNL d   1     -51.177  26.835  33.593  0.00  0.00     0.016 A 
ATOM     13 CL   UNL d   1     -52.329  27.616  33.316  0.00  0.00    -0.082 Cl
ENDBRANCH   1   2
BRANCH   1  14
ATOM     14  N   UNL d   1     -49.557  25.379  33.733  0.00  0.00    -0.301 N 
ATOM     15  C   UNL d   1     -48.736  25.366  33.734  0.00  0.00     0.100 A 
ATOM     16  C   UNL d   1     -48.323  24.671  33.593  0.00  0.00     0.100 A 
ATOM     17  N   UNL d   1     -48.729  23.984  33.451  0.00  0.00    -0.299 N 
ATOM     18  C   UNL d   1     -49.562  23.985  33.447  0.00  0.00     0.100 A 
ATOM     19  C   UNL d   1     -48.297  23.295  33.311  0.00  0.00     0.100 C 
ATOM     20  C   UNL d   1     -49.967  24.666  33.585  0.00  0.00     0.100 A 
ENDBRANCH   1  14
BRANCH   1  21
ATOM     21  C   UNL d   1     -49.589  26.745  34.162  0.00  0.00     0.016 A 
ATOM     22  C   UNL d   1     -49.483  27.405  33.677  0.00  0.00     0.001 A 
ATOM     23  C   UNL d   1     -49.092  28.069  33.953  0.00  0.00     0.004 A 
ATOM     24  C   UNL d   1     -48.796  28.087  34.727  0.00  0.00     0.071 A 
ATOM     25  C   UNL d   1     -48.901  27.431  35.209  0.00  0.00     0.004 A 
ATOM     26  C   UNL d   1     -49.293  26.763  34.935  0.00  0.00     0.001 A 
BRANCH  24  27
ATOM     27  C   UNL d   1     -48.407  28.739  35.013  0.00  0.00     0.419 C 
ATOM     28  F   UNL d   1     -47.988  29.351  35.346  0.00  0.00    -0.166 F 
ATOM     29  F   UNL d   1     -48.504  29.531  34.671  0.00  0.00    -0.166 F 
ATOM     30  F   UNL d   1     -47.933  28.627  35.617  0.00  0.00    -0.166 F 
ENDBRANCH  24  27
ENDBRANCH   1  21
TORSDOF 4
ENDMDL
