MODEL 1
REMARK VINA RESULT:     -10.1      0.000      0.000
REMARK  3 active torsions:
REMARK  status: ('A' for Active; 'I' for Inactive)
REMARK    1  A    between atoms: C_10  and  C_2 
REMARK    2  A    between atoms: C_13  and  C_6 
REMARK    3  A    between atoms: O_17  and  C_10 
ROOT
ATOM      1  C   UNL d   1      52.985  32.267  53.433  0.00  0.00     0.081 A 
ATOM      2  C   UNL d   1      53.378  33.496  54.030  0.00  0.00     0.106 A 
ATOM      3  C   UNL d   1      54.008  33.111  54.408  0.00  0.00     0.208 A 
ATOM      4  C   UNL d   1      53.606  31.884  53.805  0.00  0.00     0.108 A 
ATOM      5  C   UNL d   1      52.467  31.839  52.938  0.00  0.00     0.281 A 
ATOM      6  C   UNL d   1      52.869  33.071  53.543  0.00  0.00     0.015 A 
ATOM      7  O   UNL d   1      54.117  32.306  54.292  0.00  0.00    -0.288 OA
ATOM      8  N   UNL d   1      52.580  31.028  52.824  0.00  0.00    -0.208 NA
ATOM      9  C   UNL d   1      53.719  31.073  53.691  0.00  0.00     0.044 A 
ATOM     10  C   UNL d   1      53.213  30.645  53.205  0.00  0.00     0.087 A 
ATOM     11  O   UNL d   1      51.842  32.229  52.565  0.00  0.00    -0.265 OA
ATOM     12  N   UNL d   1      54.513  33.543  54.893  0.00  0.00    -0.121 N 
ATOM     13  C   UNL d   1      53.322  29.840  53.089  0.00  0.00     0.021 C 
ENDROOT
BRANCH   6  14
ATOM     14  C   UNL d   1      52.242  33.459  53.167  0.00  0.00     0.004 A 
ATOM     15  C   UNL d   1      51.493  33.465  53.527  0.00  0.00     0.021 A 
ATOM     16  C   UNL d   1      50.867  33.851  53.155  0.00  0.00     0.099 A 
ATOM     17  N   UNL d   1      50.986  34.230  52.427  0.00  0.00    -0.242 NA
ATOM     18  C   UNL d   1      51.741  34.220  52.071  0.00  0.00     0.099 A 
ATOM     19  C   UNL d   1      52.365  33.832  52.448  0.00  0.00     0.021 A 
ENDBRANCH   6  14
BRANCH   2  20
ATOM     20  C   UNL d   1      53.262  34.305  54.142  0.00  0.00     0.299 C 
ATOM     21  O   UNL d   1      53.517  34.848  53.573  0.00  0.00    -0.259 OA
BRANCH  20  22
ATOM     22  O   UNL d   1      52.885  34.578  54.835  0.00  0.00    -0.296 OA
ATOM     23  C   UNL d   1      53.046  35.335  55.107  0.00  0.00     0.185 C 
ENDBRANCH  20  22
ENDBRANCH   2  20
TORSDOF 3
ENDMDL
MODEL 2
REMARK VINA RESULT:     -10.1      0.750      2.442
REMARK  3 active torsions:
REMARK  status: ('A' for Active; 'I' for Inactive)
REMARK    1  A    between atoms: C_10  and  C_2 
REMARK    2  A    between atoms: C_13  and  C_6 
REMARK    3  A    between atoms: O_17  and  C_10 
ROOT
ATOM      1  C   UNL d   1      53.226  32.153  53.520  0.00  0.00     0.081 A 
ATOM      2  C   UNL d   1      52.828  33.511  53.393  0.00  0.00     0.106 A 
ATOM      3  C   UNL d   1      52.216  33.284  52.882  0.00  0.00     0.208 A 
ATOM      4  C   UNL d   1      52.623  31.925  53.015  0.00  0.00     0.108 A 
ATOM      5  C   UNL d   1      53.739  31.578  53.843  0.00  0.00     0.281 A 
ATOM      6  C   UNL d   1      53.331  32.942  53.710  0.00  0.00     0.015 A 
ATOM      7  O   UNL d   1      52.118  32.491  52.697  0.00  0.00    -0.288 OA
ATOM      8  N   UNL d   1      53.637  30.780  53.654  0.00  0.00    -0.208 NA
ATOM      9  C   UNL d   1      52.521  31.127  52.826  0.00  0.00     0.044 A 
ATOM     10  C   UNL d   1      53.021  30.556  53.141  0.00  0.00     0.087 A 
ATOM     11  O   UNL d   1      54.346  31.812  54.352  0.00  0.00    -0.265 OA
ATOM     12  N   UNL d   1      51.717  33.858  52.569  0.00  0.00    -0.121 N 
ATOM     13  C   UNL d   1      52.924  29.763  52.956  0.00  0.00     0.021 C 
ENDROOT
BRANCH   6  14
ATOM     14  C   UNL d   1      53.941  33.173  54.220  0.00  0.00     0.004 A 
ATOM     15  C   UNL d   1      54.678  33.387  53.902  0.00  0.00     0.021 A 
ATOM     16  C   UNL d   1      55.287  33.617  54.407  0.00  0.00     0.099 A 
ATOM     17  N   UNL d   1      55.162  33.636  55.228  0.00  0.00    -0.242 NA
ATOM     18  C   UNL d   1      54.418  33.420  55.539  0.00  0.00     0.099 A 
ATOM     19  C   UNL d   1      53.812  33.190  55.029  0.00  0.00     0.021 A 
ENDBRANCH   6  14
BRANCH   2  20
ATOM     20  C   UNL d   1      52.932  34.307  53.584  0.00  0.00     0.299 C 
ATOM     21  O   UNL d   1      53.465  34.774  53.158  0.00  0.00    -0.259 OA
BRANCH  20  22
ATOM     22  O   UNL d   1      52.496  34.644  54.211  0.00  0.00    -0.296 OA
ATOM     23  C   UNL d   1      52.367  35.454  54.220  0.00  0.00     0.185 C 
ENDBRANCH  20  22
ENDBRANCH   2  20
TORSDOF 3
ENDMDL
MODEL 3
REMARK VINA RESULT:      -9.5      0.905      3.475
REMARK  3 active torsions:
REMARK  status: ('A' for Active; 'I' for Inactive)
REMARK    1  A    between atoms: C_10  and  C_2 
REMARK    2  A    between atoms: C_13  and  C_6 
REMARK    3  A    between atoms: O_17  and  C_10 
ROOT
ATOM      1  C   UNL d   1      52.577  33.139  53.418  0.00  0.00     0.081 A 
ATOM      2  C   UNL d   1      53.142  31.836  53.374  0.00  0.00     0.106 A 
ATOM      3  C   UNL d   1      52.529  31.588  52.874  0.00  0.00     0.208 A 
ATOM      4  C   UNL d   1      51.970  32.897  52.924  0.00  0.00     0.108 A 
ATOM      5  C   UNL d   1      52.601  33.927  53.694  0.00  0.00     0.281 A 
ATOM      6  C   UNL d   1      53.162  32.613  53.644  0.00  0.00     0.015 A 
ATOM      7  O   UNL d   1      51.947  32.121  52.653  0.00  0.00    -0.288 OA
ATOM      8  N   UNL d   1      52.012  34.462  53.469  0.00  0.00    -0.208 NA
ATOM      9  C   UNL d   1      51.382  33.432  52.699  0.00  0.00     0.044 A 
ATOM     10  C   UNL d   1      51.398  34.209  52.967  0.00  0.00     0.087 A 
ATOM     11  O   UNL d   1      53.214  34.168  54.192  0.00  0.00    -0.265 OA
ATOM     12  N   UNL d   1      52.515  30.809  52.608  0.00  0.00    -0.121 N 
ATOM     13  C   UNL d   1      50.816  34.743  52.746  0.00  0.00     0.021 C 
ENDROOT
BRANCH   6  14
ATOM     14  C   UNL d   1      53.776  32.857  54.143  0.00  0.00     0.004 A 
ATOM     15  C   UNL d   1      54.481  33.146  53.811  0.00  0.00     0.021 A 
ATOM     16  C   UNL d   1      55.093  33.390  54.305  0.00  0.00     0.099 A 
ATOM     17  N   UNL d   1      55.005  33.346  55.130  0.00  0.00    -0.242 NA
ATOM     18  C   UNL d   1      54.294  33.054  55.456  0.00  0.00     0.099 A 
ATOM     19  C   UNL d   1      53.683  32.812  54.956  0.00  0.00     0.021 A 
ENDBRANCH   6  14
BRANCH   2  20
ATOM     20  C   UNL d   1      53.731  31.305  53.601  0.00  0.00     0.299 C 
ATOM     21  O   UNL d   1      54.469  31.315  53.231  0.00  0.00    -0.259 OA
BRANCH  20  22
ATOM     22  O   UNL d   1      53.580  30.752  54.208  0.00  0.00    -0.296 OA
ATOM     23  C   UNL d   1      53.847  29.981  54.125  0.00  0.00     0.185 C 
ENDBRANCH  20  22
ENDBRANCH   2  20
TORSDOF 3
ENDMDL
MODEL 4
REMARK VINA RESULT:      -9.2      1.006      2.806
REMARK  3 active torsions:
REMARK  status: ('A' for Active; 'I' for Inactive)
REMARK    1  A    between atoms: C_10  and  C_2 
REMARK    2  A    between atoms: C_13  and  C_6 
REMARK    3  A    between atoms: O_17  and  C_10 
ROOT
ATOM      1  C   UNL d   1      52.518  33.489  53.367  0.00  0.00     0.081 A 
ATOM      2  C   UNL d   1      53.437  33.682  54.434  0.00  0.00     0.106 A 
ATOM      3  C   UNL d   1      53.119  34.436  54.570  0.00  0.00     0.208 A 
ATOM      4  C   UNL d   1      52.203  34.233  53.499  0.00  0.00     0.108 A 
ATOM      5  C   UNL d   1      52.212  33.008  52.757  0.00  0.00     0.281 A 
ATOM      6  C   UNL d   1      53.133  33.211  53.832  0.00  0.00     0.015 A 
ATOM      7  O   UNL d   1      52.504  34.706  54.101  0.00  0.00    -0.288 OA
ATOM      8  N   UNL d   1      51.591  33.284  52.285  0.00  0.00    -0.208 NA
ATOM      9  C   UNL d   1      51.582  34.508  53.028  0.00  0.00     0.044 A 
ATOM     10  C   UNL d   1      51.276  34.041  52.425  0.00  0.00     0.087 A 
ATOM     11  O   UNL d   1      52.533  32.258  52.627  0.00  0.00    -0.265 OA
ATOM     12  N   UNL d   1      53.428  34.901  55.175  0.00  0.00    -0.121 N 
ATOM     13  C   UNL d   1      50.660  34.310  51.955  0.00  0.00     0.021 C 
ENDROOT
BRANCH   6  14
ATOM     14  C   UNL d   1      53.452  32.459  53.699  0.00  0.00     0.004 A 
ATOM     15  C   UNL d   1      53.124  31.803  54.088  0.00  0.00     0.021 A 
ATOM     16  C   UNL d   1      53.440  31.053  53.958  0.00  0.00     0.099 A 
ATOM     17  N   UNL d   1      54.082  30.956  53.442  0.00  0.00    -0.242 NA
ATOM     18  C   UNL d   1      54.407  31.621  53.054  0.00  0.00     0.099 A 
ATOM     19  C   UNL d   1      54.087  32.370  53.188  0.00  0.00     0.021 A 
ENDBRANCH   6  14
BRANCH   2  20
ATOM     20  C   UNL d   1      54.056  33.404  54.903  0.00  0.00     0.299 C 
ATOM     21  O   UNL d   1      53.908  32.891  55.533  0.00  0.00    -0.259 OA
BRANCH  20  22
ATOM     22  O   UNL d   1      54.839  33.644  54.740  0.00  0.00    -0.296 OA
ATOM     23  C   UNL d   1      55.369  33.732  55.360  0.00  0.00     0.185 C 
ENDBRANCH  20  22
ENDBRANCH   2  20
TORSDOF 3
ENDMDL
MODEL 5
REMARK VINA RESULT:      -8.8      0.884      2.809
REMARK  3 active torsions:
REMARK  status: ('A' for Active; 'I' for Inactive)
REMARK    1  A    between atoms: C_10  and  C_2 
REMARK    2  A    between atoms: C_13  and  C_6 
REMARK    3  A    between atoms: O_17  and  C_10 
ROOT
ATOM      1  C   UNL d   1      53.540  33.165  54.127  0.00  0.00     0.081 A 
ATOM      2  C   UNL d   1      53.135  31.967  53.478  0.00  0.00     0.106 A 
ATOM      3  C   UNL d   1      53.794  31.574  53.793  0.00  0.00     0.208 A 
ATOM      4  C   UNL d   1      54.192  32.779  54.439  0.00  0.00     0.108 A 
ATOM      5  C   UNL d   1      53.412  33.972  54.297  0.00  0.00     0.281 A 
ATOM      6  C   UNL d   1      53.011  32.763  53.648  0.00  0.00     0.015 A 
ATOM      7  O   UNL d   1      54.318  31.984  54.272  0.00  0.00    -0.288 OA
ATOM      8  N   UNL d   1      53.943  34.382  54.781  0.00  0.00    -0.208 NA
ATOM      9  C   UNL d   1      54.723  33.189  54.923  0.00  0.00     0.044 A 
ATOM     10  C   UNL d   1      54.603  33.984  55.094  0.00  0.00     0.087 A 
ATOM     11  O   UNL d   1      52.754  34.358  53.981  0.00  0.00    -0.265 OA
ATOM     12  N   UNL d   1      53.910  30.778  53.618  0.00  0.00    -0.121 N 
ATOM     13  C   UNL d   1      55.127  34.394  55.573  0.00  0.00     0.021 C 
ENDROOT
BRANCH   6  14
ATOM     14  C   UNL d   1      52.353  33.152  53.332  0.00  0.00     0.004 A 
ATOM     15  C   UNL d   1      52.421  33.539  52.600  0.00  0.00     0.021 A 
ATOM     16  C   UNL d   1      51.766  33.927  52.284  0.00  0.00     0.099 A 
ATOM     17  N   UNL d   1      51.045  33.929  52.694  0.00  0.00    -0.242 NA
ATOM     18  C   UNL d   1      50.984  33.537  53.429  0.00  0.00     0.099 A 
ATOM     19  C   UNL d   1      51.643  33.150  53.742  0.00  0.00     0.021 A 
ENDBRANCH   6  14
BRANCH   2  20
ATOM     20  C   UNL d   1      52.603  31.561  52.995  0.00  0.00     0.299 C 
ATOM     21  O   UNL d   1      52.649  31.626  52.173  0.00  0.00    -0.259 OA
BRANCH  20  22
ATOM     22  O   UNL d   1      52.014  31.079  53.340  0.00  0.00    -0.296 OA
ATOM     23  C   UNL d   1      51.860  30.342  53.017  0.00  0.00     0.185 C 
ENDBRANCH  20  22
ENDBRANCH   2  20
TORSDOF 3
ENDMDL
MODEL 6
REMARK VINA RESULT:      -8.2      0.961      2.925
REMARK  3 active torsions:
REMARK  status: ('A' for Active; 'I' for Inactive)
REMARK    1  A    between atoms: C_10  and  C_2 
REMARK    2  A    between atoms: C_13  and  C_6 
REMARK    3  A    between atoms: O_17  and  C_10 
ROOT
ATOM      1  C   UNL d   1      53.447  33.315  54.155  0.00  0.00     0.081 A 
ATOM      2  C   UNL d   1      52.265  33.737  53.489  0.00  0.00     0.106 A 
ATOM      3  C   UNL d   1      52.366  34.501  53.795  0.00  0.00     0.208 A 
ATOM      4  C   UNL d   1      53.550  34.069  54.458  0.00  0.00     0.108 A 
ATOM      5  C   UNL d   1      53.997  32.714  54.338  0.00  0.00     0.281 A 
ATOM      6  C   UNL d   1      52.809  33.146  53.671  0.00  0.00     0.015 A 
ATOM      7  O   UNL d   1      53.009  34.661  54.278  0.00  0.00    -0.288 OA
ATOM      8  N   UNL d   1      54.644  32.879  54.826  0.00  0.00    -0.208 NA
ATOM      9  C   UNL d   1      54.196  34.234  54.946  0.00  0.00     0.044 A 
ATOM     10  C   UNL d   1      54.741  33.647  55.131  0.00  0.00     0.087 A 
ATOM     11  O   UNL d   1      53.891  31.955  54.030  0.00  0.00    -0.265 OA
ATOM     12  N   UNL d   1      51.818  35.087  53.608  0.00  0.00    -0.121 N 
ATOM     13  C   UNL d   1      55.384  33.807  55.615  0.00  0.00     0.021 C 
ENDROOT
BRANCH   6  14
ATOM     14  C   UNL d   1      52.704  32.385  53.364  0.00  0.00     0.004 A 
ATOM     15  C   UNL d   1      53.107  32.168  52.671  0.00  0.00     0.021 A 
ATOM     16  C   UNL d   1      53.005  31.410  52.362  0.00  0.00     0.099 A 
ATOM     17  N   UNL d   1      52.503  30.870  52.743  0.00  0.00    -0.242 NA
ATOM     18  C   UNL d   1      52.102  31.096  53.440  0.00  0.00     0.099 A 
ATOM     19  C   UNL d   1      52.208  31.856  53.745  0.00  0.00     0.021 A 
ENDBRANCH   6  14
BRANCH   2  20
ATOM     20  C   UNL d   1      51.621  33.569  53.002  0.00  0.00     0.299 C 
ATOM     21  O   UNL d   1      50.948  33.200  53.308  0.00  0.00    -0.259 OA
BRANCH  20  22
ATOM     22  O   UNL d   1      51.648  33.773  52.192  0.00  0.00    -0.296 OA
ATOM     23  C   UNL d   1      50.959  34.011  51.816  0.00  0.00     0.185 C 
ENDBRANCH  20  22
ENDBRANCH   2  20
TORSDOF 3
ENDMDL
MODEL 7
REMARK VINA RESULT:      -7.6      1.234      3.162
REMARK  3 active torsions:
REMARK  status: ('A' for Active; 'I' for Inactive)
REMARK    1  A    between atoms: C_10  and  C_2 
REMARK    2  A    between atoms: C_13  and  C_6 
REMARK    3  A    between atoms: O_17  and  C_10 
ROOT
ATOM      1  C   UNL d   1      51.708  33.901  53.197  0.00  0.00     0.081 A 
ATOM      2  C   UNL d   1      52.811  33.034  53.422  0.00  0.00     0.106 A 
ATOM      3  C   UNL d   1      52.433  32.439  52.985  0.00  0.00     0.208 A 
ATOM      4  C   UNL d   1      51.331  33.316  52.765  0.00  0.00     0.108 A 
ATOM      5  C   UNL d   1      51.339  34.643  53.304  0.00  0.00     0.281 A 
ATOM      6  C   UNL d   1      52.445  33.764  53.525  0.00  0.00     0.015 A 
ATOM      7  O   UNL d   1      51.694  32.585  52.659  0.00  0.00    -0.288 OA
ATOM      8  N   UNL d   1      50.594  34.786  52.975  0.00  0.00    -0.208 NA
ATOM      9  C   UNL d   1      50.587  33.459  52.436  0.00  0.00     0.044 A 
ATOM     10  C   UNL d   1      50.218  34.187  52.537  0.00  0.00     0.087 A 
ATOM     11  O   UNL d   1      51.722  35.230  53.740  0.00  0.00    -0.265 OA
ATOM     12  N   UNL d   1      52.805  31.712  52.885  0.00  0.00    -0.121 N 
ATOM     13  C   UNL d   1      49.479  34.333  52.212  0.00  0.00     0.021 C 
ENDROOT
BRANCH   6  14
ATOM     14  C   UNL d   1      52.826  34.355  53.962  0.00  0.00     0.004 A 
ATOM     15  C   UNL d   1      53.244  34.951  53.562  0.00  0.00     0.021 A 
ATOM     16  C   UNL d   1      53.625  35.541  53.994  0.00  0.00     0.099 A 
ATOM     17  N   UNL d   1      53.590  35.537  54.823  0.00  0.00    -0.242 NA
ATOM     18  C   UNL d   1      53.168  34.934  55.218  0.00  0.00     0.099 A 
ATOM     19  C   UNL d   1      52.788  34.346  54.780  0.00  0.00     0.021 A 
ENDBRANCH   6  14
BRANCH   2  20
ATOM     20  C   UNL d   1      53.554  32.894  53.752  0.00  0.00     0.299 C 
ATOM     21  O   UNL d   1      53.625  32.653  54.538  0.00  0.00    -0.259 OA
BRANCH  20  22
ATOM     22  O   UNL d   1      54.241  32.997  53.287  0.00  0.00    -0.296 OA
ATOM     23  C   UNL d   1      54.916  32.570  53.470  0.00  0.00     0.185 C 
ENDBRANCH  20  22
ENDBRANCH   2  20
TORSDOF 3
ENDMDL
