MODEL 1
REMARK VINA RESULT:      -2.8      0.000      0.000
REMARK  8 active torsions:
REMARK  status: ('A' for Active; 'I' for Inactive)
REMARK    1  A    between atoms: C_7  and  C_3 
REMARK    2  A    between atoms: C_9  and  C_4 
REMARK    3  A    between atoms: O_13  and  C_7 
REMARK    4  A    between atoms: O_15  and  C_12 
REMARK    5  A    between atoms: C_26  and  O_13 
REMARK    6  A    between atoms: O_25  and  C_14 
REMARK    7  A    between atoms: C_16  and  O_15 
REMARK    8  A    between atoms: C_28  and  O_25 
ROOT
ATOM      1  N   UNL d   1      52.908  31.944  53.564  0.00  0.00    -0.254 N 
ATOM      2  C   UNL d   1      53.546  31.542  53.899  0.00  0.00     0.182 A 
ATOM      3  C   UNL d   1      53.236  33.103  54.325  0.00  0.00     0.097 A 
ATOM      4  C   UNL d   1      52.751  32.725  53.775  0.00  0.00     0.075 A 
ATOM      5  N   UNL d   1      54.028  31.923  54.447  0.00  0.00    -0.222 NA
ATOM      6  C   UNL d   1      53.875  32.705  54.662  0.00  0.00     0.090 A 
ATOM      7  C   UNL d   1      52.421  31.567  53.013  0.00  0.00     0.267 A 
ATOM      8  S   UNL d   1      53.698  30.769  53.687  0.00  0.00    -0.049 SA
ATOM      9  C   UNL d   1      52.583  30.783  52.805  0.00  0.00     0.068 A 
ATOM     10  O   UNL d   1      51.782  31.966  52.676  0.00  0.00    -0.267 OA
ATOM     11  C   UNL d   1      53.222  30.384  53.142  0.00  0.00     0.043 A 
ATOM     12  C   UNL d   1      54.355  33.083  55.208  0.00  0.00     0.021 C 
ENDROOT
BRANCH   4  13
ATOM     13  C   UNL d   1      52.113  33.123  53.438  0.00  0.00     0.019 A 
ATOM     14  C   UNL d   1      52.208  33.514  52.721  0.00  0.00     0.028 A 
ATOM     15  C   UNL d   1      51.569  33.913  52.384  0.00  0.00     0.123 A 
ATOM     16  C   UNL d   1      50.831  33.919  52.770  0.00  0.00     0.126 A 
ATOM     17  C   UNL d   1      50.741  33.523  53.493  0.00  0.00     0.027 A 
ATOM     18  C   UNL d   1      51.382  33.126  53.826  0.00  0.00     0.004 A 
BRANCH  15  19
ATOM     19  O   UNL d   1      51.660  34.305  51.666  0.00  0.00    -0.303 OA
BRANCH  19  20
ATOM     20  C   UNL d   1      52.413  34.506  51.397  0.00  0.00     0.123 C 
ATOM     21  C   UNL d   1      52.503  34.890  50.674  0.00  0.00     0.029 C 
ENDBRANCH  19  20
ENDBRANCH  15  19
BRANCH  16  22
ATOM     22  O   UNL d   1      50.190  34.317  52.436  0.00  0.00    -0.271 OA
BRANCH  22  23
ATOM     23  C   UNL d   1      49.680  34.749  52.913  0.00  0.00     0.300 C 
ATOM     24  O   UNL d   1      49.984  35.319  53.427  0.00  0.00    -0.259 OA
ATOM     25  C   UNL d   1      48.869  34.616  52.879  0.00  0.00     0.074 C 
ENDBRANCH  22  23
ENDBRANCH  16  22
ENDBRANCH   4  13
BRANCH   3  26
ATOM     26  C   UNL d   1      53.079  33.884  54.536  0.00  0.00     0.303 C 
ATOM     27  O   UNL d   1      52.433  34.068  55.015  0.00  0.00    -0.259 OA
BRANCH  26  28
ATOM     28  O   UNL d   1      53.576  34.486  54.262  0.00  0.00    -0.273 OA
BRANCH  28  29
ATOM     29  C   UNL d   1      53.535  35.241  54.600  0.00  0.00     0.103 C 
ATOM     30  C   UNL d   1      53.345  35.333  55.396  0.00  0.00     0.027 C 
ATOM     31  C   UNL d   1      53.687  35.906  54.136  0.00  0.00     0.027 C 
ENDBRANCH  28  29
ENDBRANCH  26  28
ENDBRANCH   3  26
TORSDOF 8
ENDMDL
MODEL 2
REMARK VINA RESULT:      -2.6      1.738      3.503
REMARK  8 active torsions:
REMARK  status: ('A' for Active; 'I' for Inactive)
REMARK    1  A    between atoms: C_7  and  C_3 
REMARK    2  A    between atoms: C_9  and  C_4 
REMARK    3  A    between atoms: O_13  and  C_7 
REMARK    4  A    between atoms: O_15  and  C_12 
REMARK    5  A    between atoms: C_26  and  O_13 
REMARK    6  A    between atoms: O_25  and  C_14 
REMARK    7  A    between atoms: C_16  and  O_15 
REMARK    8  A    between atoms: C_28  and  O_25 
ROOT
ATOM      1  N   UNL d   1      52.118  33.809  53.172  0.00  0.00    -0.254 N 
ATOM      2  C   UNL d   1      51.830  34.582  53.205  0.00  0.00     0.182 A 
ATOM      3  C   UNL d   1      52.966  34.075  54.286  0.00  0.00     0.097 A 
ATOM      4  C   UNL d   1      52.685  33.554  53.711  0.00  0.00     0.075 A 
ATOM      5  N   UNL d   1      52.112  35.099  53.780  0.00  0.00    -0.222 NA
ATOM      6  C   UNL d   1      52.681  34.848  54.322  0.00  0.00     0.090 A 
ATOM      7  C   UNL d   1      51.838  33.285  52.597  0.00  0.00     0.267 A 
ATOM      8  S   UNL d   1      51.268  34.832  52.670  0.00  0.00    -0.049 SA
ATOM      9  C   UNL d   1      51.267  33.548  52.059  0.00  0.00     0.068 A 
ATOM     10  O   UNL d   1      52.123  32.512  52.561  0.00  0.00    -0.267 OA
ATOM     11  C   UNL d   1      50.982  34.321  52.095  0.00  0.00     0.043 A 
ATOM     12  C   UNL d   1      52.961  35.364  54.894  0.00  0.00     0.021 C 
ENDROOT
BRANCH   4  13
ATOM     13  C   UNL d   1      52.971  32.780  53.675  0.00  0.00     0.019 A 
ATOM     14  C   UNL d   1      53.681  32.625  53.292  0.00  0.00     0.028 A 
ATOM     15  C   UNL d   1      53.966  31.852  53.255  0.00  0.00     0.123 A 
ATOM     16  C   UNL d   1      53.535  31.231  53.606  0.00  0.00     0.126 A 
ATOM     17  C   UNL d   1      52.818  31.394  53.991  0.00  0.00     0.027 A 
ATOM     18  C   UNL d   1      52.537  32.169  54.025  0.00  0.00     0.004 A 
BRANCH  15  19
ATOM     19  O   UNL d   1      54.677  31.691  52.872  0.00  0.00    -0.303 OA
BRANCH  19  20
ATOM     20  C   UNL d   1      55.121  32.307  52.550  0.00  0.00     0.123 C 
ATOM     21  C   UNL d   1      55.939  32.234  52.483  0.00  0.00     0.029 C 
ENDBRANCH  19  20
ENDBRANCH  15  19
BRANCH  16  22
ATOM     22  O   UNL d   1      53.817  30.457  53.571  0.00  0.00    -0.271 OA
BRANCH  22  23
ATOM     23  C   UNL d   1      53.319  29.829  53.754  0.00  0.00     0.300 C 
ATOM     24  O   UNL d   1      52.758  29.578  53.204  0.00  0.00    -0.259 OA
ATOM     25  C   UNL d   1      53.379  29.453  54.483  0.00  0.00     0.074 C 
ENDBRANCH  22  23
ENDBRANCH  16  22
ENDBRANCH   4  13
BRANCH   3  26
ATOM     26  C   UNL d   1      53.534  33.819  54.825  0.00  0.00     0.303 C 
ATOM     27  O   UNL d   1      53.341  33.272  55.411  0.00  0.00    -0.259 OA
BRANCH  26  28
ATOM     28  O   UNL d   1      54.305  34.115  54.772  0.00  0.00    -0.273 OA
BRANCH  28  29
ATOM     29  C   UNL d   1      54.839  33.987  55.392  0.00  0.00     0.103 C 
ATOM     30  C   UNL d   1      55.645  34.119  55.283  0.00  0.00     0.027 C 
ATOM     31  C   UNL d   1      54.563  33.725  56.124  0.00  0.00     0.027 C 
ENDBRANCH  28  29
ENDBRANCH  26  28
ENDBRANCH   3  26
TORSDOF 8
ENDMDL
MODEL 3
REMARK VINA RESULT:      -2.3      1.541      3.410
REMARK  8 active torsions:
REMARK  status: ('A' for Active; 'I' for Inactive)
REMARK    1  A    between atoms: C_7  and  C_3 
REMARK    2  A    between atoms: C_9  and  C_4 
REMARK    3  A    between atoms: O_13  and  C_7 
REMARK    4  A    between atoms: O_15  and  C_12 
REMARK    5  A    between atoms: C_26  and  O_13 
REMARK    6  A    between atoms: O_25  and  C_14 
REMARK    7  A    between atoms: C_16  and  O_15 
REMARK    8  A    between atoms: C_28  and  O_25 
ROOT
ATOM      1  N   UNL d   1      52.994  31.069  53.596  0.00  0.00    -0.254 N 
ATOM      2  C   UNL d   1      52.396  30.629  53.237  0.00  0.00     0.182 A 
ATOM      3  C   UNL d   1      52.264  32.267  53.346  0.00  0.00     0.097 A 
ATOM      4  C   UNL d   1      52.930  31.889  53.652  0.00  0.00     0.075 A 
ATOM      5  N   UNL d   1      51.733  31.010  52.933  0.00  0.00    -0.222 NA
ATOM      6  C   UNL d   1      51.664  31.830  52.986  0.00  0.00     0.090 A 
ATOM      7  C   UNL d   1      53.662  30.692  53.904  0.00  0.00     0.267 A 
ATOM      8  S   UNL d   1      52.462  29.818  53.184  0.00  0.00    -0.049 SA
ATOM      9  C   UNL d   1      53.720  29.869  53.844  0.00  0.00     0.068 A 
ATOM     10  O   UNL d   1      54.262  31.129  54.263  0.00  0.00    -0.267 OA
ATOM     11  C   UNL d   1      53.120  29.432  53.485  0.00  0.00     0.043 A 
ATOM     12  C   UNL d   1      51.003  32.209  52.683  0.00  0.00     0.021 C 
ENDROOT
BRANCH   4  13
ATOM     13  C   UNL d   1      53.530  32.326  54.012  0.00  0.00     0.019 A 
ATOM     14  C   UNL d   1      54.187  32.553  53.575  0.00  0.00     0.028 A 
ATOM     15  C   UNL d   1      54.787  32.991  53.935  0.00  0.00     0.123 A 
ATOM     16  C   UNL d   1      54.726  33.200  54.739  0.00  0.00     0.126 A 
ATOM     17  C   UNL d   1      54.060  32.968  55.175  0.00  0.00     0.027 A 
ATOM     18  C   UNL d   1      53.463  32.531  54.811  0.00  0.00     0.004 A 
BRANCH  15  19
ATOM     19  O   UNL d   1      55.448  33.221  53.501  0.00  0.00    -0.303 OA
BRANCH  19  20
ATOM     20  C   UNL d   1      55.517  33.007  52.707  0.00  0.00     0.123 C 
ATOM     21  C   UNL d   1      55.937  33.487  52.186  0.00  0.00     0.029 C 
ENDBRANCH  19  20
ENDBRANCH  15  19
BRANCH  16  22
ATOM     22  O   UNL d   1      55.324  33.637  55.102  0.00  0.00    -0.271 OA
BRANCH  22  23
ATOM     23  C   UNL d   1      55.149  34.119  55.744  0.00  0.00     0.300 C 
ATOM     24  O   UNL d   1      55.291  33.848  56.510  0.00  0.00    -0.259 OA
ATOM     25  C   UNL d   1      54.834  34.869  55.624  0.00  0.00     0.074 C 
ENDBRANCH  22  23
ENDBRANCH  16  22
ENDBRANCH   4  13
BRANCH   3  26
ATOM     26  C   UNL d   1      52.201  33.087  53.402  0.00  0.00     0.303 C 
ATOM     27  O   UNL d   1      51.963  33.443  54.107  0.00  0.00    -0.259 OA
BRANCH  26  28
ATOM     28  O   UNL d   1      52.379  33.553  52.742  0.00  0.00    -0.273 OA
BRANCH  28  29
ATOM     29  C   UNL d   1      51.993  34.278  52.632  0.00  0.00     0.103 C 
ATOM     30  C   UNL d   1      51.881  34.792  53.265  0.00  0.00     0.027 C 
ATOM     31  C   UNL d   1      51.719  34.486  51.882  0.00  0.00     0.027 C 
ENDBRANCH  28  29
ENDBRANCH  26  28
ENDBRANCH   3  26
TORSDOF 8
ENDMDL
MODEL 4
REMARK VINA RESULT:      -2.2      1.692      3.973
REMARK  8 active torsions:
REMARK  status: ('A' for Active; 'I' for Inactive)
REMARK    1  A    between atoms: C_7  and  C_3 
REMARK    2  A    between atoms: C_9  and  C_4 
REMARK    3  A    between atoms: O_13  and  C_7 
REMARK    4  A    between atoms: O_15  and  C_12 
REMARK    5  A    between atoms: C_26  and  O_13 
REMARK    6  A    between atoms: O_25  and  C_14 
REMARK    7  A    between atoms: C_16  and  O_15 
REMARK    8  A    between atoms: C_28  and  O_25 
ROOT
ATOM      1  N   UNL d   1      54.147  33.710  54.528  0.00  0.00    -0.254 N 
ATOM      2  C   UNL d   1      54.153  34.496  54.776  0.00  0.00     0.182 A 
ATOM      3  C   UNL d   1      52.812  33.868  54.055  0.00  0.00     0.097 A 
ATOM      4  C   UNL d   1      53.478  33.393  54.167  0.00  0.00     0.075 A 
ATOM      5  N   UNL d   1      53.488  34.967  54.663  0.00  0.00    -0.222 NA
ATOM      6  C   UNL d   1      52.815  34.655  54.302  0.00  0.00     0.090 A 
ATOM      7  C   UNL d   1      54.812  33.232  54.640  0.00  0.00     0.267 A 
ATOM      8  S   UNL d   1      54.818  34.807  55.133  0.00  0.00    -0.049 SA
ATOM      9  C   UNL d   1      55.482  33.556  55.003  0.00  0.00     0.068 A 
ATOM     10  O   UNL d   1      54.810  32.445  54.393  0.00  0.00    -0.267 OA
ATOM     11  C   UNL d   1      55.484  34.343  55.250  0.00  0.00     0.043 A 
ATOM     12  C   UNL d   1      52.152  35.125  54.188  0.00  0.00     0.021 C 
ENDROOT
BRANCH   4  13
ATOM     13  C   UNL d   1      53.475  32.606  53.921  0.00  0.00     0.019 A 
ATOM     14  C   UNL d   1      53.273  32.013  54.452  0.00  0.00     0.028 A 
ATOM     15  C   UNL d   1      53.270  31.226  54.205  0.00  0.00     0.123 A 
ATOM     16  C   UNL d   1      53.472  31.034  53.420  0.00  0.00     0.126 A 
ATOM     17  C   UNL d   1      53.675  31.637  52.888  0.00  0.00     0.027 A 
ATOM     18  C   UNL d   1      53.676  32.423  53.139  0.00  0.00     0.004 A 
BRANCH  15  19
ATOM     19  O   UNL d   1      53.068  30.628  54.734  0.00  0.00    -0.303 OA
BRANCH  19  20
ATOM     20  C   UNL d   1      53.448  30.575  55.464  0.00  0.00     0.123 C 
ATOM     21  C   UNL d   1      53.313  29.926  55.953  0.00  0.00     0.029 C 
ENDBRANCH  19  20
ENDBRANCH  15  19
BRANCH  16  22
ATOM     22  O   UNL d   1      53.470  30.248  53.169  0.00  0.00    -0.271 OA
BRANCH  22  23
ATOM     23  C   UNL d   1      53.014  30.023  52.524  0.00  0.00     0.300 C 
ATOM     24  O   UNL d   1      53.158  30.359  51.784  0.00  0.00    -0.259 OA
ATOM     25  C   UNL d   1      52.417  29.464  52.614  0.00  0.00     0.074 C 
ENDBRANCH  22  23
ENDBRANCH  16  22
ENDBRANCH   4  13
BRANCH   3  26
ATOM     26  C   UNL d   1      52.143  33.551  53.694  0.00  0.00     0.303 C 
ATOM     27  O   UNL d   1      51.597  33.113  54.131  0.00  0.00    -0.259 OA
BRANCH  26  28
ATOM     28  O   UNL d   1      52.022  33.675  52.885  0.00  0.00    -0.273 OA
BRANCH  28  29
ATOM     29  C   UNL d   1      51.252  33.748  52.589  0.00  0.00     0.103 C 
ATOM     30  C   UNL d   1      50.612  33.442  53.008  0.00  0.00     0.027 C 
ATOM     31  C   UNL d   1      51.124  34.130  51.869  0.00  0.00     0.027 C 
ENDBRANCH  28  29
ENDBRANCH  26  28
ENDBRANCH   3  26
TORSDOF 8
ENDMDL
MODEL 5
REMARK VINA RESULT:      -1.5      1.185      3.072
REMARK  8 active torsions:
REMARK  status: ('A' for Active; 'I' for Inactive)
REMARK    1  A    between atoms: C_7  and  C_3 
REMARK    2  A    between atoms: C_9  and  C_4 
REMARK    3  A    between atoms: O_13  and  C_7 
REMARK    4  A    between atoms: O_15  and  C_12 
REMARK    5  A    between atoms: C_26  and  O_13 
REMARK    6  A    between atoms: O_25  and  C_14 
REMARK    7  A    between atoms: C_16  and  O_15 
REMARK    8  A    between atoms: C_28  and  O_25 
ROOT
ATOM      1  N   UNL d   1      53.471  33.748  54.220  0.00  0.00    -0.254 N 
ATOM      2  C   UNL d   1      54.096  33.459  54.674  0.00  0.00     0.182 A 
ATOM      3  C   UNL d   1      53.255  32.446  53.684  0.00  0.00     0.097 A 
ATOM      4  C   UNL d   1      53.049  33.244  53.725  0.00  0.00     0.075 A 
ATOM      5  N   UNL d   1      54.299  32.662  54.632  0.00  0.00    -0.222 NA
ATOM      6  C   UNL d   1      53.879  32.153  54.137  0.00  0.00     0.090 A 
ATOM      7  C   UNL d   1      53.264  34.547  54.259  0.00  0.00     0.267 A 
ATOM      8  S   UNL d   1      54.512  33.961  55.164  0.00  0.00    -0.049 SA
ATOM      9  C   UNL d   1      53.692  35.049  54.759  0.00  0.00     0.068 A 
ATOM     10  O   UNL d   1      52.639  34.841  53.807  0.00  0.00    -0.267 OA
ATOM     11  C   UNL d   1      54.316  34.755  55.212  0.00  0.00     0.043 A 
ATOM     12  C   UNL d   1      54.081  31.359  54.094  0.00  0.00     0.021 C 
ENDROOT
BRANCH   4  13
ATOM     13  C   UNL d   1      52.425  33.537  53.272  0.00  0.00     0.019 A 
ATOM     14  C   UNL d   1      51.667  33.561  53.589  0.00  0.00     0.028 A 
ATOM     15  C   UNL d   1      51.043  33.855  53.137  0.00  0.00     0.123 A 
ATOM     16  C   UNL d   1      51.181  34.126  52.361  0.00  0.00     0.126 A 
ATOM     17  C   UNL d   1      51.948  34.099  52.046  0.00  0.00     0.027 A 
ATOM     18  C   UNL d   1      52.569  33.805  52.503  0.00  0.00     0.004 A 
BRANCH  15  19
ATOM     19  O   UNL d   1      50.282  33.880  53.450  0.00  0.00    -0.303 OA
BRANCH  19  20
ATOM     20  C   UNL d   1      50.059  34.501  53.945  0.00  0.00     0.123 C 
ATOM     21  C   UNL d   1      49.272  34.586  54.170  0.00  0.00     0.029 C 
ENDBRANCH  19  20
ENDBRANCH  15  19
BRANCH  16  22
ATOM     22  O   UNL d   1      50.559  34.420  51.906  0.00  0.00    -0.271 OA
BRANCH  22  23
ATOM     23  C   UNL d   1      50.577  34.344  51.088  0.00  0.00     0.300 C 
ATOM     24  O   UNL d   1      51.292  34.420  50.685  0.00  0.00    -0.259 OA
ATOM     25  C   UNL d   1      49.883  34.193  50.672  0.00  0.00     0.074 C 
ENDBRANCH  22  23
ENDBRANCH  16  22
ENDBRANCH   4  13
BRANCH   3  26
ATOM     26  C   UNL d   1      52.832  31.942  53.188  0.00  0.00     0.303 C 
ATOM     27  O   UNL d   1      52.945  31.964  52.371  0.00  0.00    -0.259 OA
BRANCH  26  28
ATOM     28  O   UNL d   1      52.289  31.411  53.517  0.00  0.00    -0.273 OA
BRANCH  28  29
ATOM     29  C   UNL d   1      52.138  30.689  53.140  0.00  0.00     0.103 C 
ATOM     30  C   UNL d   1      52.662  30.394  52.577  0.00  0.00     0.027 C 
ATOM     31  C   UNL d   1      51.459  30.262  53.330  0.00  0.00     0.027 C 
ENDBRANCH  28  29
ENDBRANCH  26  28
ENDBRANCH   3  26
TORSDOF 8
ENDMDL
MODEL 6
REMARK VINA RESULT:      -1.0      1.785      4.105
REMARK  8 active torsions:
REMARK  status: ('A' for Active; 'I' for Inactive)
REMARK    1  A    between atoms: C_7  and  C_3 
REMARK    2  A    between atoms: C_9  and  C_4 
REMARK    3  A    between atoms: O_13  and  C_7 
REMARK    4  A    between atoms: O_15  and  C_12 
REMARK    5  A    between atoms: C_26  and  O_13 
REMARK    6  A    between atoms: O_25  and  C_14 
REMARK    7  A    between atoms: C_16  and  O_15 
REMARK    8  A    between atoms: C_28  and  O_25 
ROOT
ATOM      1  N   UNL d   1      52.050  33.254  53.245  0.00  0.00    -0.254 N 
ATOM      2  C   UNL d   1      51.335  33.061  52.881  0.00  0.00     0.182 A 
ATOM      3  C   UNL d   1      52.313  31.871  53.467  0.00  0.00     0.097 A 
ATOM      4  C   UNL d   1      52.540  32.661  53.538  0.00  0.00     0.075 A 
ATOM      5  N   UNL d   1      51.111  32.271  52.811  0.00  0.00    -0.222 NA
ATOM      6  C   UNL d   1      51.599  31.674  53.104  0.00  0.00     0.090 A 
ATOM      7  C   UNL d   1      52.280  34.045  53.317  0.00  0.00     0.267 A 
ATOM      8  S   UNL d   1      50.852  33.650  52.591  0.00  0.00    -0.049 SA
ATOM      9  C   UNL d   1      51.782  34.635  53.020  0.00  0.00     0.068 A 
ATOM     10  O   UNL d   1      52.994  34.242  53.680  0.00  0.00    -0.267 OA
ATOM     11  C   UNL d   1      51.068  34.438  52.657  0.00  0.00     0.043 A 
ATOM     12  C   UNL d   1      51.375  30.888  53.034  0.00  0.00     0.021 C 
ENDROOT
BRANCH   4  13
ATOM     13  C   UNL d   1      53.255  32.858  53.901  0.00  0.00     0.019 A 
ATOM     14  C   UNL d   1      53.950  32.851  53.464  0.00  0.00     0.028 A 
ATOM     15  C   UNL d   1      54.664  33.048  53.827  0.00  0.00     0.123 A 
ATOM     16  C   UNL d   1      54.679  33.254  54.634  0.00  0.00     0.126 A 
ATOM     17  C   UNL d   1      53.974  33.260  55.070  0.00  0.00     0.027 A 
ATOM     18  C   UNL d   1      53.262  33.062  54.703  0.00  0.00     0.004 A 
BRANCH  15  19
ATOM     19  O   UNL d   1      55.364  33.042  53.393  0.00  0.00    -0.303 OA
BRANCH  19  20
ATOM     20  C   UNL d   1      55.339  33.059  52.569  0.00  0.00     0.123 C 
ATOM     21  C   UNL d   1      55.939  33.433  52.146  0.00  0.00     0.029 C 
ENDBRANCH  19  20
ENDBRANCH  15  19
BRANCH  16  22
ATOM     22  O   UNL d   1      55.391  33.452  55.000  0.00  0.00    -0.271 OA
BRANCH  22  23
ATOM     23  C   UNL d   1      55.394  33.958  55.648  0.00  0.00     0.300 C 
ATOM     24  O   UNL d   1      55.575  34.756  55.543  0.00  0.00    -0.259 OA
ATOM     25  C   UNL d   1      55.218  33.670  56.398  0.00  0.00     0.074 C 
ENDBRANCH  22  23
ENDBRANCH  16  22
ENDBRANCH   4  13
BRANCH   3  26
ATOM     26  C   UNL d   1      52.805  31.279  53.761  0.00  0.00     0.303 C 
ATOM     27  O   UNL d   1      52.973  31.234  54.567  0.00  0.00    -0.259 OA
BRANCH  26  28
ATOM     28  O   UNL d   1      53.130  30.726  53.238  0.00  0.00    -0.273 OA
BRANCH  28  29
ATOM     29  C   UNL d   1      53.466  30.028  53.532  0.00  0.00     0.103 C 
ATOM     30  C   UNL d   1      54.167  29.736  53.213  0.00  0.00     0.027 C 
ATOM     31  C   UNL d   1      53.097  29.623  54.149  0.00  0.00     0.027 C 
ENDBRANCH  28  29
ENDBRANCH  26  28
ENDBRANCH   3  26
TORSDOF 8
ENDMDL
