MODEL 1
REMARK VINA RESULT:      -2.8      0.000      0.000
REMARK  6 active torsions:
REMARK  status: ('A' for Active; 'I' for Inactive)
REMARK    1  A    between atoms: C_2  and  C_1 
REMARK       I    between atoms: N_3  and  C_2 
REMARK    2  A    between atoms: C_24  and  N_3 
REMARK    3  A    between atoms: C_4  and  C_10 
REMARK    4  A    between atoms: C_9  and  C_4 
REMARK    5  A    between atoms: C_8  and  C_9 
REMARK    6  A    between atoms: C_10  and  C_15 
ROOT
ATOM      1  C   UNL d   1      31.882  17.060 -24.065  0.00  0.00     0.039 A 
ATOM      2  C   UNL d   1      30.554  16.089 -24.279  0.00  0.00     0.084 A 
ATOM      3  C   UNL d   1      31.464  16.740 -23.382  0.00  0.00     0.005 A 
ATOM      4  C   UNL d   1      31.618  16.880 -24.812  0.00  0.00     0.005 A 
ATOM      5  C   UNL d   1      30.820  16.269 -23.500  0.00  0.00     0.019 A 
ATOM      6  C   UNL d   1      30.973  16.409 -24.925  0.00  0.00     0.019 A 
ENDROOT
BRANCH   2   7
ATOM      7  N   UNL d   1      29.911  15.619 -24.398  0.00  0.00    -0.212 NA
ATOM      8  C   UNL d   1      29.166  15.930 -24.464  0.00  0.00     0.259 C 
ATOM      9  O   UNL d   1      28.494  15.454 -24.587  0.00  0.00    -0.270 OA
BRANCH   8  10
ATOM     10  C   UNL d   1      29.057  16.747 -24.408  0.00  0.00     0.092 A 
ATOM     11  C   UNL d   1      29.123  17.490 -24.758  0.00  0.00     0.017 A 
ATOM     12  C   UNL d   1      28.887  18.115 -24.344  0.00  0.00     0.023 A 
ATOM     13  C   UNL d   1      29.197  17.823 -25.023  0.00  0.00    -0.027 A 
ATOM     14  C   UNL d   1      28.582  18.026 -23.579  0.00  0.00     0.009 A 
ATOM     15  C   UNL d   1      29.131  17.079 -24.672  0.00  0.00    -0.012 A 
ATOM     16  C   UNL d   1      29.371  16.426 -25.088  0.00  0.00    -0.018 A 
ATOM     17  C   UNL d   1      28.823  17.017 -23.908  0.00  0.00    -0.027 A 
ATOM     18  C   UNL d   1      28.532  17.335 -23.281  0.00  0.00     0.023 A 
ATOM     19  C   UNL d   1      28.750  16.685 -23.645  0.00  0.00     0.017 A 
ENDBRANCH   8  10
ENDBRANCH   2   7
BRANCH   1  20
ATOM     20  C   UNL d   1      32.544  17.543 -23.935  0.00  0.00     0.196 C 
ATOM     21  O   UNL d   1      33.167  17.237 -23.530  0.00  0.00    -0.287 OA
BRANCH  20  22
ATOM     22  C   UNL d   1      32.555  18.317 -24.217  0.00  0.00     0.044 C 
BRANCH  22  23
ATOM     23  C   UNL d   1      33.068  18.875 -23.883  0.00  0.00     0.028 C 
BRANCH  23  24
ATOM     24  C   UNL d   1      33.131  19.628 -24.217  0.00  0.00     0.100 A 
ATOM     25  O   UNL d   1      33.163  19.821 -25.006  0.00  0.00    -0.305 OA
ATOM     26  C   UNL d   1      33.224  20.619 -25.088  0.00  0.00     0.123 A 
ATOM     27  C   UNL d   1      33.231  20.951 -24.333  0.00  0.00     0.029 A 
ATOM     28  C   UNL d   1      33.172  20.331 -23.775  0.00  0.00     0.027 A 
ENDBRANCH  23  24
ENDBRANCH  22  23
ENDBRANCH  20  22
ENDBRANCH   1  20
TORSDOF 6
ENDMDL
MODEL 2
REMARK VINA RESULT:      -2.7      1.838      3.009
REMARK  6 active torsions:
REMARK  status: ('A' for Active; 'I' for Inactive)
REMARK    1  A    between atoms: C_2  and  C_1 
REMARK       I    between atoms: N_3  and  C_2 
REMARK    2  A    between atoms: C_24  and  N_3 
REMARK    3  A    between atoms: C_4  and  C_10 
REMARK    4  A    between atoms: C_9  and  C_4 
REMARK    5  A    between atoms: C_8  and  C_9 
REMARK    6  A    between atoms: C_10  and  C_15 
ROOT
ATOM      1  C   UNL d   1      33.068  18.960 -23.480  0.00  0.00     0.039 A 
ATOM      2  C   UNL d   1      33.135  17.405 -24.053  0.00  0.00     0.084 A 
ATOM      3  C   UNL d   1      33.065  18.810 -24.330  0.00  0.00     0.005 A 
ATOM      4  C   UNL d   1      33.104  18.333 -22.966  0.00  0.00     0.005 A 
ATOM      5  C   UNL d   1      33.098  18.049 -24.594  0.00  0.00     0.019 A 
ATOM      6  C   UNL d   1      33.136  17.573 -23.236  0.00  0.00     0.019 A 
ENDROOT
BRANCH   2   7
ATOM      7  N   UNL d   1      33.168  16.644 -24.317  0.00  0.00    -0.212 NA
ATOM      8  C   UNL d   1      32.498  16.239 -24.522  0.00  0.00     0.259 C 
ATOM      9  O   UNL d   1      32.520  15.453 -24.796  0.00  0.00    -0.270 OA
BRANCH   8  10
ATOM     10  C   UNL d   1      31.761  16.608 -24.463  0.00  0.00     0.092 A 
ATOM     11  C   UNL d   1      31.211  17.134 -24.779  0.00  0.00     0.017 A 
ATOM     12  C   UNL d   1      30.536  17.239 -24.390  0.00  0.00     0.023 A 
ATOM     13  C   UNL d   1      30.998  17.421 -25.020  0.00  0.00    -0.027 A 
ATOM     14  C   UNL d   1      30.385  16.832 -23.685  0.00  0.00     0.009 A 
ATOM     15  C   UNL d   1      31.548  16.894 -24.703  0.00  0.00    -0.012 A 
ATOM     16  C   UNL d   1      32.249  16.775 -25.094  0.00  0.00    -0.018 A 
ATOM     17  C   UNL d   1      31.373  16.500 -23.999  0.00  0.00    -0.027 A 
ATOM     18  C   UNL d   1      30.905  16.356 -23.417  0.00  0.00     0.023 A 
ATOM     19  C   UNL d   1      31.587  16.214 -23.759  0.00  0.00     0.017 A 
ENDBRANCH   8  10
ENDBRANCH   2   7
BRANCH   1  20
ATOM     20  C   UNL d   1      33.033  19.746 -23.216  0.00  0.00     0.196 C 
ATOM     21  O   UNL d   1      32.988  20.332 -23.764  0.00  0.00    -0.287 OA
BRANCH  20  22
ATOM     22  C   UNL d   1      33.046  19.914 -22.410  0.00  0.00     0.044 C 
BRANCH  22  23
ATOM     23  C   UNL d   1      33.241  20.674 -22.145  0.00  0.00     0.028 C 
BRANCH  23  24
ATOM     24  C   UNL d   1      33.052  20.903 -21.374  0.00  0.00     0.100 A 
ATOM     25  O   UNL d   1      33.236  20.518 -20.682  0.00  0.00    -0.305 OA
ATOM     26  C   UNL d   1      32.945  20.932 -20.056  0.00  0.00     0.123 A 
ATOM     27  C   UNL d   1      32.563  21.601 -20.351  0.00  0.00     0.029 A 
ATOM     28  C   UNL d   1      32.626  21.591 -21.184  0.00  0.00     0.027 A 
ENDBRANCH  23  24
ENDBRANCH  22  23
ENDBRANCH  20  22
ENDBRANCH   1  20
TORSDOF 6
ENDMDL
MODEL 3
REMARK VINA RESULT:      -2.5      1.702      2.667
REMARK  6 active torsions:
REMARK  status: ('A' for Active; 'I' for Inactive)
REMARK    1  A    between atoms: C_2  and  C_1 
REMARK       I    between atoms: N_3  and  C_2 
REMARK    2  A    between atoms: C_24  and  N_3 
REMARK    3  A    between atoms: C_4  and  C_10 
REMARK    4  A    between atoms: C_9  and  C_4 
REMARK    5  A    between atoms: C_8  and  C_9 
REMARK    6  A    between atoms: C_10  and  C_15 
ROOT
ATOM      1  C   UNL d   1      33.034  18.891 -22.933  0.00  0.00     0.039 A 
ATOM      2  C   UNL d   1      33.088  17.500 -23.833  0.00  0.00     0.084 A 
ATOM      3  C   UNL d   1      32.892  18.127 -22.559  0.00  0.00     0.005 A 
ATOM      4  C   UNL d   1      33.193  18.921 -23.728  0.00  0.00     0.005 A 
ATOM      5  C   UNL d   1      32.922  17.459 -23.009  0.00  0.00     0.019 A 
ATOM      6  C   UNL d   1      33.222  18.249 -24.173  0.00  0.00     0.019 A 
ENDROOT
BRANCH   2   7
ATOM      7  N   UNL d   1      33.118  16.832 -24.284  0.00  0.00    -0.212 NA
ATOM      8  C   UNL d   1      32.452  16.521 -24.623  0.00  0.00     0.259 C 
ATOM      9  O   UNL d   1      32.470  15.832 -25.090  0.00  0.00    -0.270 OA
BRANCH   8  10
ATOM     10  C   UNL d   1      31.722  16.892 -24.509  0.00  0.00     0.092 A 
ATOM     11  C   UNL d   1      31.212  17.512 -24.693  0.00  0.00     0.017 A 
ATOM     12  C   UNL d   1      30.512  17.533 -24.338  0.00  0.00     0.023 A 
ATOM     13  C   UNL d   1      31.026  17.867 -24.855  0.00  0.00    -0.027 A 
ATOM     14  C   UNL d   1      30.296  16.948 -23.793  0.00  0.00     0.009 A 
ATOM     15  C   UNL d   1      31.535  17.245 -24.669  0.00  0.00    -0.012 A 
ATOM     16  C   UNL d   1      32.262  17.211 -25.029  0.00  0.00    -0.018 A 
ATOM     17  C   UNL d   1      31.296  16.674 -24.122  0.00  0.00    -0.027 A 
ATOM     18  C   UNL d   1      30.780  16.390 -23.641  0.00  0.00     0.023 A 
ATOM     19  C   UNL d   1      31.483  16.321 -23.962  0.00  0.00     0.017 A 
ENDBRANCH   8  10
ENDBRANCH   2   7
BRANCH   1  20
ATOM     20  C   UNL d   1      33.001  19.575 -22.463  0.00  0.00     0.196 C 
ATOM     21  O   UNL d   1      32.964  19.488 -21.664  0.00  0.00    -0.287 OA
BRANCH  20  22
ATOM     22  C   UNL d   1      33.008  20.320 -22.813  0.00  0.00     0.044 C 
BRANCH  22  23
ATOM     23  C   UNL d   1      33.236  20.985 -22.374  0.00  0.00     0.028 C 
BRANCH  23  24
ATOM     24  C   UNL d   1      33.227  21.733 -22.726  0.00  0.00     0.100 A 
ATOM     25  O   UNL d   1      33.239  21.910 -23.519  0.00  0.00    -0.305 OA
ATOM     26  C   UNL d   1      33.224  22.708 -23.618  0.00  0.00     0.123 A 
ATOM     27  C   UNL d   1      33.201  23.056 -22.871  0.00  0.00     0.029 A 
ATOM     28  C   UNL d   1      33.202  22.446 -22.300  0.00  0.00     0.027 A 
ENDBRANCH  23  24
ENDBRANCH  22  23
ENDBRANCH  20  22
ENDBRANCH   1  20
TORSDOF 6
ENDMDL
