MODEL 1
REMARK VINA RESULT:      -2.6      0.000      0.000
REMARK  4 active torsions:
REMARK  status: ('A' for Active; 'I' for Inactive)
REMARK    1  A    between atoms: N_3  and  C_1 
REMARK       I    between atoms: C_5  and  N_3 
REMARK    2  A    between atoms: C_7  and  C_5 
REMARK    3  A    between atoms: C_9  and  C_12 
REMARK    4  A    between atoms: O_18  and  C_9 
ROOT
ATOM      1  C   UNL d   1      29.951  16.083 -24.595  0.00  0.00     0.197 A 
ATOM      2  N   UNL d   1      30.582  15.612 -24.316  0.00  0.00    -0.221 NA
ATOM      3  S   UNL d   1      30.173  16.872 -24.518  0.00  0.00    -0.047 SA
ATOM      4  C   UNL d   1      30.935  16.905 -24.195  0.00  0.00     0.050 A 
ATOM      5  C   UNL d   1      31.189  16.120 -24.069  0.00  0.00     0.090 A 
ATOM      6  C   UNL d   1      32.167  17.387 -23.681  0.00  0.00     0.064 A 
ATOM      7  C   UNL d   1      31.429  17.536 -23.999  0.00  0.00     0.013 A 
ATOM      8  C   UNL d   1      31.932  15.982 -23.749  0.00  0.00     0.020 A 
ATOM      9  C   UNL d   1      32.421  16.602 -23.555  0.00  0.00     0.007 A 
ENDROOT
BRANCH   1  10
ATOM     10  N   UNL d   1      29.233  15.802 -24.894  0.00  0.00    -0.183 NA
ATOM     11  C   UNL d   1      28.578  15.732 -24.398  0.00  0.00     0.281 C 
ATOM     12  O   UNL d   1      27.864  15.453 -24.696  0.00  0.00    -0.265 OA
BRANCH  11  13
ATOM     13  C   UNL d   1      28.640  15.942 -23.603  0.00  0.00     0.058 A 
ATOM     14  C   UNL d   1      28.568  16.505 -23.004  0.00  0.00     0.005 A 
ATOM     15  C   UNL d   1      28.819  15.742 -22.825  0.00  0.00     0.005 A 
ENDBRANCH  11  13
ENDBRANCH   1  10
BRANCH   6  16
ATOM     16  C   UNL d   1      32.672  18.009 -23.480  0.00  0.00     0.296 C 
ATOM     17  O   UNL d   1      33.240  18.271 -24.007  0.00  0.00    -0.259 OA
BRANCH  16  18
ATOM     18  O   UNL d   1      32.594  18.366 -22.734  0.00  0.00    -0.296 OA
ATOM     19  C   UNL d   1      33.131  18.943 -22.503  0.00  0.00     0.185 C 
ENDBRANCH  16  18
ENDBRANCH   6  16
TORSDOF 4
ENDMDL
MODEL 2
REMARK VINA RESULT:      -2.4      2.420      3.532
REMARK  4 active torsions:
REMARK  status: ('A' for Active; 'I' for Inactive)
REMARK    1  A    between atoms: N_3  and  C_1 
REMARK       I    between atoms: C_5  and  N_3 
REMARK    2  A    between atoms: C_7  and  C_5 
REMARK    3  A    between atoms: C_9  and  C_12 
REMARK    4  A    between atoms: O_18  and  C_9 
ROOT
ATOM      1  C   UNL d   1      33.080  17.715 -23.780  0.00  0.00     0.197 A 
ATOM      2  N   UNL d   1      33.211  18.442 -24.169  0.00  0.00    -0.221 NA
ATOM      3  S   UNL d   1      32.952  17.876 -22.983  0.00  0.00    -0.047 SA
ATOM      4  C   UNL d   1      33.001  18.694 -22.864  0.00  0.00     0.050 A 
ATOM      5  C   UNL d   1      33.162  19.046 -23.604  0.00  0.00     0.090 A 
ATOM      6  C   UNL d   1      33.003  19.974 -22.253  0.00  0.00     0.064 A 
ATOM      7  C   UNL d   1      32.922  19.164 -22.191  0.00  0.00     0.013 A 
ATOM      8  C   UNL d   1      33.241  19.862 -23.655  0.00  0.00     0.020 A 
ATOM      9  C   UNL d   1      33.164  20.327 -22.993  0.00  0.00     0.007 A 
ENDROOT
BRANCH   1  10
ATOM     10  N   UNL d   1      33.079  16.968 -24.136  0.00  0.00    -0.183 NA
ATOM     11  C   UNL d   1      32.381  16.662 -24.453  0.00  0.00     0.281 C 
ATOM     12  O   UNL d   1      32.381  15.920 -24.807  0.00  0.00    -0.265 OA
BRANCH  11  13
ATOM     13  C   UNL d   1      31.684  17.102 -24.413  0.00  0.00     0.058 A 
ATOM     14  C   UNL d   1      30.997  17.319 -24.011  0.00  0.00     0.005 A 
ATOM     15  C   UNL d   1      31.165  17.646 -24.747  0.00  0.00     0.005 A 
ENDBRANCH  11  13
ENDBRANCH   1  10
BRANCH   6  16
ATOM     16  C   UNL d   1      32.926  20.457 -21.587  0.00  0.00     0.296 C 
ATOM     17  O   UNL d   1      33.237  20.226 -20.867  0.00  0.00    -0.259 OA
BRANCH  16  18
ATOM     18  O   UNL d   1      32.527  21.183 -21.658  0.00  0.00    -0.296 OA
ATOM     19  C   UNL d   1      32.443  21.666 -21.000  0.00  0.00     0.185 C 
ENDBRANCH  16  18
ENDBRANCH   6  16
TORSDOF 4
ENDMDL
MODEL 3
REMARK VINA RESULT:      -1.5      1.505      3.944
REMARK  4 active torsions:
REMARK  status: ('A' for Active; 'I' for Inactive)
REMARK    1  A    between atoms: N_3  and  C_1 
REMARK       I    between atoms: C_5  and  N_3 
REMARK    2  A    between atoms: C_7  and  C_5 
REMARK    3  A    between atoms: C_9  and  C_12 
REMARK    4  A    between atoms: O_18  and  C_9 
ROOT
ATOM      1  C   UNL d   1      31.090  15.876 -24.853  0.00  0.00     0.197 A 
ATOM      2  N   UNL d   1      30.748  16.598 -25.097  0.00  0.00    -0.221 NA
ATOM      3  S   UNL d   1      30.551  15.498 -24.357  0.00  0.00    -0.047 SA
ATOM      4  C   UNL d   1      29.876  15.972 -24.286  0.00  0.00     0.050 A 
ATOM      5  C   UNL d   1      29.999  16.657 -24.746  0.00  0.00     0.090 A 
ATOM      6  C   UNL d   1      28.596  16.454 -23.908  0.00  0.00     0.064 A 
ATOM      7  C   UNL d   1      29.171  15.875 -23.868  0.00  0.00     0.013 A 
ATOM      8  C   UNL d   1      29.414  17.232 -24.780  0.00  0.00     0.020 A 
ATOM      9  C   UNL d   1      28.719  17.140 -24.369  0.00  0.00     0.007 A 
ENDROOT
BRANCH   1  10
ATOM     10  N   UNL d   1      31.835  15.595 -25.073  0.00  0.00    -0.183 NA
ATOM     11  C   UNL d   1      32.499  15.789 -24.624  0.00  0.00     0.281 C 
ATOM     12  O   UNL d   1      33.241  15.510 -24.842  0.00  0.00    -0.265 OA
BRANCH  11  13
ATOM     13  C   UNL d   1      32.418  16.264 -23.954  0.00  0.00     0.058 A 
ATOM     14  C   UNL d   1      32.269  16.343 -23.146  0.00  0.00     0.005 A 
ATOM     15  C   UNL d   1      32.425  17.009 -23.604  0.00  0.00     0.005 A 
ENDBRANCH  11  13
ENDBRANCH   1  10
BRANCH   6  16
ATOM     16  C   UNL d   1      27.885  16.371 -23.495  0.00  0.00     0.296 C 
ATOM     17  O   UNL d   1      27.685  16.897 -22.902  0.00  0.00    -0.259 OA
BRANCH  16  18
ATOM     18  O   UNL d   1      27.376  15.744 -23.691  0.00  0.00    -0.296 OA
ATOM     19  C   UNL d   1      26.855  15.454 -23.126  0.00  0.00     0.185 C 
ENDBRANCH  16  18
ENDBRANCH   6  16
TORSDOF 4
ENDMDL
MODEL 4
REMARK VINA RESULT:      -1.4      1.089      1.353
REMARK  4 active torsions:
REMARK  status: ('A' for Active; 'I' for Inactive)
REMARK    1  A    between atoms: N_3  and  C_1 
REMARK       I    between atoms: C_5  and  N_3 
REMARK    2  A    between atoms: C_7  and  C_5 
REMARK    3  A    between atoms: C_9  and  C_12 
REMARK    4  A    between atoms: O_18  and  C_9 
ROOT
ATOM      1  C   UNL d   1      29.421  15.677 -23.684  0.00  0.00     0.197 A 
ATOM      2  N   UNL d   1      29.791  15.602 -24.429  0.00  0.00    -0.221 NA
ATOM      3  S   UNL d   1      29.966  16.012 -23.165  0.00  0.00    -0.047 SA
ATOM      4  C   UNL d   1      30.673  16.150 -23.573  0.00  0.00     0.050 A 
ATOM      5  C   UNL d   1      30.564  15.894 -24.360  0.00  0.00     0.090 A 
ATOM      6  C   UNL d   1      32.003  16.534 -23.882  0.00  0.00     0.064 A 
ATOM      7  C   UNL d   1      31.396  16.469 -23.339  0.00  0.00     0.013 A 
ATOM      8  C   UNL d   1      31.180  15.964 -24.898  0.00  0.00     0.020 A 
ATOM      9  C   UNL d   1      31.894  16.279 -24.669  0.00  0.00     0.007 A 
ENDROOT
BRANCH   1  10
ATOM     10  N   UNL d   1      28.645  15.453 -23.504  0.00  0.00    -0.183 NA
ATOM     11  C   UNL d   1      28.029  15.994 -23.587  0.00  0.00     0.281 C 
ATOM     12  O   UNL d   1      27.258  15.771 -23.408  0.00  0.00    -0.265 OA
BRANCH  11  13
ATOM     13  C   UNL d   1      28.187  16.760 -23.849  0.00  0.00     0.058 A 
ATOM     14  C   UNL d   1      28.357  17.551 -23.688  0.00  0.00     0.005 A 
ATOM     15  C   UNL d   1      28.290  17.294 -24.467  0.00  0.00     0.005 A 
ENDBRANCH  11  13
ENDBRANCH   1  10
BRANCH   6  16
ATOM     16  C   UNL d   1      32.733  16.853 -23.661  0.00  0.00     0.296 C 
ATOM     17  O   UNL d   1      33.214  16.461 -23.128  0.00  0.00    -0.259 OA
BRANCH  16  18
ATOM     18  O   UNL d   1      32.973  17.578 -23.989  0.00  0.00    -0.296 OA
ATOM     19  C   UNL d   1      33.241  18.177 -23.496  0.00  0.00     0.185 C 
ENDBRANCH  16  18
ENDBRANCH   6  16
TORSDOF 4
ENDMDL
MODEL 5
REMARK VINA RESULT:      -1.3      2.708      4.028
REMARK  4 active torsions:
REMARK  status: ('A' for Active; 'I' for Inactive)
REMARK    1  A    between atoms: N_3  and  C_1 
REMARK       I    between atoms: C_5  and  N_3 
REMARK    2  A    between atoms: C_7  and  C_5 
REMARK    3  A    between atoms: C_9  and  C_12 
REMARK    4  A    between atoms: O_18  and  C_9 
ROOT
ATOM      1  C   UNL d   1      33.188  18.459 -23.517  0.00  0.00     0.197 A 
ATOM      2  N   UNL d   1      33.113  18.441 -22.686  0.00  0.00    -0.221 NA
ATOM      3  S   UNL d   1      33.201  19.249 -23.750  0.00  0.00    -0.047 SA
ATOM      4  C   UNL d   1      33.135  19.728 -23.078  0.00  0.00     0.050 A 
ATOM      5  C   UNL d   1      33.080  19.224 -22.415  0.00  0.00     0.090 A 
ATOM      6  C   UNL d   1      33.045  20.859 -22.226  0.00  0.00     0.064 A 
ATOM      7  C   UNL d   1      33.117  20.546 -22.977  0.00  0.00     0.013 A 
ATOM      8  C   UNL d   1      33.008  19.548 -21.664  0.00  0.00     0.020 A 
ATOM      9  C   UNL d   1      32.990  20.355 -21.563  0.00  0.00     0.007 A 
ENDROOT
BRANCH   1  10
ATOM     10  N   UNL d   1      33.241  17.800 -24.014  0.00  0.00    -0.183 NA
ATOM     11  C   UNL d   1      32.556  17.461 -24.324  0.00  0.00     0.281 C 
ATOM     12  O   UNL d   1      32.607  16.806 -24.817  0.00  0.00    -0.265 OA
BRANCH  11  13
ATOM     13  C   UNL d   1      31.818  17.781 -24.138  0.00  0.00     0.058 A 
ATOM     14  C   UNL d   1      31.184  18.275 -24.326  0.00  0.00     0.005 A 
ATOM     15  C   UNL d   1      31.175  17.840 -23.628  0.00  0.00     0.005 A 
ENDBRANCH  11  13
ENDBRANCH   1  10
BRANCH   6  16
ATOM     16  C   UNL d   1      33.026  21.677 -22.111  0.00  0.00     0.296 C 
ATOM     17  O   UNL d   1      33.102  22.188 -22.744  0.00  0.00    -0.259 OA
BRANCH  16  18
ATOM     18  O   UNL d   1      32.928  21.973 -21.340  0.00  0.00    -0.296 OA
ATOM     19  C   UNL d   1      32.875  22.784 -21.222  0.00  0.00     0.185 C 
ENDBRANCH  16  18
ENDBRANCH   6  16
TORSDOF 4
ENDMDL
MODEL 6
REMARK VINA RESULT:       0.1      3.743      5.451
REMARK  4 active torsions:
REMARK  status: ('A' for Active; 'I' for Inactive)
REMARK    1  A    between atoms: N_3  and  C_1 
REMARK       I    between atoms: C_5  and  N_3 
REMARK    2  A    between atoms: C_7  and  C_5 
REMARK    3  A    between atoms: C_9  and  C_12 
REMARK    4  A    between atoms: O_18  and  C_9 
ROOT
ATOM      1  C   UNL d   1      33.120  19.621 -22.043  0.00  0.00     0.197 A 
ATOM      2  N   UNL d   1      33.239  20.180 -22.651  0.00  0.00    -0.221 NA
ATOM      3  S   UNL d   1      32.863  20.027 -21.374  0.00  0.00    -0.047 SA
ATOM      4  C   UNL d   1      32.819  20.834 -21.553  0.00  0.00     0.050 A 
ATOM      5  C   UNL d   1      33.053  20.930 -22.349  0.00  0.00     0.090 A 
ATOM      6  C   UNL d   1      32.612  22.234 -21.446  0.00  0.00     0.064 A 
ATOM      7  C   UNL d   1      32.599  21.491 -21.105  0.00  0.00     0.013 A 
ATOM      8  C   UNL d   1      33.063  21.680 -22.681  0.00  0.00     0.020 A 
ATOM      9  C   UNL d   1      32.847  22.330 -22.242  0.00  0.00     0.007 A 
ENDROOT
BRANCH   1  10
ATOM     10  N   UNL d   1      33.240  18.805 -22.105  0.00  0.00    -0.183 NA
ATOM     11  C   UNL d   1      33.060  18.414 -22.809  0.00  0.00     0.281 C 
ATOM     12  O   UNL d   1      33.179  17.603 -22.871  0.00  0.00    -0.265 OA
BRANCH  11  13
ATOM     13  C   UNL d   1      32.760  18.837 -23.450  0.00  0.00     0.058 A 
ATOM     14  C   UNL d   1      32.862  19.174 -24.196  0.00  0.00     0.005 A 
ATOM     15  C   UNL d   1      32.136  19.234 -23.812  0.00  0.00     0.005 A 
ENDBRANCH  11  13
ENDBRANCH   1  10
BRANCH   6  16
ATOM     16  C   UNL d   1      32.395  22.902 -21.009  0.00  0.00     0.296 C 
ATOM     17  O   UNL d   1      31.669  23.258 -21.129  0.00  0.00    -0.259 OA
BRANCH  16  18
ATOM     18  O   UNL d   1      32.925  23.205 -20.446  0.00  0.00    -0.296 OA
ATOM     19  C   UNL d   1      32.640  23.477 -19.726  0.00  0.00     0.185 C 
ENDBRANCH  16  18
ENDBRANCH   6  16
TORSDOF 4
ENDMDL
MODEL 7
REMARK VINA RESULT:       0.2      1.783      4.138
REMARK  4 active torsions:
REMARK  status: ('A' for Active; 'I' for Inactive)
REMARK    1  A    between atoms: N_3  and  C_1 
REMARK       I    between atoms: C_5  and  N_3 
REMARK    2  A    between atoms: C_7  and  C_5 
REMARK    3  A    between atoms: C_9  and  C_12 
REMARK    4  A    between atoms: O_18  and  C_9 
ROOT
ATOM      1  C   UNL d   1      31.933  18.889 -24.665  0.00  0.00     0.197 A 
ATOM      2  N   UNL d   1      32.202  18.190 -25.035  0.00  0.00    -0.221 NA
ATOM      3  S   UNL d   1      31.222  18.715 -24.286  0.00  0.00    -0.047 SA
ATOM      4  C   UNL d   1      31.041  17.917 -24.413  0.00  0.00     0.050 A 
ATOM      5  C   UNL d   1      31.651  17.590 -24.879  0.00  0.00     0.090 A 
ATOM      6  C   UNL d   1      30.386  16.659 -24.388  0.00  0.00     0.064 A 
ATOM      7  C   UNL d   1      30.409  17.445 -24.170  0.00  0.00     0.013 A 
ATOM      8  C   UNL d   1      31.618  16.799 -25.093  0.00  0.00     0.020 A 
ATOM      9  C   UNL d   1      30.996  16.332 -24.855  0.00  0.00     0.007 A 
ENDROOT
BRANCH   1  10
ATOM     10  N   UNL d   1      32.314  19.622 -24.679  0.00  0.00    -0.183 NA
ATOM     11  C   UNL d   1      32.765  19.866 -24.033  0.00  0.00     0.281 C 
ATOM     12  O   UNL d   1      33.145  20.595 -24.047  0.00  0.00    -0.265 OA
BRANCH  11  13
ATOM     13  C   UNL d   1      32.834  19.377 -23.372  0.00  0.00     0.058 A 
ATOM     14  C   UNL d   1      32.551  19.114 -22.643  0.00  0.00     0.005 A 
ATOM     15  C   UNL d   1      33.240  18.793 -22.958  0.00  0.00     0.005 A 
ENDBRANCH  11  13
ENDBRANCH   1  10
BRANCH   6  16
ATOM     16  C   UNL d   1      29.759  16.174 -24.152  0.00  0.00     0.296 C 
ATOM     17  O   UNL d   1      29.798  15.756 -23.451  0.00  0.00    -0.259 OA
BRANCH  16  18
ATOM     18  O   UNL d   1      29.087  16.119 -24.638  0.00  0.00    -0.296 OA
ATOM     19  C   UNL d   1      28.590  15.469 -24.570  0.00  0.00     0.185 C 
ENDBRANCH  16  18
ENDBRANCH   6  16
TORSDOF 4
ENDMDL
MODEL 8
REMARK VINA RESULT:       0.3      6.175      8.310
REMARK  4 active torsions:
REMARK  status: ('A' for Active; 'I' for Inactive)
REMARK    1  A    between atoms: N_3  and  C_1 
REMARK       I    between atoms: C_5  and  N_3 
REMARK    2  A    between atoms: C_7  and  C_5 
REMARK    3  A    between atoms: C_9  and  C_12 
REMARK    4  A    between atoms: O_18  and  C_9 
ROOT
ATOM      1  C   UNL d   1      33.106  23.182 -18.429  0.00  0.00     0.197 A 
ATOM      2  N   UNL d   1      32.880  23.701 -19.042  0.00  0.00    -0.221 NA
ATOM      3  S   UNL d   1      33.173  22.427 -18.751  0.00  0.00    -0.047 SA
ATOM      4  C   UNL d   1      32.992  22.464 -19.558  0.00  0.00     0.050 A 
ATOM      5  C   UNL d   1      32.809  23.258 -19.739  0.00  0.00     0.090 A 
ATOM      6  C   UNL d   1      32.764  22.102 -20.911  0.00  0.00     0.064 A 
ATOM      7  C   UNL d   1      32.967  21.889 -20.149  0.00  0.00     0.013 A 
ATOM      8  C   UNL d   1      32.606  23.461 -20.508  0.00  0.00     0.020 A 
ATOM      9  C   UNL d   1      32.581  22.897 -21.093  0.00  0.00     0.007 A 
ENDROOT
BRANCH   1  10
ATOM     10  N   UNL d   1      33.239  23.392 -17.640  0.00  0.00    -0.183 NA
ATOM     11  C   UNL d   1      32.601  23.492 -17.127  0.00  0.00     0.281 C 
ATOM     12  O   UNL d   1      32.733  23.701 -16.343  0.00  0.00    -0.265 OA
BRANCH  11  13
ATOM     13  C   UNL d   1      31.831  23.381 -17.401  0.00  0.00     0.058 A 
ATOM     14  C   UNL d   1      31.193  22.883 -17.563  0.00  0.00     0.005 A 
ATOM     15  C   UNL d   1      31.135  23.690 -17.714  0.00  0.00     0.005 A 
ENDBRANCH  11  13
ENDBRANCH   1  10
BRANCH   6  16
ATOM     16  C   UNL d   1      32.736  21.537 -21.514  0.00  0.00     0.296 C 
ATOM     17  O   UNL d   1      32.922  21.740 -22.284  0.00  0.00    -0.259 OA
BRANCH  16  18
ATOM     18  O   UNL d   1      32.516  20.758 -21.325  0.00  0.00    -0.296 OA
ATOM     19  C   UNL d   1      32.880  20.130 -21.709  0.00  0.00     0.185 C 
ENDBRANCH  16  18
ENDBRANCH   6  16
TORSDOF 4
ENDMDL
