MODEL 1
REMARK VINA RESULT:      -8.4      0.000      0.000
REMARK  4 active torsions:
REMARK  status: ('A' for Active; 'I' for Inactive)
REMARK    1  A    between atoms: N_2  and  C_1 
REMARK       I    between atoms: C_3  and  N_2 
REMARK    2  A    between atoms: C_6  and  C_3 
REMARK    3  A    between atoms: C_11  and  C_7 
REMARK    4  A    between atoms: C_10  and  C_11 
ROOT
ATOM      1  C   UNL d   1      51.832  32.957  53.170  0.00  0.00     0.197 A 
ATOM      2  N   UNL d   1      51.895  32.204  52.887  0.00  0.00    -0.219 NA
ATOM      3  S   UNL d   1      52.584  33.201  53.436  0.00  0.00    -0.047 SA
ATOM      4  C   UNL d   1      53.101  32.573  53.305  0.00  0.00     0.051 A 
ATOM      5  C   UNL d   1      52.691  31.951  52.967  0.00  0.00     0.108 A 
ENDROOT
BRANCH   1   6
ATOM      6  N   UNL d   1      51.129  33.410  53.190  0.00  0.00    -0.182 NA
ATOM      7  C   UNL d   1      50.946  33.931  52.586  0.00  0.00     0.287 C 
ATOM      8  O   UNL d   1      51.461  34.002  51.962  0.00  0.00    -0.265 OA
BRANCH   7   9
ATOM      9  C   UNL d   1      50.266  34.367  52.608  0.00  0.00     0.087 A 
ATOM     10  S   UNL d   1      49.790  34.410  51.959  0.00  0.00    -0.082 SA
ATOM     11  C   UNL d   1      49.141  34.897  52.159  0.00  0.00     0.036 A 
ATOM     12  C   UNL d   1      49.221  35.136  52.897  0.00  0.00     0.008 A 
ATOM     13  C   UNL d   1      49.924  34.818  53.210  0.00  0.00     0.012 A 
ENDBRANCH   7   9
ENDBRANCH   1   6
BRANCH   4  14
ATOM     14  C   UNL d   1      53.894  32.470  53.444  0.00  0.00     0.009 C 
BRANCH  14  15
ATOM     15  C   UNL d   1      54.246  32.823  54.120  0.00  0.00     0.011 A 
ATOM     16  C   UNL d   1      54.956  33.229  54.045  0.00  0.00     0.058 A 
ATOM     17 CL   UNL d   1      55.333  33.296  53.306  0.00  0.00    -0.082 Cl
ATOM     18  C   UNL d   1      55.311  33.584  54.722  0.00  0.00     0.011 A 
ATOM     19  C   UNL d   1      54.959  33.529  55.447  0.00  0.00     0.001 A 
ATOM     20  C   UNL d   1      54.243  33.123  55.539  0.00  0.00     0.000 A 
ATOM     21  C   UNL d   1      53.891  32.769  54.863  0.00  0.00     0.001 A 
ENDBRANCH  14  15
ENDBRANCH   4  14
TORSDOF 4
ENDMDL
MODEL 2
REMARK VINA RESULT:      -8.0      1.259      1.741
REMARK  4 active torsions:
REMARK  status: ('A' for Active; 'I' for Inactive)
REMARK    1  A    between atoms: N_2  and  C_1 
REMARK       I    between atoms: C_3  and  N_2 
REMARK    2  A    between atoms: C_6  and  C_3 
REMARK    3  A    between atoms: C_11  and  C_7 
REMARK    4  A    between atoms: C_10  and  C_11 
ROOT
ATOM      1  C   UNL d   1      50.813  34.315  52.887  0.00  0.00     0.197 A 
ATOM      2  N   UNL d   1      51.294  34.402  52.245  0.00  0.00    -0.219 NA
ATOM      3  S   UNL d   1      51.105  33.687  53.350  0.00  0.00    -0.047 SA
ATOM      4  C   UNL d   1      51.776  33.399  52.970  0.00  0.00     0.051 A 
ATOM      5  C   UNL d   1      51.906  33.830  52.287  0.00  0.00     0.108 A 
ENDROOT
BRANCH   1   6
ATOM      6  N   UNL d   1      50.137  34.780  53.052  0.00  0.00    -0.182 NA
ATOM      7  C   UNL d   1      49.514  34.821  52.523  0.00  0.00     0.287 C 
ATOM      8  O   UNL d   1      49.562  34.401  51.829  0.00  0.00    -0.265 OA
BRANCH   7   9
ATOM      9  C   UNL d   1      48.863  35.271  52.685  0.00  0.00     0.087 A 
ATOM     10  S   UNL d   1      48.292  35.376  52.126  0.00  0.00    -0.082 SA
ATOM     11  C   UNL d   1      47.701  35.862  52.462  0.00  0.00     0.036 A 
ATOM     12  C   UNL d   1      47.907  36.042  53.193  0.00  0.00     0.008 A 
ATOM     13  C   UNL d   1      48.638  35.683  53.365  0.00  0.00     0.012 A 
ENDBRANCH   7   9
ENDBRANCH   1   6
BRANCH   4  14
ATOM     14  C   UNL d   1      52.298  32.800  53.142  0.00  0.00     0.009 C 
BRANCH  14  15
ATOM     15  C   UNL d   1      52.907  32.932  53.704  0.00  0.00     0.011 A 
ATOM     16  C   UNL d   1      53.477  32.353  53.831  0.00  0.00     0.058 A 
ATOM     17 CL   UNL d   1      53.458  31.637  53.409  0.00  0.00    -0.082 Cl
ATOM     18  C   UNL d   1      54.090  32.483  54.395  0.00  0.00     0.011 A 
ATOM     19  C   UNL d   1      54.124  33.173  54.814  0.00  0.00     0.001 A 
ATOM     20  C   UNL d   1      53.557  33.766  54.698  0.00  0.00     0.000 A 
ATOM     21  C   UNL d   1      52.947  33.635  54.135  0.00  0.00     0.001 A 
ENDBRANCH  14  15
ENDBRANCH   4  14
TORSDOF 4
ENDMDL
MODEL 3
REMARK VINA RESULT:      -7.9      1.427      2.078
REMARK  4 active torsions:
REMARK  status: ('A' for Active; 'I' for Inactive)
REMARK    1  A    between atoms: N_2  and  C_1 
REMARK       I    between atoms: C_3  and  N_2 
REMARK    2  A    between atoms: C_6  and  C_3 
REMARK    3  A    between atoms: C_11  and  C_7 
REMARK    4  A    between atoms: C_10  and  C_11 
ROOT
ATOM      1  C   UNL d   1      51.262  34.158  52.525  0.00  0.00     0.197 A 
ATOM      2  N   UNL d   1      51.862  34.692  52.603  0.00  0.00    -0.219 NA
ATOM      3  S   UNL d   1      51.424  33.508  53.021  0.00  0.00    -0.047 SA
ATOM      4  C   UNL d   1      52.139  33.665  53.399  0.00  0.00     0.051 A 
ATOM      5  C   UNL d   1      52.421  34.392  53.152  0.00  0.00     0.108 A 
ENDROOT
BRANCH   1   6
ATOM      6  N   UNL d   1      50.594  34.249  52.030  0.00  0.00    -0.182 NA
ATOM      7  C   UNL d   1      49.911  34.606  52.304  0.00  0.00     0.287 C 
ATOM      8  O   UNL d   1      49.891  34.874  53.071  0.00  0.00    -0.265 OA
BRANCH   7   9
ATOM      9  C   UNL d   1      49.268  34.692  51.823  0.00  0.00     0.087 A 
ATOM     10  S   UNL d   1      48.624  35.107  52.075  0.00  0.00    -0.082 SA
ATOM     11  C   UNL d   1      48.062  35.093  51.457  0.00  0.00     0.036 A 
ATOM     12  C   UNL d   1      48.354  34.689  50.857  0.00  0.00     0.008 A 
ATOM     13  C   UNL d   1      49.117  34.421  51.057  0.00  0.00     0.012 A 
ENDBRANCH   7   9
ENDBRANCH   1   6
BRANCH   4  14
ATOM     14  C   UNL d   1      52.583  33.252  53.939  0.00  0.00     0.009 C 
BRANCH  14  15
ATOM     15  C   UNL d   1      52.914  32.512  53.724  0.00  0.00     0.011 A 
ATOM     16  C   UNL d   1      53.602  32.251  54.089  0.00  0.00     0.058 A 
ATOM     17 CL   UNL d   1      53.977  32.712  54.671  0.00  0.00    -0.082 Cl
ATOM     18  C   UNL d   1      53.936  31.508  53.874  0.00  0.00     0.011 A 
ATOM     19  C   UNL d   1      53.586  31.047  53.311  0.00  0.00     0.001 A 
ATOM     20  C   UNL d   1      52.892  31.295  52.933  0.00  0.00     0.000 A 
ATOM     21  C   UNL d   1      52.560  32.037  53.149  0.00  0.00     0.001 A 
ENDBRANCH  14  15
ENDBRANCH   4  14
TORSDOF 4
ENDMDL
MODEL 4
REMARK VINA RESULT:      -7.5      1.956      4.927
REMARK  4 active torsions:
REMARK  status: ('A' for Active; 'I' for Inactive)
REMARK    1  A    between atoms: N_2  and  C_1 
REMARK       I    between atoms: C_3  and  N_2 
REMARK    2  A    between atoms: C_6  and  C_3 
REMARK    3  A    between atoms: C_11  and  C_7 
REMARK    4  A    between atoms: C_10  and  C_11 
ROOT
ATOM      1  C   UNL d   1      51.817  34.167  53.055  0.00  0.00     0.197 A 
ATOM      2  N   UNL d   1      51.977  34.405  52.301  0.00  0.00    -0.219 NA
ATOM      3  S   UNL d   1      51.002  33.999  53.109  0.00  0.00    -0.047 SA
ATOM      4  C   UNL d   1      50.677  34.143  52.367  0.00  0.00     0.051 A 
ATOM      5  C   UNL d   1      51.266  34.394  51.857  0.00  0.00     0.108 A 
ENDROOT
BRANCH   1   6
ATOM      6  N   UNL d   1      52.378  34.101  53.672  0.00  0.00    -0.182 NA
ATOM      7  C   UNL d   1      52.928  33.495  53.680  0.00  0.00     0.287 C 
ATOM      8  O   UNL d   1      52.920  32.953  53.075  0.00  0.00    -0.265 OA
BRANCH   7   9
ATOM      9  C   UNL d   1      53.468  33.435  54.277  0.00  0.00     0.087 A 
ATOM     10  S   UNL d   1      53.798  32.722  54.456  0.00  0.00    -0.082 SA
ATOM     11  C   UNL d   1      54.327  32.845  55.091  0.00  0.00     0.036 A 
ATOM     12  C   UNL d   1      54.317  33.600  55.286  0.00  0.00     0.008 A 
ATOM     13  C   UNL d   1      53.783  34.002  54.789  0.00  0.00     0.012 A 
ENDBRANCH   7   9
ENDBRANCH   1   6
BRANCH   4  14
ATOM     14  C   UNL d   1      49.923  34.084  52.070  0.00  0.00     0.009 C 
BRANCH  14  15
ATOM     15  C   UNL d   1      49.350  34.663  52.276  0.00  0.00     0.011 A 
ATOM     16  C   UNL d   1      48.770  34.872  51.734  0.00  0.00     0.058 A 
ATOM     17 CL   UNL d   1      48.741  34.518  50.981  0.00  0.00    -0.082 Cl
ATOM     18  C   UNL d   1      48.194  35.453  51.938  0.00  0.00     0.011 A 
ATOM     19  C   UNL d   1      48.207  35.808  52.663  0.00  0.00     0.001 A 
ATOM     20  C   UNL d   1      48.786  35.607  53.221  0.00  0.00     0.000 A 
ATOM     21  C   UNL d   1      49.359  35.028  53.016  0.00  0.00     0.001 A 
ENDBRANCH  14  15
ENDBRANCH   4  14
TORSDOF 4
ENDMDL
MODEL 5
REMARK VINA RESULT:      -7.4      2.313      4.356
REMARK  4 active torsions:
REMARK  status: ('A' for Active; 'I' for Inactive)
REMARK    1  A    between atoms: N_2  and  C_1 
REMARK       I    between atoms: C_3  and  N_2 
REMARK    2  A    between atoms: C_6  and  C_3 
REMARK    3  A    between atoms: C_11  and  C_7 
REMARK    4  A    between atoms: C_10  and  C_11 
ROOT
ATOM      1  C   UNL d   1      53.789  32.060  53.885  0.00  0.00     0.197 A 
ATOM      2  N   UNL d   1      54.422  32.322  53.458  0.00  0.00    -0.219 NA
ATOM      3  S   UNL d   1      53.244  32.687  53.957  0.00  0.00    -0.047 SA
ATOM      4  C   UNL d   1      53.567  33.333  53.561  0.00  0.00     0.051 A 
ATOM      5  C   UNL d   1      54.293  33.123  53.248  0.00  0.00     0.108 A 
ENDROOT
BRANCH   1   6
ATOM      6  N   UNL d   1      53.701  31.289  54.198  0.00  0.00    -0.182 NA
ATOM      7  C   UNL d   1      53.431  30.673  53.733  0.00  0.00     0.287 C 
ATOM      8  O   UNL d   1      53.247  30.821  52.956  0.00  0.00    -0.265 OA
BRANCH   7   9
ATOM      9  C   UNL d   1      53.348  29.930  54.039  0.00  0.00     0.087 A 
ATOM     10  S   UNL d   1      52.965  29.358  53.619  0.00  0.00    -0.082 SA
ATOM     11  C   UNL d   1      52.973  28.663  54.082  0.00  0.00     0.036 A 
ATOM     12  C   UNL d   1      53.344  28.808  54.753  0.00  0.00     0.008 A 
ATOM     13  C   UNL d   1      53.594  29.602  54.757  0.00  0.00     0.012 A 
ENDBRANCH   7   9
ENDBRANCH   1   6
BRANCH   4  14
ATOM     14  C   UNL d   1      53.308  34.093  53.436  0.00  0.00     0.009 C 
BRANCH  14  15
ATOM     15  C   UNL d   1      52.514  34.225  53.198  0.00  0.00     0.011 A 
ATOM     16  C   UNL d   1      52.061  34.790  53.586  0.00  0.00     0.058 A 
ATOM     17 CL   UNL d   1      52.379  35.233  54.214  0.00  0.00    -0.082 Cl
ATOM     18  C   UNL d   1      51.263  34.924  53.349  0.00  0.00     0.011 A 
ATOM     19  C   UNL d   1      50.938  34.503  52.742  0.00  0.00     0.001 A 
ATOM     20  C   UNL d   1      51.382  33.930  52.340  0.00  0.00     0.000 A 
ATOM     21  C   UNL d   1      52.176  33.797  52.577  0.00  0.00     0.001 A 
ENDBRANCH  14  15
ENDBRANCH   4  14
TORSDOF 4
ENDMDL
MODEL 6
REMARK VINA RESULT:      -7.3      2.319      5.015
REMARK  4 active torsions:
REMARK  status: ('A' for Active; 'I' for Inactive)
REMARK    1  A    between atoms: N_2  and  C_1 
REMARK       I    between atoms: C_3  and  N_2 
REMARK    2  A    between atoms: C_6  and  C_3 
REMARK    3  A    between atoms: C_11  and  C_7 
REMARK    4  A    between atoms: C_10  and  C_11 
ROOT
ATOM      1  C   UNL d   1      51.671  33.168  52.755  0.00  0.00     0.197 A 
ATOM      2  N   UNL d   1      52.064  33.845  52.558  0.00  0.00    -0.219 NA
ATOM      3  S   UNL d   1      50.882  33.368  52.938  0.00  0.00    -0.047 SA
ATOM      4  C   UNL d   1      50.813  34.183  52.846  0.00  0.00     0.051 A 
ATOM      5  C   UNL d   1      51.533  34.491  52.612  0.00  0.00     0.108 A 
ENDROOT
BRANCH   1   6
ATOM      6  N   UNL d   1      52.005  32.401  52.771  0.00  0.00    -0.182 NA
ATOM      7  C   UNL d   1      52.626  32.222  53.272  0.00  0.00     0.287 C 
ATOM      8  O   UNL d   1      52.917  32.804  53.758  0.00  0.00    -0.265 OA
BRANCH   7   9
ATOM      9  C   UNL d   1      52.945  31.480  53.284  0.00  0.00     0.087 A 
ATOM     10  S   UNL d   1      53.589  31.323  53.744  0.00  0.00    -0.082 SA
ATOM     11  C   UNL d   1      53.782  30.517  53.634  0.00  0.00     0.036 A 
ATOM     12  C   UNL d   1      53.276  30.201  53.131  0.00  0.00     0.008 A 
ATOM     13  C   UNL d   1      52.733  30.785  52.891  0.00  0.00     0.012 A 
ENDBRANCH   7   9
ENDBRANCH   1   6
BRANCH   4  14
ATOM     14  C   UNL d   1      50.194  34.701  52.940  0.00  0.00     0.009 C 
BRANCH  14  15
ATOM     15  C   UNL d   1      49.596  34.743  52.353  0.00  0.00     0.011 A 
ATOM     16  C   UNL d   1      48.897  35.144  52.511  0.00  0.00     0.058 A 
ATOM     17 CL   UNL d   1      48.772  35.510  53.248  0.00  0.00    -0.082 Cl
ATOM     18  C   UNL d   1      48.295  35.187  51.922  0.00  0.00     0.011 A 
ATOM     19  C   UNL d   1      48.398  34.838  51.202  0.00  0.00     0.001 A 
ATOM     20  C   UNL d   1      49.097  34.430  51.027  0.00  0.00     0.000 A 
ATOM     21  C   UNL d   1      49.697  34.387  51.614  0.00  0.00     0.001 A 
ENDBRANCH  14  15
ENDBRANCH   4  14
TORSDOF 4
ENDMDL
