MODEL 1
REMARK VINA RESULT:      -5.9      0.000      0.000
REMARK  7 active torsions:
REMARK  status: ('A' for Active; 'I' for Inactive)
REMARK    1  A    between atoms: N_2  and  S_1 
REMARK    2  A    between atoms: C_6  and  S_1 
REMARK    3  A    between atoms: C_3  and  N_2 
REMARK       I    between atoms: C_7  and  N_10 
REMARK    4  A    between atoms: C_17  and  C_7 
REMARK    5  A    between atoms: N_10  and  C_18 
REMARK    6  A    between atoms: C_19  and  C_17 
REMARK    7  A    between atoms: O_27  and  C_20 
ROOT
ATOM      1  C   UNL d   1     -45.596  12.971  22.601  0.00  0.00     0.106 A 
ATOM      2  C   UNL d   1     -45.371  13.504  22.002  0.00  0.00     0.015 A 
ATOM      3  C   UNL d   1     -45.124  12.335  22.802  0.00  0.00     0.015 A 
ATOM      4  C   UNL d   1     -44.169  12.733  21.807  0.00  0.00     0.085 A 
ATOM      5  C   UNL d   1     -44.658  13.370  21.618  0.00  0.00     0.020 A 
ATOM      6  C   UNL d   1     -44.409  12.219  22.401  0.00  0.00     0.020 A 
ENDROOT
BRANCH   1   7
ATOM      7  S   UNL d   1     -46.326  13.093  23.008  0.00  0.00     0.300 S 
ATOM      8  O   UNL d   1     -46.479  12.259  22.940  0.00  0.00    -0.198 OA
ATOM      9  O   UNL d   1     -46.155  13.905  23.062  0.00  0.00    -0.198 OA
BRANCH   7  10
ATOM     10  N   UNL d   1     -47.048  13.189  23.406  0.00  0.00     0.034 NA
BRANCH  10  11
ATOM     11  C   UNL d   1     -47.733  13.418  22.939  0.00  0.00     0.760 A 
ATOM     12  N   UNL d   1     -47.980  14.209  22.958  0.00  0.00    -0.059 NA
ATOM     13  C   UNL d   1     -48.641  14.434  22.509  0.00  0.00     0.101 A 
ATOM     14  C   UNL d   1     -48.917  15.248  22.512  0.00  0.00     0.021 C 
ATOM     15  C   UNL d   1     -49.036  13.878  22.057  0.00  0.00     0.040 A 
ATOM     16  C   UNL d   1     -48.770  13.112  22.059  0.00  0.00     0.101 A 
ATOM     17  N   UNL d   1     -48.121  12.874  22.495  0.00  0.00    -0.059 NA
ATOM     18  C   UNL d   1     -49.195  12.556  21.584  0.00  0.00     0.021 C 
ENDBRANCH  10  11
ENDBRANCH   7  10
ENDBRANCH   1   7
BRANCH   4  19
ATOM     19  N   UNL d   1     -43.450  12.595  21.422  0.00  0.00    -0.208 NA
ATOM     20  C   UNL d   1     -42.871  13.196  21.381  0.00  0.00     0.279 C 
ATOM     21  O   UNL d   1     -43.017  13.952  21.733  0.00  0.00    -0.265 OA
BRANCH  20  22
ATOM     22  C   UNL d   1     -42.160  13.048  20.996  0.00  0.00     0.062 C 
BRANCH  22  23
ATOM     23  C   UNL d   1     -41.544  13.648  20.972  0.00  0.00     0.005 A 
ATOM     24  C   UNL d   1     -40.924  13.618  21.515  0.00  0.00     0.002 A 
ATOM     25  C   UNL d   1     -40.337  14.191  21.491  0.00  0.00     0.024 A 
ATOM     26  C   UNL d   1     -40.353  14.798  20.934  0.00  0.00     0.094 A 
ATOM     27  C   UNL d   1     -40.956  14.835  20.398  0.00  0.00     0.024 A 
ATOM     28  C   UNL d   1     -41.550  14.269  20.410  0.00  0.00     0.002 A 
BRANCH  26  29
ATOM     29  O   UNL d   1     -39.726  15.372  20.941  0.00  0.00    -0.328 OA
ATOM     30  C   UNL d   1     -39.613  15.895  21.571  0.00  0.00     0.181 C 
ENDBRANCH  26  29
ENDBRANCH  22  23
ENDBRANCH  20  22
ENDBRANCH   4  19
TORSDOF 7
ENDMDL
MODEL 2
REMARK VINA RESULT:      -4.5      1.639      6.307
REMARK  7 active torsions:
REMARK  status: ('A' for Active; 'I' for Inactive)
REMARK    1  A    between atoms: N_2  and  S_1 
REMARK    2  A    between atoms: C_6  and  S_1 
REMARK    3  A    between atoms: C_3  and  N_2 
REMARK       I    between atoms: C_7  and  N_10 
REMARK    4  A    between atoms: C_17  and  C_7 
REMARK    5  A    between atoms: N_10  and  C_18 
REMARK    6  A    between atoms: C_19  and  C_17 
REMARK    7  A    between atoms: O_27  and  C_20 
ROOT
ATOM      1  C   UNL d   1     -43.012  12.855  21.425  0.00  0.00     0.106 A 
ATOM      2  C   UNL d   1     -43.658  13.284  21.122  0.00  0.00     0.015 A 
ATOM      3  C   UNL d   1     -43.107  12.315  22.030  0.00  0.00     0.015 A 
ATOM      4  C   UNL d   1     -44.513  12.605  22.062  0.00  0.00     0.085 A 
ATOM      5  C   UNL d   1     -44.397  13.147  21.450  0.00  0.00     0.020 A 
ATOM      6  C   UNL d   1     -43.862  12.192  22.347  0.00  0.00     0.020 A 
ENDROOT
BRANCH   1   7
ATOM      7  S   UNL d   1     -42.242  12.983  21.098  0.00  0.00     0.300 S 
ATOM      8  O   UNL d   1     -41.945  13.076  21.890  0.00  0.00    -0.198 OA
ATOM      9  O   UNL d   1     -42.557  12.888  20.334  0.00  0.00    -0.198 OA
BRANCH   7  10
ATOM     10  N   UNL d   1     -41.479  13.111  20.800  0.00  0.00     0.034 NA
BRANCH  10  11
ATOM     11  C   UNL d   1     -41.289  13.901  20.518  0.00  0.00     0.760 A 
ATOM     12  N   UNL d   1     -41.149  14.011  19.708  0.00  0.00    -0.059 NA
ATOM     13  C   UNL d   1     -40.965  14.771  19.432  0.00  0.00     0.101 A 
ATOM     14  C   UNL d   1     -40.817  14.910  18.596  0.00  0.00     0.021 C 
ATOM     15  C   UNL d   1     -40.925  15.397  19.957  0.00  0.00     0.040 A 
ATOM     16  C   UNL d   1     -41.066  15.259  20.743  0.00  0.00     0.101 A 
ATOM     17  N   UNL d   1     -41.248  14.516  21.031  0.00  0.00    -0.059 NA
ATOM     18  C   UNL d   1     -41.018  15.922  21.266  0.00  0.00     0.021 C 
ENDBRANCH  10  11
ENDBRANCH   7  10
ENDBRANCH   1   7
BRANCH   4  19
ATOM     19  N   UNL d   1     -45.257  12.464  22.396  0.00  0.00    -0.208 NA
ATOM     20  C   UNL d   1     -45.703  13.095  22.714  0.00  0.00     0.279 C 
ATOM     21  O   UNL d   1     -45.397  13.884  22.695  0.00  0.00    -0.265 OA
BRANCH  20  22
ATOM     22  C   UNL d   1     -46.440  12.944  23.044  0.00  0.00     0.062 C 
BRANCH  22  23
ATOM     23  C   UNL d   1     -47.145  13.322  22.728  0.00  0.00     0.005 A 
ATOM     24  C   UNL d   1     -47.334  14.092  22.959  0.00  0.00     0.002 A 
ATOM     25  C   UNL d   1     -48.007  14.451  22.656  0.00  0.00     0.024 A 
ATOM     26  C   UNL d   1     -48.501  14.059  22.126  0.00  0.00     0.094 A 
ATOM     27  C   UNL d   1     -48.324  13.305  21.895  0.00  0.00     0.024 A 
ATOM     28  C   UNL d   1     -47.654  12.933  22.189  0.00  0.00     0.002 A 
BRANCH  26  29
ATOM     29  O   UNL d   1     -49.189  14.465  21.835  0.00  0.00    -0.328 OA
ATOM     30  C   UNL d   1     -49.908  14.079  21.706  0.00  0.00     0.181 C 
ENDBRANCH  26  29
ENDBRANCH  22  23
ENDBRANCH  20  22
ENDBRANCH   4  19
TORSDOF 7
ENDMDL
MODEL 3
REMARK VINA RESULT:      -4.4      2.265      6.664
REMARK  7 active torsions:
REMARK  status: ('A' for Active; 'I' for Inactive)
REMARK    1  A    between atoms: N_2  and  S_1 
REMARK    2  A    between atoms: C_6  and  S_1 
REMARK    3  A    between atoms: C_3  and  N_2 
REMARK       I    between atoms: C_7  and  N_10 
REMARK    4  A    between atoms: C_17  and  C_7 
REMARK    5  A    between atoms: N_10  and  C_18 
REMARK    6  A    between atoms: C_19  and  C_17 
REMARK    7  A    between atoms: O_27  and  C_20 
ROOT
ATOM      1  C   UNL d   1     -41.713  13.733  20.861  0.00  0.00     0.106 A 
ATOM      2  C   UNL d   1     -42.402  13.730  20.394  0.00  0.00     0.015 A 
ATOM      3  C   UNL d   1     -41.688  13.349  21.582  0.00  0.00     0.015 A 
ATOM      4  C   UNL d   1     -43.051  12.936  21.405  0.00  0.00     0.085 A 
ATOM      5  C   UNL d   1     -43.057  13.329  20.680  0.00  0.00     0.020 A 
ATOM      6  C   UNL d   1     -42.362  12.950  21.852  0.00  0.00     0.020 A 
ENDROOT
BRANCH   1   7
ATOM      7  S   UNL d   1     -41.027  14.141  20.583  0.00  0.00     0.300 S 
ATOM      8  O   UNL d   1     -41.448  14.873  20.682  0.00  0.00    -0.198 OA
ATOM      9  O   UNL d   1     -40.636  13.412  20.494  0.00  0.00    -0.198 OA
BRANCH   7  10
ATOM     10  N   UNL d   1     -40.365  14.562  20.313  0.00  0.00     0.034 NA
BRANCH  10  11
ATOM     11  C   UNL d   1     -40.214  14.566  19.466  0.00  0.00     0.760 A 
ATOM     12  N   UNL d   1     -39.683  14.011  19.155  0.00  0.00    -0.059 NA
ATOM     13  C   UNL d   1     -39.534  14.011  18.338  0.00  0.00     0.101 A 
ATOM     14  C   UNL d   1     -38.987  13.445  17.991  0.00  0.00     0.021 C 
ATOM     15  C   UNL d   1     -39.910  14.554  17.856  0.00  0.00     0.040 A 
ATOM     16  C   UNL d   1     -40.425  15.085  18.189  0.00  0.00     0.101 A 
ATOM     17  N   UNL d   1     -40.582  15.097  18.991  0.00  0.00    -0.059 NA
ATOM     18  C   UNL d   1     -40.801  15.635  17.669  0.00  0.00     0.021 C 
ENDBRANCH  10  11
ENDBRANCH   7  10
ENDBRANCH   1   7
BRANCH   4  19
ATOM     19  N   UNL d   1     -43.710  12.530  21.697  0.00  0.00    -0.208 NA
ATOM     20  C   UNL d   1     -44.394  12.950  21.931  0.00  0.00     0.279 C 
ATOM     21  O   UNL d   1     -44.417  13.793  21.869  0.00  0.00    -0.265 OA
BRANCH  20  22
ATOM     22  C   UNL d   1     -45.044  12.537  22.220  0.00  0.00     0.062 C 
BRANCH  22  23
ATOM     23  C   UNL d   1     -45.771  12.951  22.418  0.00  0.00     0.005 A 
ATOM     24  C   UNL d   1     -45.843  13.320  23.152  0.00  0.00     0.002 A 
ATOM     25  C   UNL d   1     -46.538  13.715  23.340  0.00  0.00     0.024 A 
ATOM     26  C   UNL d   1     -47.167  13.751  22.809  0.00  0.00     0.094 A 
ATOM     27  C   UNL d   1     -47.106  13.392  22.088  0.00  0.00     0.024 A 
ATOM     28  C   UNL d   1     -46.417  12.994  21.886  0.00  0.00     0.002 A 
BRANCH  26  29
ATOM     29  O   UNL d   1     -47.870  14.170  23.041  0.00  0.00    -0.328 OA
ATOM     30  C   UNL d   1     -48.352  14.560  22.495  0.00  0.00     0.181 C 
ENDBRANCH  26  29
ENDBRANCH  22  23
ENDBRANCH  20  22
ENDBRANCH   4  19
TORSDOF 7
ENDMDL
MODEL 4
REMARK VINA RESULT:      -3.9      2.266      6.929
REMARK  7 active torsions:
REMARK  status: ('A' for Active; 'I' for Inactive)
REMARK    1  A    between atoms: N_2  and  S_1 
REMARK    2  A    between atoms: C_6  and  S_1 
REMARK    3  A    between atoms: C_3  and  N_2 
REMARK       I    between atoms: C_7  and  N_10 
REMARK    4  A    between atoms: C_17  and  C_7 
REMARK    5  A    between atoms: N_10  and  C_18 
REMARK    6  A    between atoms: C_19  and  C_17 
REMARK    7  A    between atoms: O_27  and  C_20 
ROOT
ATOM      1  C   UNL d   1     -41.609  13.849  20.863  0.00  0.00     0.106 A 
ATOM      2  C   UNL d   1     -42.258  13.779  20.347  0.00  0.00     0.015 A 
ATOM      3  C   UNL d   1     -41.614  13.498  21.601  0.00  0.00     0.015 A 
ATOM      4  C   UNL d   1     -42.929  12.984  21.343  0.00  0.00     0.085 A 
ATOM      5  C   UNL d   1     -42.906  13.346  20.602  0.00  0.00     0.020 A 
ATOM      6  C   UNL d   1     -42.279  13.065  21.839  0.00  0.00     0.020 A 
ENDROOT
BRANCH   1   7
ATOM      7  S   UNL d   1     -40.932  14.292  20.618  0.00  0.00     0.300 S 
ATOM      8  O   UNL d   1     -41.046  13.991  19.831  0.00  0.00    -0.198 OA
ATOM      9  O   UNL d   1     -40.841  14.574  21.396  0.00  0.00    -0.198 OA
BRANCH   7  10
ATOM     10  N   UNL d   1     -40.271  14.719  20.355  0.00  0.00     0.034 NA
BRANCH  10  11
ATOM     11  C   UNL d   1     -39.521  14.301  20.307  0.00  0.00     0.760 A 
ATOM     12  N   UNL d   1     -39.239  14.075  19.561  0.00  0.00    -0.059 NA
ATOM     13  C   UNL d   1     -38.516  13.672  19.510  0.00  0.00     0.101 A 
ATOM     14  C   UNL d   1     -38.203  13.426  18.748  0.00  0.00     0.021 C 
ATOM     15  C   UNL d   1     -38.094  13.504  20.190  0.00  0.00     0.040 A 
ATOM     16  C   UNL d   1     -38.395  13.738  20.906  0.00  0.00     0.101 A 
ATOM     17  N   UNL d   1     -39.106  14.136  20.973  0.00  0.00    -0.059 NA
ATOM     18  C   UNL d   1     -37.940  13.554  21.594  0.00  0.00     0.021 C 
ENDBRANCH  10  11
ENDBRANCH   7  10
ENDBRANCH   1   7
BRANCH   4  19
ATOM     19  N   UNL d   1     -43.581  12.546  21.605  0.00  0.00    -0.208 NA
ATOM     20  C   UNL d   1     -44.271  12.935  21.871  0.00  0.00     0.279 C 
ATOM     21  O   UNL d   1     -44.309  13.780  21.874  0.00  0.00    -0.265 OA
BRANCH  20  22
ATOM     22  C   UNL d   1     -44.913  12.490  22.129  0.00  0.00     0.062 C 
BRANCH  22  23
ATOM     23  C   UNL d   1     -45.660  12.871  22.316  0.00  0.00     0.005 A 
ATOM     24  C   UNL d   1     -45.773  13.201  23.065  0.00  0.00     0.002 A 
ATOM     25  C   UNL d   1     -46.487  13.564  23.243  0.00  0.00     0.024 A 
ATOM     26  C   UNL d   1     -47.096  13.607  22.689  0.00  0.00     0.094 A 
ATOM     27  C   UNL d   1     -46.994  13.287  21.954  0.00  0.00     0.024 A 
ATOM     28  C   UNL d   1     -46.285  12.921  21.762  0.00  0.00     0.002 A 
BRANCH  26  29
ATOM     29  O   UNL d   1     -47.821  13.992  22.912  0.00  0.00    -0.328 OA
ATOM     30  C   UNL d   1     -47.960  14.793  22.765  0.00  0.00     0.181 C 
ENDBRANCH  26  29
ENDBRANCH  22  23
ENDBRANCH  20  22
ENDBRANCH   4  19
TORSDOF 7
ENDMDL
