MODEL 1
REMARK VINA RESULT:      35.5      0.000      0.000
REMARK  3 active torsions:
REMARK  status: ('A' for Active; 'I' for Inactive)
REMARK    1  A    between atoms: N_2  and  S_1 
REMARK    2  A    between atoms: C_5  and  S_1 
REMARK    3  A    between atoms: C_3  and  N_4 
ROOT
ATOM      1  N   UNL d   1     -54.867-101.872 -39.978  0.00  0.00    -0.226 N 
ATOM      2  N   UNL d   1     -54.920-102.008 -38.338  0.00  0.00    -0.134 N 
ATOM      3  C   UNL d   1     -54.713-101.214 -39.507  0.00  0.00     0.111 A 
ATOM      4  C   UNL d   1     -55.048-102.597 -39.629  0.00  0.00     0.111 A 
ATOM      5  C   UNL d   1     -55.074-102.664 -38.808  0.00  0.00     0.118 A 
ATOM      6  C   UNL d   1     -54.740-101.282 -38.687  0.00  0.00     0.118 A 
ENDROOT
BRANCH   1   7
ATOM      7  S   UNL d   1     -54.839-101.795 -40.807  0.00  0.00     0.271 S 
ATOM      8  O   UNL d   1     -54.900-100.971 -40.731  0.00  0.00    -0.200 OA
ATOM      9  O   UNL d   1     -54.777-102.624 -40.876  0.00  0.00    -0.200 OA
BRANCH   7  10
ATOM     10  C   UNL d   1     -54.809-101.727 -41.636  0.00  0.00     0.104 A 
ATOM     11  C   UNL d   1     -54.824-102.425 -42.098  0.00  0.00     0.015 A 
ATOM     12  C   UNL d   1     -54.795-102.364 -42.932  0.00  0.00     0.030 A 
ATOM     13  C   UNL d   1     -54.752-101.611 -43.290  0.00  0.00     0.140 A 
ATOM     14  C   UNL d   1     -54.738-100.917 -42.823  0.00  0.00     0.030 A 
ATOM     15  F   UNL d   1     -54.723-101.550 -44.116  0.00  0.00    -0.204 F 
ATOM     16  C   UNL d   1     -54.767-100.989 -41.990  0.00  0.00     0.015 A 
ENDBRANCH   7  10
ENDBRANCH   1   7
BRANCH   2  17
ATOM     17  C   UNL d   1     -54.948-102.080 -37.529  0.00  0.00     0.735 A 
ATOM     18  N   UNL d   1     -54.756-101.440 -37.045  0.00  0.00    -0.059 NA
ATOM     19  C   UNL d   1     -54.785-101.517 -36.228  0.00  0.00     0.120 A 
ATOM     20  C   UNL d   1     -55.006-102.236 -35.895  0.00  0.00     0.043 A 
ATOM     21  C   UNL d   1     -55.198-102.876 -36.379  0.00  0.00     0.120 A 
ATOM     22  N   UNL d   1     -55.167-102.793 -37.189  0.00  0.00    -0.059 NA
ENDBRANCH   2  17
TORSDOF 3
ENDMDL
