MODEL 1
REMARK VINA RESULT:      73.1      0.000      0.000
REMARK  5 active torsions:
REMARK  status: ('A' for Active; 'I' for Inactive)
REMARK       I    between atoms: N_4  and  C_1 
REMARK       I    between atoms: N_8  and  C_1 
REMARK    1  A    between atoms: C_2  and  C_3 
REMARK    2  A    between atoms: C_5  and  C_2 
REMARK    3  A    between atoms: N_6  and  C_2 
REMARK    4  A    between atoms: C_3  and  N_4 
REMARK    5  A    between atoms: C_12  and  N_8 
ROOT
ATOM      1  C   UNL d   1      60.791  49.163  50.334  0.00  0.00     0.103 C 
ATOM      2  C   UNL d   1      61.091  49.707  49.805  0.00  0.00     0.022 C 
ENDROOT
BRANCH   1   3
ATOM      3  C   UNL d   1      60.237  49.391  50.898  0.00  0.00     0.088 C 
BRANCH   3   4
ATOM      4  C   UNL d   1      59.456  49.514  50.680  0.00  0.00     0.047 A 
ATOM      5  S   UNL d   1      58.812  49.586  51.188  0.00  0.00    -0.085 SA
ATOM      6  C   UNL d   1      58.134  49.705  50.731  0.00  0.00     0.035 A 
ATOM      7  C   UNL d   1      58.355  49.707  49.934  0.00  0.00     0.007 A 
ATOM      8  C   UNL d   1      59.171  49.590  49.905  0.00  0.00     0.009 A 
ENDBRANCH   3   4
BRANCH   3   9
ATOM      9  N   UNL d   1      60.467  49.495  51.689  0.00  0.00    -0.299 N 
ATOM     10  C   UNL d   1      61.261  49.586  51.880  0.00  0.00     0.107 A 
ATOM     11  C   UNL d   1      61.490  49.690  52.662  0.00  0.00     0.142 A 
ATOM     12  O   UNL d   1      60.923  49.705  53.272  0.00  0.00    -0.300 OA
ATOM     13  C   UNL d   1      60.122  49.614  53.073  0.00  0.00     0.142 A 
ATOM     14  C   UNL d   1      59.892  49.509  52.286  0.00  0.00     0.107 A 
ENDBRANCH   3   9
ENDBRANCH   1   3
BRANCH   1  15
ATOM     15  N   UNL d   1      61.047  48.373  50.304  0.00  0.00    -0.190 NA
ATOM     16  C   UNL d   1      61.838  48.207  50.151  0.00  0.00     0.369 C 
ATOM     17  N   UNL d   1      62.090  47.420  50.121  0.00  0.00    -0.191 NA
ATOM     18  O   UNL d   1      62.375  48.814  50.027  0.00  0.00    -0.242 OA
BRANCH  17  19
ATOM     19  C   UNL d   1      61.552  46.806  50.245  0.00  0.00     0.086 A 
ATOM     20  C   UNL d   1      61.549  46.157  49.738  0.00  0.00     0.019 A 
ATOM     21  C   UNL d   1      61.018  45.550  49.859  0.00  0.00     0.002 A 
ATOM     22  C   UNL d   1      61.010  44.893  49.352  0.00  0.00     0.000 C 
ATOM     23  C   UNL d   1      60.479  45.582  50.493  0.00  0.00     0.000 A 
ATOM     24  C   UNL d   1      60.484  46.233  50.999  0.00  0.00     0.002 A 
ATOM     25  C   UNL d   1      61.025  46.850  50.873  0.00  0.00     0.019 A 
ENDBRANCH  17  19
ENDBRANCH   1  15
TORSDOF 5
ENDMDL
