MODEL 1
REMARK VINA RESULT:      -5.2      0.000      0.000
REMARK  3 active torsions:
REMARK  status: ('A' for Active; 'I' for Inactive)
REMARK    1  A    between atoms: S_9  and  C_2 
REMARK    2  A    between atoms: C_15  and  S_9 
REMARK    3  A    between atoms: C_14  and  C_15 
ROOT
ATOM      1  C   UNL d   1      55.892   0.301  32.974  0.00  0.00     0.119 A 
ATOM      2  C   UNL d   1      55.820  -0.516  33.093  0.00  0.00     0.119 A 
ATOM      3  O   UNL d   1      55.467   0.675  33.568  0.00  0.00    -0.300 OA
ATOM      4  O   UNL d   1      55.353  -0.635  33.758  0.00  0.00    -0.300 OA
ATOM      5  C   UNL d   1      55.139   0.098  34.046  0.00  0.00     0.304 A 
ATOM      6  C   UNL d   1      56.331   0.587  32.346  0.00  0.00     0.027 A 
ATOM      7  C   UNL d   1      56.189  -1.030  32.580  0.00  0.00     0.026 A 
ATOM      8  C   UNL d   1      56.703   0.064  31.828  0.00  0.00     0.009 A 
ATOM      9  C   UNL d   1      56.632  -0.753  31.947  0.00  0.00     0.003 A 
ENDROOT
BRANCH   8  10
ATOM     10  C   UNL d   1      57.145   0.350  31.197  0.00  0.00     0.037 C 
BRANCH  10  11
ATOM     11  S   UNL d   1      57.736  -0.118  30.853  0.00  0.00    -0.059 SA
BRANCH  11  12
ATOM     12  C   UNL d   1      58.100   0.123  30.126  0.00  0.00     0.164 A 
ATOM     13  S   UNL d   1      58.920   0.213  30.007  0.00  0.00    -0.039 SA
ATOM     14  C   UNL d   1      59.033   0.459  29.205  0.00  0.00     0.134 A 
ATOM     15  N   UNL d   1      58.288   0.514  28.854  0.00  0.00    -0.140 NA
ATOM     16  C   UNL d   1      59.775   0.615  28.847  0.00  0.00     0.030 C 
ATOM     17  N   UNL d   1      57.702   0.307  29.419  0.00  0.00    -0.134 NA
ENDBRANCH  11  12
ENDBRANCH  10  11
ENDBRANCH   8  10
TORSDOF 3
ENDMDL
MODEL 2
REMARK VINA RESULT:      -4.5      2.706      4.615
REMARK  3 active torsions:
REMARK  status: ('A' for Active; 'I' for Inactive)
REMARK    1  A    between atoms: S_9  and  C_2 
REMARK    2  A    between atoms: C_15  and  S_9 
REMARK    3  A    between atoms: C_14  and  C_15 
ROOT
ATOM      1  C   UNL d   1      59.076  -0.671  29.424  0.00  0.00     0.119 A 
ATOM      2  C   UNL d   1      59.168   0.129  29.230  0.00  0.00     0.119 A 
ATOM      3  O   UNL d   1      59.650  -1.092  29.016  0.00  0.00    -0.300 OA
ATOM      4  O   UNL d   1      59.797   0.191  28.705  0.00  0.00    -0.300 OA
ATOM      5  C   UNL d   1      60.089  -0.560  28.576  0.00  0.00     0.304 A 
ATOM      6  C   UNL d   1      58.487  -0.902  29.942  0.00  0.00     0.027 A 
ATOM      7  C   UNL d   1      58.669   0.682  29.559  0.00  0.00     0.026 A 
ATOM      8  C   UNL d   1      57.982  -0.340  30.273  0.00  0.00     0.009 A 
ATOM      9  C   UNL d   1      58.074   0.460  30.080  0.00  0.00     0.003 A 
ENDROOT
BRANCH   8  10
ATOM     10  C   UNL d   1      57.390  -0.570  30.794  0.00  0.00     0.037 C 
BRANCH  10  11
ATOM     11  S   UNL d   1      57.300  -0.187  31.523  0.00  0.00    -0.059 SA
BRANCH  11  12
ATOM     12  C   UNL d   1      56.711  -0.450  32.073  0.00  0.00     0.164 A 
ATOM     13  S   UNL d   1      56.292   0.041  32.600  0.00  0.00    -0.039 SA
ATOM     14  C   UNL d   1      55.765  -0.453  33.041  0.00  0.00     0.134 A 
ATOM     15  N   UNL d   1      55.871  -1.228  32.778  0.00  0.00    -0.140 NA
ATOM     16  C   UNL d   1      55.237  -0.188  33.635  0.00  0.00     0.030 C 
ATOM     17  N   UNL d   1      56.458  -1.236  32.176  0.00  0.00    -0.134 NA
ENDBRANCH  11  12
ENDBRANCH  10  11
ENDBRANCH   8  10
TORSDOF 3
ENDMDL
MODEL 3
REMARK VINA RESULT:      -3.9      2.664      4.413
REMARK  3 active torsions:
REMARK  status: ('A' for Active; 'I' for Inactive)
REMARK    1  A    between atoms: S_9  and  C_2 
REMARK    2  A    between atoms: C_15  and  S_9 
REMARK    3  A    between atoms: C_14  and  C_15 
ROOT
ATOM      1  C   UNL d   1      58.194  -0.914  30.069  0.00  0.00     0.119 A 
ATOM      2  C   UNL d   1      58.518  -0.339  29.569  0.00  0.00     0.119 A 
ATOM      3  O   UNL d   1      58.445  -1.647  29.798  0.00  0.00    -0.300 OA
ATOM      4  O   UNL d   1      58.964  -0.724  28.995  0.00  0.00    -0.300 OA
ATOM      5  C   UNL d   1      58.916  -1.526  29.140  0.00  0.00     0.304 A 
ATOM      6  C   UNL d   1      57.720  -0.691  30.697  0.00  0.00     0.027 A 
ATOM      7  C   UNL d   1      58.361   0.448  29.706  0.00  0.00     0.026 A 
ATOM      8  C   UNL d   1      57.562   0.107  30.834  0.00  0.00     0.009 A 
ATOM      9  C   UNL d   1      57.886   0.682  30.334  0.00  0.00     0.003 A 
ENDROOT
BRANCH   8  10
ATOM     10  C   UNL d   1      57.086   0.333  31.464  0.00  0.00     0.037 C 
BRANCH  10  11
ATOM     11  S   UNL d   1      56.980  -0.173  32.112  0.00  0.00    -0.059 SA
BRANCH  11  12
ATOM     12  C   UNL d   1      56.564   0.097  32.800  0.00  0.00     0.164 A 
ATOM     13  S   UNL d   1      55.758  -0.042  32.958  0.00  0.00    -0.039 SA
ATOM     14  C   UNL d   1      55.580   0.325  33.700  0.00  0.00     0.134 A 
ATOM     15  N   UNL d   1      56.273   0.677  33.977  0.00  0.00    -0.140 NA
ATOM     16  C   UNL d   1      54.829   0.323  34.073  0.00  0.00     0.030 C 
ATOM     17  N   UNL d   1      56.891   0.540  33.423  0.00  0.00    -0.134 NA
ENDBRANCH  11  12
ENDBRANCH  10  11
ENDBRANCH   8  10
TORSDOF 3
ENDMDL
MODEL 4
REMARK VINA RESULT:      -3.0     10.268     10.589
REMARK  3 active torsions:
REMARK  status: ('A' for Active; 'I' for Inactive)
REMARK    1  A    between atoms: S_9  and  C_2 
REMARK    2  A    between atoms: C_15  and  S_9 
REMARK    3  A    between atoms: C_14  and  C_15 
ROOT
ATOM      1  C   UNL d   1      57.695  -9.817  31.445  0.00  0.00     0.119 A 
ATOM      2  C   UNL d   1      58.329  -9.816  30.912  0.00  0.00     0.119 A 
ATOM      3  O   UNL d   1      57.002  -9.816  31.006  0.00  0.00    -0.300 OA
ATOM      4  O   UNL d   1      58.020  -9.816  30.151  0.00  0.00    -0.300 OA
ATOM      5  C   UNL d   1      57.206  -9.816  30.213  0.00  0.00     0.304 A 
ATOM      6  C   UNL d   1      57.836  -9.817  32.251  0.00  0.00     0.027 A 
ATOM      7  C   UNL d   1      59.092  -9.816  31.196  0.00  0.00     0.026 A 
ATOM      8  C   UNL d   1      58.611  -9.817  32.535  0.00  0.00     0.009 A 
ATOM      9  C   UNL d   1      59.245  -9.817  32.003  0.00  0.00     0.003 A 
ENDROOT
BRANCH   8  10
ATOM     10  C   UNL d   1      58.755  -9.818  33.344  0.00  0.00     0.037 C 
BRANCH  10  11
ATOM     11  S   UNL d   1      59.340  -9.327  33.666  0.00  0.00    -0.059 SA
BRANCH  11  12
ATOM     12  C   UNL d   1      59.424  -9.260  34.507  0.00  0.00     0.164 A 
ATOM     13  S   UNL d   1      59.960  -8.754  34.896  0.00  0.00    -0.039 SA
ATOM     14  C   UNL d   1      59.854  -8.867  35.729  0.00  0.00     0.134 A 
ATOM     15  N   UNL d   1      59.262  -9.433  35.830  0.00  0.00    -0.140 NA
ATOM     16  C   UNL d   1      60.281  -8.468  36.329  0.00  0.00     0.030 C 
ATOM     17  N   UNL d   1      58.988  -9.683  35.076  0.00  0.00    -0.134 NA
ENDBRANCH  11  12
ENDBRANCH  10  11
ENDBRANCH   8  10
TORSDOF 3
ENDMDL
MODEL 5
REMARK VINA RESULT:      -2.7      2.716      4.440
REMARK  3 active torsions:
REMARK  status: ('A' for Active; 'I' for Inactive)
REMARK    1  A    between atoms: S_9  and  C_2 
REMARK    2  A    between atoms: C_15  and  S_9 
REMARK    3  A    between atoms: C_14  and  C_15 
ROOT
ATOM      1  C   UNL d   1      57.830  -0.173  30.735  0.00  0.00     0.119 A 
ATOM      2  C   UNL d   1      58.581   0.176  30.742  0.00  0.00     0.119 A 
ATOM      3  O   UNL d   1      57.730  -0.530  30.003  0.00  0.00    -0.300 OA
ATOM      4  O   UNL d   1      58.935   0.029  30.015  0.00  0.00    -0.300 OA
ATOM      5  C   UNL d   1      58.410  -0.404  29.565  0.00  0.00     0.304 A 
ATOM      6  C   UNL d   1      57.345  -0.116  31.391  0.00  0.00     0.027 A 
ATOM      7  C   UNL d   1      58.832   0.574  31.406  0.00  0.00     0.026 A 
ATOM      8  C   UNL d   1      57.602   0.288  32.063  0.00  0.00     0.009 A 
ATOM      9  C   UNL d   1      58.353   0.637  32.070  0.00  0.00     0.003 A 
ENDROOT
BRANCH   8  10
ATOM     10  C   UNL d   1      57.116   0.346  32.723  0.00  0.00     0.037 C 
BRANCH  10  11
ATOM     11  S   UNL d   1      56.488  -0.184  32.829  0.00  0.00    -0.059 SA
BRANCH  11  12
ATOM     12  C   UNL d   1      55.857   0.005  33.362  0.00  0.00     0.164 A 
ATOM     13  S   UNL d   1      55.953   0.230  34.159  0.00  0.00    -0.039 SA
ATOM     14  C   UNL d   1      55.180   0.365  34.478  0.00  0.00     0.134 A 
ATOM     15  N   UNL d   1      54.634   0.221  33.876  0.00  0.00    -0.140 NA
ATOM     16  C   UNL d   1      55.016   0.601  35.265  0.00  0.00     0.030 C 
ATOM     17  N   UNL d   1      55.045  -0.004  33.179  0.00  0.00    -0.134 NA
ENDBRANCH  11  12
ENDBRANCH  10  11
ENDBRANCH   8  10
TORSDOF 3
ENDMDL
MODEL 6
REMARK VINA RESULT:      -2.3     10.154     10.479
REMARK  3 active torsions:
REMARK  status: ('A' for Active; 'I' for Inactive)
REMARK    1  A    between atoms: S_9  and  C_2 
REMARK    2  A    between atoms: C_15  and  S_9 
REMARK    3  A    between atoms: C_14  and  C_15 
ROOT
ATOM      1  C   UNL d   1      57.841  -9.737  29.921  0.00  0.00     0.119 A 
ATOM      2  C   UNL d   1      57.046  -9.761  30.152  0.00  0.00     0.119 A 
ATOM      3  O   UNL d   1      57.861  -9.698  29.102  0.00  0.00    -0.300 OA
ATOM      4  O   UNL d   1      56.585  -9.737  29.473  0.00  0.00    -0.300 OA
ATOM      5  C   UNL d   1      57.088  -9.698  28.831  0.00  0.00     0.304 A 
ATOM      6  C   UNL d   1      58.433  -9.753  30.486  0.00  0.00     0.027 A 
ATOM      7  C   UNL d   1      56.859  -9.801  30.943  0.00  0.00     0.026 A 
ATOM      8  C   UNL d   1      58.240  -9.794  31.287  0.00  0.00     0.009 A 
ATOM      9  C   UNL d   1      57.445  -9.818  31.518  0.00  0.00     0.003 A 
ENDROOT
BRANCH   8  10
ATOM     10  C   UNL d   1      58.832  -9.810  31.856  0.00  0.00     0.037 C 
BRANCH  10  11
ATOM     11  S   UNL d   1      58.683  -9.540  32.625  0.00  0.00    -0.059 SA
BRANCH  11  12
ATOM     12  C   UNL d   1      59.318  -9.474  33.184  0.00  0.00     0.164 A 
ATOM     13  S   UNL d   1      59.232  -9.500  34.012  0.00  0.00    -0.039 SA
ATOM     14  C   UNL d   1      60.004  -9.413  34.349  0.00  0.00     0.134 A 
ATOM     15  N   UNL d   1      60.540  -9.337  33.726  0.00  0.00    -0.140 NA
ATOM     16  C   UNL d   1      60.176  -9.408  35.169  0.00  0.00     0.030 C 
ATOM     17  N   UNL d   1      60.122  -9.374  32.998  0.00  0.00    -0.134 NA
ENDBRANCH  11  12
ENDBRANCH  10  11
ENDBRANCH   8  10
TORSDOF 3
ENDMDL
