MODEL 1
REMARK VINA RESULT:      60.8      0.000      0.000
REMARK  4 active torsions:
REMARK  status: ('A' for Active; 'I' for Inactive)
REMARK    1  A    between atoms: N_15  and  C_6 
REMARK    2  A    between atoms: N_14  and  C_19 
REMARK    3  A    between atoms: C_18  and  N_15 
REMARK    4  A    between atoms: C_19  and  C_18 
ROOT
ATOM      1  N   UNL d   1     -50.245  26.926  33.490  0.00  0.00    -0.183 N 
ATOM      2  C   UNL d   1     -50.873  26.395  33.429  0.00  0.00     0.169 A 
ATOM      3  C   UNL d   1     -50.740  25.594  33.407  0.00  0.00     0.073 A 
ATOM      4  C   UNL d   1     -49.972  25.325  33.447  0.00  0.00     0.185 A 
ATOM      5  N   UNL d   1     -49.344  25.856  33.509  0.00  0.00    -0.142 NA
ATOM      6  C   UNL d   1     -50.399  27.723  33.511  0.00  0.00     0.218 A 
ATOM      7  N   UNL d   1     -51.639  26.677  33.389  0.00  0.00    -0.226 NA
ATOM      8  C   UNL d   1     -51.361  25.069  33.346  0.00  0.00     0.007 A 
ATOM      9  N   UNL d   1     -49.820  24.516  33.426  0.00  0.00    -0.225 NA
ATOM     10  C   UNL d   1     -51.155  28.007  33.472  0.00  0.00     0.071 A 
ATOM     11  C   UNL d   1     -51.227  24.267  33.324  0.00  0.00     0.019 A 
ATOM     12  C   UNL d   1     -51.783  27.476  33.410  0.00  0.00     0.087 A 
ATOM     13  C   UNL d   1     -50.449  23.985  33.364  0.00  0.00     0.083 A 
ATOM     14  C   UNL d   1     -52.129  25.353  33.306  0.00  0.00     0.000 C 
ATOM     15  C   UNL d   1     -52.578  27.771  33.369  0.00  0.00     0.021 C 
ATOM     16  C   UNL d   1     -50.308  23.189  33.343  0.00  0.00     0.021 C 
ENDROOT
BRANCH   6  17
ATOM     17  N   UNL d   1     -49.743  28.264  33.575  0.00  0.00    -0.379 NA
BRANCH  17  18
ATOM     18  C   UNL d   1     -49.252  28.929  33.706  0.00  0.00     0.182 C 
BRANCH  18  19
ATOM     19  C   UNL d   1     -49.192  29.237  34.488  0.00  0.00     0.116 C 
BRANCH  19  20
ATOM     20  N   UNL d   1     -48.454  29.586  34.738  0.00  0.00    -0.297 N 
ATOM     21  C   UNL d   1     -48.201  30.301  34.398  0.00  0.00     0.107 A 
ATOM     22  C   UNL d   1     -47.459  30.651  34.649  0.00  0.00     0.142 A 
ATOM     23  O   UNL d   1     -46.989  30.275  35.236  0.00  0.00    -0.300 OA
ATOM     24  C   UNL d   1     -47.251  29.545  35.580  0.00  0.00     0.142 A 
ATOM     25  C   UNL d   1     -47.986  29.195  35.333  0.00  0.00     0.107 A 
ENDBRANCH  19  20
ENDBRANCH  18  19
ENDBRANCH  17  18
ENDBRANCH   6  17
TORSDOF 4
ENDMDL
MODEL 2
REMARK VINA RESULT:      61.0      0.915      2.046
REMARK  4 active torsions:
REMARK  status: ('A' for Active; 'I' for Inactive)
REMARK    1  A    between atoms: N_15  and  C_6 
REMARK    2  A    between atoms: N_14  and  C_19 
REMARK    3  A    between atoms: C_18  and  N_15 
REMARK    4  A    between atoms: C_19  and  C_18 
ROOT
ATOM      1  N   UNL d   1     -50.792  26.572  33.362  0.00  0.00    -0.183 N 
ATOM      2  C   UNL d   1     -50.827  25.748  33.343  0.00  0.00     0.169 A 
ATOM      3  C   UNL d   1     -51.543  25.363  33.334  0.00  0.00     0.073 A 
ATOM      4  C   UNL d   1     -52.225  25.807  33.344  0.00  0.00     0.185 A 
ATOM      5  N   UNL d   1     -52.190  26.631  33.363  0.00  0.00    -0.142 NA
ATOM      6  C   UNL d   1     -50.067  26.939  33.370  0.00  0.00     0.218 A 
ATOM      7  N   UNL d   1     -50.136  25.313  33.333  0.00  0.00    -0.226 NA
ATOM      8  C   UNL d   1     -51.577  24.548  33.316  0.00  0.00     0.007 A 
ATOM      9  N   UNL d   1     -52.958  25.432  33.336  0.00  0.00    -0.225 NA
ATOM     10  C   UNL d   1     -49.380  26.513  33.361  0.00  0.00     0.071 A 
ATOM     11  C   UNL d   1     -52.294  24.163  33.307  0.00  0.00     0.019 A 
ATOM     12  C   UNL d   1     -49.415  25.689  33.342  0.00  0.00     0.087 A 
ATOM     13  C   UNL d   1     -52.993  24.608  33.317  0.00  0.00     0.083 A 
ATOM     14  C   UNL d   1     -50.883  24.113  33.306  0.00  0.00     0.000 C 
ATOM     15  C   UNL d   1     -48.695  25.239  33.332  0.00  0.00     0.021 C 
ATOM     16  C   UNL d   1     -53.709  24.232  33.308  0.00  0.00     0.021 C 
ENDROOT
BRANCH   6  17
ATOM     17  N   UNL d   1     -50.040  27.790  33.390  0.00  0.00    -0.379 NA
BRANCH  17  18
ATOM     18  C   UNL d   1     -49.887  28.591  33.577  0.00  0.00     0.182 C 
BRANCH  18  19
ATOM     19  C   UNL d   1     -49.641  28.781  34.360  0.00  0.00     0.116 C 
BRANCH  19  20
ATOM     20  N   UNL d   1     -49.020  29.357  34.468  0.00  0.00    -0.297 N 
ATOM     21  C   UNL d   1     -48.401  29.200  35.001  0.00  0.00     0.107 A 
ATOM     22  C   UNL d   1     -47.777  29.779  35.109  0.00  0.00     0.142 A 
ATOM     23  O   UNL d   1     -47.789  30.502  34.679  0.00  0.00    -0.300 OA
ATOM     24  C   UNL d   1     -48.423  30.658  34.137  0.00  0.00     0.142 A 
ATOM     25  C   UNL d   1     -49.043  30.086  34.028  0.00  0.00     0.107 A 
ENDBRANCH  19  20
ENDBRANCH  18  19
ENDBRANCH  17  18
ENDBRANCH   6  17
TORSDOF 4
ENDMDL
MODEL 3
REMARK VINA RESULT:      61.7      1.893      6.115
REMARK  4 active torsions:
REMARK  status: ('A' for Active; 'I' for Inactive)
REMARK    1  A    between atoms: N_15  and  C_6 
REMARK    2  A    between atoms: N_14  and  C_19 
REMARK    3  A    between atoms: C_18  and  N_15 
REMARK    4  A    between atoms: C_19  and  C_18 
ROOT
ATOM      1  N   UNL d   1     -48.324  30.039  34.517  0.00  0.00    -0.183 N 
ATOM      2  C   UNL d   1     -47.863  30.655  34.814  0.00  0.00     0.169 A 
ATOM      3  C   UNL d   1     -47.892  31.394  34.477  0.00  0.00     0.073 A 
ATOM      4  C   UNL d   1     -48.383  31.514  33.840  0.00  0.00     0.185 A 
ATOM      5  N   UNL d   1     -48.844  30.898  33.543  0.00  0.00    -0.142 NA
ATOM      6  C   UNL d   1     -48.282  29.307  34.867  0.00  0.00     0.218 A 
ATOM      7  N   UNL d   1     -47.373  30.523  35.455  0.00  0.00    -0.226 NA
ATOM      8  C   UNL d   1     -47.436  32.004  34.772  0.00  0.00     0.007 A 
ATOM      9  N   UNL d   1     -48.423  32.258  33.488  0.00  0.00    -0.225 NA
ATOM     10  C   UNL d   1     -47.799  29.171  35.500  0.00  0.00     0.071 A 
ATOM     11  C   UNL d   1     -47.464  32.744  34.434  0.00  0.00     0.019 A 
ATOM     12  C   UNL d   1     -47.338  29.787  35.798  0.00  0.00     0.087 A 
ATOM     13  C   UNL d   1     -47.963  32.874  33.785  0.00  0.00     0.083 A 
ATOM     14  C   UNL d   1     -46.945  31.870  35.414  0.00  0.00     0.000 C 
ATOM     15  C   UNL d   1     -46.830  29.647  36.463  0.00  0.00     0.021 C 
ATOM     16  C   UNL d   1     -47.996  33.607  33.445  0.00  0.00     0.021 C 
ENDROOT
BRANCH   6  17
ATOM     17  N   UNL d   1     -48.761  28.676  34.553  0.00  0.00    -0.379 NA
BRANCH  17  18
ATOM     18  C   UNL d   1     -49.223  27.987  34.447  0.00  0.00     0.182 C 
BRANCH  18  19
ATOM     19  C   UNL d   1     -49.417  27.750  33.661  0.00  0.00     0.116 C 
BRANCH  19  20
ATOM     20  N   UNL d   1     -50.031  27.168  33.546  0.00  0.00    -0.297 N 
ATOM     21  C   UNL d   1     -49.833  26.361  33.515  0.00  0.00     0.107 A 
ATOM     22  C   UNL d   1     -50.451  25.777  33.399  0.00  0.00     0.142 A 
ATOM     23  O   UNL d   1     -51.253  26.017  33.318  0.00  0.00    -0.300 OA
ATOM     24  C   UNL d   1     -51.450  26.842  33.351  0.00  0.00     0.142 A 
ATOM     25  C   UNL d   1     -50.840  27.423  33.466  0.00  0.00     0.107 A 
ENDBRANCH  19  20
ENDBRANCH  18  19
ENDBRANCH  17  18
ENDBRANCH   6  17
TORSDOF 4
ENDMDL
