MODEL 1
REMARK VINA RESULT:      30.1      0.000      0.000
REMARK  6 active torsions:
REMARK  status: ('A' for Active; 'I' for Inactive)
REMARK    1  A    between atoms: N_4  and  C_1 
REMARK    2  A    between atoms: N_8  and  C_1 
REMARK       I    between atoms: C_2  and  N_3 
REMARK    3  A    between atoms: C_6  and  C_2 
REMARK    4  A    between atoms: N_3  and  N_4 
REMARK    5  A    between atoms: C_17  and  N_8 
REMARK    6  A    between atoms: C_11  and  C_17 
ROOT
ATOM      1  C   UNL d   1     -50.335  24.407  33.646  0.00  0.00     0.297 C 
ATOM      2  N   UNL d   1     -50.093  25.207  33.559  0.00  0.00    -0.103 NA
ATOM      3  O   UNL d   1     -49.772  23.835  33.804  0.00  0.00    -0.264 OA
ENDROOT
BRANCH   1   4
ATOM      4  C   UNL d   1     -51.144  24.202  33.573  0.00  0.00     0.059 A 
ATOM      5  C   UNL d   1     -51.691  24.792  33.430  0.00  0.00     0.005 A 
ATOM      6  C   UNL d   1     -52.490  24.600  33.356  0.00  0.00     0.007 A 
ATOM      7  C   UNL d   1     -52.732  23.821  33.425  0.00  0.00     0.035 A 
ATOM      8  C   UNL d   1     -52.180  23.214  33.570  0.00  0.00     0.007 A 
ATOM      9 BR   UNL d   1     -53.553  23.620  33.349  0.00  0.00    -0.049 Br
ATOM     10  C   UNL d   1     -51.386  23.423  33.642  0.00  0.00     0.005 A 
ENDBRANCH   1   4
BRANCH   2  11
ATOM     11  N   UNL d   1     -50.669  25.792  33.398  0.00  0.00    -0.114 NA
BRANCH  11  12
ATOM     12  C   UNL d   1     -50.513  26.573  33.550  0.00  0.00     0.241 C 
ATOM     13  S   UNL d   1     -49.779  26.898  33.343  0.00  0.00    -0.035 SA
BRANCH  12  14
ATOM     14  N   UNL d   1     -51.090  27.056  33.916  0.00  0.00    -0.215 NA
BRANCH  14  15
ATOM     15  C   UNL d   1     -51.108  27.869  33.752  0.00  0.00     0.102 C 
BRANCH  15  16
ATOM     16  C   UNL d   1     -51.820  28.226  33.541  0.00  0.00     0.021 C 
ATOM     17  C   UNL d   1     -51.966  29.005  33.740  0.00  0.00     0.002 C 
ENDBRANCH  15  16
ENDBRANCH  14  15
ENDBRANCH  12  14
ENDBRANCH  11  12
ENDBRANCH   2  11
TORSDOF 6
ENDMDL
MODEL 2
REMARK VINA RESULT:      32.9      1.870      3.384
REMARK  6 active torsions:
REMARK  status: ('A' for Active; 'I' for Inactive)
REMARK    1  A    between atoms: N_4  and  C_1 
REMARK    2  A    between atoms: N_8  and  C_1 
REMARK       I    between atoms: C_2  and  N_3 
REMARK    3  A    between atoms: C_6  and  C_2 
REMARK    4  A    between atoms: N_3  and  N_4 
REMARK    5  A    between atoms: C_17  and  N_8 
REMARK    6  A    between atoms: C_11  and  C_17 
ROOT
ATOM      1  C   UNL d   1     -50.389  25.764  33.608  0.00  0.00     0.297 C 
ATOM      2  N   UNL d   1     -50.540  24.939  33.575  0.00  0.00    -0.103 NA
ATOM      3  O   UNL d   1     -49.619  26.027  33.696  0.00  0.00    -0.264 OA
ENDROOT
BRANCH   1   4
ATOM      4  C   UNL d   1     -51.023  26.310  33.552  0.00  0.00     0.059 A 
ATOM      5  C   UNL d   1     -50.877  27.102  33.685  0.00  0.00     0.005 A 
ATOM      6  C   UNL d   1     -51.495  27.647  33.632  0.00  0.00     0.007 A 
ATOM      7  C   UNL d   1     -52.250  27.392  33.445  0.00  0.00     0.035 A 
ATOM      8  C   UNL d   1     -52.407  26.586  33.308  0.00  0.00     0.007 A 
ATOM      9 BR   UNL d   1     -52.888  27.950  33.389  0.00  0.00    -0.049 Br
ATOM     10  C   UNL d   1     -51.779  26.055  33.365  0.00  0.00     0.005 A 
ENDBRANCH   1   4
BRANCH   2  11
ATOM     11  N   UNL d   1     -51.328  24.671  33.485  0.00  0.00    -0.114 NA
BRANCH  11  12
ATOM     12  C   UNL d   1     -51.493  23.877  33.497  0.00  0.00     0.241 C 
ATOM     13  S   UNL d   1     -50.900  23.331  33.689  0.00  0.00    -0.035 SA
BRANCH  12  14
ATOM     14  N   UNL d   1     -52.264  23.604  33.317  0.00  0.00    -0.215 NA
BRANCH  14  15
ATOM     15  C   UNL d   1     -52.911  23.886  33.751  0.00  0.00     0.102 C 
BRANCH  15  16
ATOM     16  C   UNL d   1     -52.984  23.688  34.548  0.00  0.00     0.021 C 
ATOM     17  C   UNL d   1     -53.664  23.330  34.824  0.00  0.00     0.002 C 
ENDBRANCH  15  16
ENDBRANCH  14  15
ENDBRANCH  12  14
ENDBRANCH  11  12
ENDBRANCH   2  11
TORSDOF 6
ENDMDL
