MODEL 1
REMARK VINA RESULT:      -1.6      0.000      0.000
REMARK  3 active torsions:
REMARK  status: ('A' for Active; 'I' for Inactive)
REMARK    1  A    between atoms: C_6  and  C_1 
REMARK    2  A    between atoms: O_18  and  C_11 
REMARK    3  A    between atoms: O_19  and  C_13 
ROOT
ATOM      1  C   UNL d   1      30.366  16.814 -24.462  0.00  0.00     0.064 A 
ATOM      2  C   UNL d   1      29.780  17.094 -23.944  0.00  0.00     0.199 A 
ATOM      3  C   UNL d   1      29.072  16.685 -23.860  0.00  0.00     0.062 A 
ATOM      4  C   UNL d   1      30.235  16.122 -24.892  0.00  0.00     0.126 A 
ATOM      5  C   UNL d   1      28.941  15.993 -24.291  0.00  0.00     0.106 A 
ATOM      6  O   UNL d   1      29.519  15.711 -24.805  0.00  0.00    -0.305 OA
ATOM      7  C   UNL d   1      28.493  16.966 -23.346  0.00  0.00     0.009 A 
ATOM      8  C   UNL d   1      28.232  15.582 -24.207  0.00  0.00     0.067 A 
ATOM      9  O   UNL d   1      29.911  17.786 -23.514  0.00  0.00    -0.286 OA
ATOM     10  C   UNL d   1      27.654  15.864 -23.693  0.00  0.00     0.198 A 
ATOM     11  C   UNL d   1      27.785  16.556 -23.262  0.00  0.00     0.042 A 
ATOM     12  O   UNL d   1      26.934  15.453 -23.604  0.00  0.00    -0.286 OA
ENDROOT
BRANCH   1  13
ATOM     13  C   UNL d   1      31.075  17.224 -24.546  0.00  0.00     0.007 A 
ATOM     14  C   UNL d   1      31.757  16.954 -24.164  0.00  0.00     0.026 A 
ATOM     15  C   UNL d   1      32.466  17.364 -24.247  0.00  0.00     0.116 A 
ATOM     16  C   UNL d   1      32.497  18.044 -24.713  0.00  0.00     0.116 A 
ATOM     17  C   UNL d   1      31.815  18.315 -25.096  0.00  0.00     0.026 A 
ATOM     18  C   UNL d   1      31.106  17.904 -25.012  0.00  0.00     0.002 A 
BRANCH  15  19
ATOM     19  O   UNL d   1      33.143  17.094 -23.866  0.00  0.00    -0.326 OA
ATOM     20  C   UNL d   1      33.136  16.368 -23.474  0.00  0.00     0.181 C 
ENDBRANCH  15  19
BRANCH  16  21
ATOM     21  O   UNL d   1      33.206  18.462 -24.802  0.00  0.00    -0.326 OA
ATOM     22  C   UNL d   1      33.190  19.244 -25.080  0.00  0.00     0.181 C 
ENDBRANCH  16  21
ENDBRANCH   1  13
TORSDOF 3
ENDMDL
MODEL 2
REMARK VINA RESULT:      -1.6      4.001      5.850
REMARK  3 active torsions:
REMARK  status: ('A' for Active; 'I' for Inactive)
REMARK    1  A    between atoms: C_6  and  C_1 
REMARK    2  A    between atoms: O_18  and  C_11 
REMARK    3  A    between atoms: O_19  and  C_13 
ROOT
ATOM      1  C   UNL d   1      33.062  20.730 -22.352  0.00  0.00     0.064 A 
ATOM      2  C   UNL d   1      32.992  19.928 -22.148  0.00  0.00     0.199 A 
ATOM      3  C   UNL d   1      33.046  19.347 -22.728  0.00  0.00     0.062 A 
ATOM      4  C   UNL d   1      33.187  20.942 -23.140  0.00  0.00     0.126 A 
ATOM      5  C   UNL d   1      33.170  19.560 -23.515  0.00  0.00     0.106 A 
ATOM      6  O   UNL d   1      33.241  20.353 -23.723  0.00  0.00    -0.305 OA
ATOM      7  C   UNL d   1      32.975  18.553 -22.522  0.00  0.00     0.009 A 
ATOM      8  C   UNL d   1      33.224  18.978 -24.097  0.00  0.00     0.067 A 
ATOM      9  O   UNL d   1      32.867  19.715 -21.361  0.00  0.00    -0.286 OA
ATOM     10  C   UNL d   1      33.154  18.185 -23.889  0.00  0.00     0.198 A 
ATOM     11  C   UNL d   1      33.029  17.972 -23.102  0.00  0.00     0.042 A 
ATOM     12  O   UNL d   1      33.208  17.591 -24.473  0.00  0.00    -0.286 OA
ENDROOT
BRANCH   1  13
ATOM     13  C   UNL d   1      33.008  21.311 -21.772  0.00  0.00     0.007 A 
ATOM     14  C   UNL d   1      32.721  22.062 -21.964  0.00  0.00     0.026 A 
ATOM     15  C   UNL d   1      32.667  22.644 -21.384  0.00  0.00     0.116 A 
ATOM     16  C   UNL d   1      32.899  22.478 -20.610  0.00  0.00     0.116 A 
ATOM     17  C   UNL d   1      33.185  21.726 -20.417  0.00  0.00     0.026 A 
ATOM     18  C   UNL d   1      33.240  21.144 -20.998  0.00  0.00     0.002 A 
BRANCH  15  19
ATOM     19  O   UNL d   1      32.382  23.391 -21.577  0.00  0.00    -0.326 OA
ATOM     20  C   UNL d   1      32.297  23.609 -22.369  0.00  0.00     0.181 C 
ENDBRANCH  15  19
BRANCH  16  21
ATOM     21  O   UNL d   1      32.847  23.057 -20.022  0.00  0.00    -0.326 OA
ATOM     22  C   UNL d   1      33.036  22.863 -19.236  0.00  0.00     0.181 C 
ENDBRANCH  16  21
ENDBRANCH   1  13
TORSDOF 3
ENDMDL
MODEL 3
REMARK VINA RESULT:      -1.5      3.023      5.404
REMARK  3 active torsions:
REMARK  status: ('A' for Active; 'I' for Inactive)
REMARK    1  A    between atoms: C_6  and  C_1 
REMARK    2  A    between atoms: O_18  and  C_11 
REMARK    3  A    between atoms: O_19  and  C_13 
ROOT
ATOM      1  C   UNL d   1      33.040  19.777 -22.821  0.00  0.00     0.064 A 
ATOM      2  C   UNL d   1      32.985  20.012 -22.026  0.00  0.00     0.199 A 
ATOM      3  C   UNL d   1      33.049  20.806 -21.824  0.00  0.00     0.062 A 
ATOM      4  C   UNL d   1      33.158  20.345 -23.408  0.00  0.00     0.126 A 
ATOM      5  C   UNL d   1      33.168  21.374 -22.411  0.00  0.00     0.106 A 
ATOM      6  O   UNL d   1      33.222  21.146 -23.200  0.00  0.00    -0.305 OA
ATOM      7  C   UNL d   1      32.994  21.035 -21.035  0.00  0.00     0.009 A 
ATOM      8  C   UNL d   1      33.232  22.170 -22.208  0.00  0.00     0.067 A 
ATOM      9  O   UNL d   1      32.866  19.444 -21.439  0.00  0.00    -0.286 OA
ATOM     10  C   UNL d   1      33.177  22.397 -21.419  0.00  0.00     0.198 A 
ATOM     11  C   UNL d   1      33.058  21.830 -20.832  0.00  0.00     0.042 A 
ATOM     12  O   UNL d   1      33.241  23.202 -21.209  0.00  0.00    -0.286 OA
ENDROOT
BRANCH   1  13
ATOM     13  C   UNL d   1      32.976  18.982 -23.023  0.00  0.00     0.007 A 
ATOM     14  C   UNL d   1      32.645  18.765 -23.749  0.00  0.00     0.026 A 
ATOM     15  C   UNL d   1      32.581  17.969 -23.952  0.00  0.00     0.116 A 
ATOM     16  C   UNL d   1      32.847  17.388 -23.431  0.00  0.00     0.116 A 
ATOM     17  C   UNL d   1      33.177  17.604 -22.704  0.00  0.00     0.026 A 
ATOM     18  C   UNL d   1      33.241  18.401 -22.502  0.00  0.00     0.002 A 
BRANCH  15  19
ATOM     19  O   UNL d   1      32.252  17.756 -24.675  0.00  0.00    -0.326 OA
ATOM     20  C   UNL d   1      31.615  18.181 -24.981  0.00  0.00     0.181 C 
ENDBRANCH  15  19
BRANCH  16  21
ATOM     21  O   UNL d   1      32.786  16.587 -23.627  0.00  0.00    -0.326 OA
ATOM     22  C   UNL d   1      33.197  16.021 -23.180  0.00  0.00     0.181 C 
ENDBRANCH  16  21
ENDBRANCH   1  13
TORSDOF 3
ENDMDL
MODEL 4
REMARK VINA RESULT:      -1.2      3.249      4.868
REMARK  3 active torsions:
REMARK  status: ('A' for Active; 'I' for Inactive)
REMARK    1  A    between atoms: C_6  and  C_1 
REMARK    2  A    between atoms: O_18  and  C_11 
REMARK    3  A    between atoms: O_19  and  C_13 
ROOT
ATOM      1  C   UNL d   1      32.944  19.721 -22.531  0.00  0.00     0.064 A 
ATOM      2  C   UNL d   1      32.647  19.473 -23.266  0.00  0.00     0.199 A 
ATOM      3  C   UNL d   1      32.647  18.675 -23.464  0.00  0.00     0.062 A 
ATOM      4  C   UNL d   1      33.241  19.163 -22.000  0.00  0.00     0.126 A 
ATOM      5  C   UNL d   1      32.943  18.117 -22.933  0.00  0.00     0.106 A 
ATOM      6  O   UNL d   1      33.240  18.358 -22.204  0.00  0.00    -0.305 OA
ATOM      7  C   UNL d   1      32.351  18.433 -24.193  0.00  0.00     0.009 A 
ATOM      8  C   UNL d   1      32.944  17.317 -23.132  0.00  0.00     0.067 A 
ATOM      9  O   UNL d   1      32.350  20.031 -23.796  0.00  0.00    -0.286 OA
ATOM     10  C   UNL d   1      32.647  17.077 -23.861  0.00  0.00     0.198 A 
ATOM     11  C   UNL d   1      32.351  17.634 -24.392  0.00  0.00     0.042 A 
ATOM     12  O   UNL d   1      32.645  16.268 -24.067  0.00  0.00    -0.286 OA
ENDROOT
BRANCH   1  13
ATOM     13  C   UNL d   1      32.944  20.519 -22.333  0.00  0.00     0.007 A 
ATOM     14  C   UNL d   1      32.646  20.764 -21.601  0.00  0.00     0.026 A 
ATOM     15  C   UNL d   1      32.646  21.563 -21.402  0.00  0.00     0.116 A 
ATOM     16  C   UNL d   1      32.943  22.121 -21.932  0.00  0.00     0.116 A 
ATOM     17  C   UNL d   1      33.241  21.877 -22.665  0.00  0.00     0.026 A 
ATOM     18  C   UNL d   1      33.241  21.077 -22.863  0.00  0.00     0.002 A 
BRANCH  15  19
ATOM     19  O   UNL d   1      32.349  21.804 -20.674  0.00  0.00    -0.326 OA
ATOM     20  C   UNL d   1      32.450  21.328 -20.008  0.00  0.00     0.181 C 
ENDBRANCH  15  19
BRANCH  16  21
ATOM     21  O   UNL d   1      32.946  22.925 -21.740  0.00  0.00    -0.326 OA
ATOM     22  C   UNL d   1      33.007  23.492 -22.344  0.00  0.00     0.181 C 
ENDBRANCH  16  21
ENDBRANCH   1  13
TORSDOF 3
ENDMDL
MODEL 5
REMARK VINA RESULT:      -0.8      4.693      6.490
REMARK  3 active torsions:
REMARK  status: ('A' for Active; 'I' for Inactive)
REMARK    1  A    between atoms: C_6  and  C_1 
REMARK    2  A    between atoms: O_18  and  C_11 
REMARK    3  A    between atoms: O_19  and  C_13 
ROOT
ATOM      1  C   UNL d   1      33.081  21.216 -21.335  0.00  0.00     0.064 A 
ATOM      2  C   UNL d   1      32.894  22.025 -21.330  0.00  0.00     0.199 A 
ATOM      3  C   UNL d   1      32.866  22.439 -20.619  0.00  0.00     0.062 A 
ATOM      4  C   UNL d   1      33.241  20.828 -20.625  0.00  0.00     0.126 A 
ATOM      5  C   UNL d   1      33.025  22.051 -19.909  0.00  0.00     0.106 A 
ATOM      6  O   UNL d   1      33.212  21.249 -19.909  0.00  0.00    -0.305 OA
ATOM      7  C   UNL d   1      32.679  23.241 -20.618  0.00  0.00     0.009 A 
ATOM      8  C   UNL d   1      32.998  22.465 -19.197  0.00  0.00     0.067 A 
ATOM      9  O   UNL d   1      32.734  22.413 -22.040  0.00  0.00    -0.286 OA
ATOM     10  C   UNL d   1      32.811  23.267 -19.197  0.00  0.00     0.198 A 
ATOM     11  C   UNL d   1      32.652  23.655 -19.908  0.00  0.00     0.042 A 
ATOM     12  O   UNL d   1      32.782  23.691 -18.479  0.00  0.00    -0.286 OA
ENDROOT
BRANCH   1  13
ATOM     13  C   UNL d   1      33.109  20.802 -22.046  0.00  0.00     0.007 A 
ATOM     14  C   UNL d   1      33.032  19.979 -22.049  0.00  0.00     0.026 A 
ATOM     15  C   UNL d   1      33.060  19.564 -22.760  0.00  0.00     0.116 A 
ATOM     16  C   UNL d   1      33.164  19.970 -23.470  0.00  0.00     0.116 A 
ATOM     17  C   UNL d   1      33.241  20.794 -23.468  0.00  0.00     0.026 A 
ATOM     18  C   UNL d   1      33.213  21.208 -22.756  0.00  0.00     0.002 A 
BRANCH  15  19
ATOM     19  O   UNL d   1      32.984  18.745 -22.760  0.00  0.00    -0.326 OA
ATOM     20  C   UNL d   1      33.180  18.311 -22.086  0.00  0.00     0.181 C 
ENDBRANCH  15  19
BRANCH  16  21
ATOM     21  O   UNL d   1      33.193  19.561 -24.188  0.00  0.00    -0.326 OA
ATOM     22  C   UNL d   1      32.963  19.943 -24.889  0.00  0.00     0.181 C 
ENDBRANCH  16  21
ENDBRANCH   1  13
TORSDOF 3
ENDMDL
MODEL 6
REMARK VINA RESULT:       0.0      6.753      8.150
REMARK  3 active torsions:
REMARK  status: ('A' for Active; 'I' for Inactive)
REMARK    1  A    between atoms: C_6  and  C_1 
REMARK    2  A    between atoms: O_18  and  C_11 
REMARK    3  A    between atoms: O_19  and  C_13 
ROOT
ATOM      1  C   UNL d   1      33.142  22.191 -19.384  0.00  0.00     0.064 A 
ATOM      2  C   UNL d   1      33.097  22.920 -18.989  0.00  0.00     0.199 A 
ATOM      3  C   UNL d   1      33.125  22.947 -18.167  0.00  0.00     0.062 A 
ATOM      4  C   UNL d   1      33.213  21.493 -18.949  0.00  0.00     0.126 A 
ATOM      5  C   UNL d   1      33.197  22.250 -17.733  0.00  0.00     0.106 A 
ATOM      6  O   UNL d   1      33.241  21.525 -18.120  0.00  0.00    -0.305 OA
ATOM      7  C   UNL d   1      33.081  23.672 -17.779  0.00  0.00     0.009 A 
ATOM      8  C   UNL d   1      33.225  22.277 -16.910  0.00  0.00     0.067 A 
ATOM      9  O   UNL d   1      33.026  23.617 -19.424  0.00  0.00    -0.286 OA
ATOM     10  C   UNL d   1      33.181  23.002 -16.523  0.00  0.00     0.198 A 
ATOM     11  C   UNL d   1      33.109  23.700 -16.957  0.00  0.00     0.042 A 
ATOM     12  O   UNL d   1      33.208  23.036 -15.689  0.00  0.00    -0.286 OA
ENDROOT
BRANCH   1  13
ATOM     13  C   UNL d   1      33.114  22.163 -20.206  0.00  0.00     0.007 A 
ATOM     14  C   UNL d   1      32.977  21.445 -20.592  0.00  0.00     0.026 A 
ATOM     15  C   UNL d   1      32.950  21.417 -21.414  0.00  0.00     0.116 A 
ATOM     16  C   UNL d   1      33.058  22.106 -21.855  0.00  0.00     0.116 A 
ATOM     17  C   UNL d   1      33.194  22.825 -21.469  0.00  0.00     0.026 A 
ATOM     18  C   UNL d   1      33.222  22.852 -20.646  0.00  0.00     0.002 A 
BRANCH  15  19
ATOM     19  O   UNL d   1      32.814  20.701 -21.796  0.00  0.00    -0.326 OA
ATOM     20  C   UNL d   1      33.146  20.006 -21.501  0.00  0.00     0.181 C 
ENDBRANCH  15  19
BRANCH  16  21
ATOM     21  O   UNL d   1      33.031  22.086 -22.681  0.00  0.00    -0.326 OA
ATOM     22  C   UNL d   1      33.012  22.797 -23.109  0.00  0.00     0.181 C 
ENDBRANCH  16  21
ENDBRANCH   1  13
TORSDOF 3
ENDMDL
