MODEL 1
REMARK VINA RESULT:      32.0      0.000      0.000
REMARK  3 active torsions:
REMARK  status: ('A' for Active; 'I' for Inactive)
REMARK    1  A    between atoms: C_7  and  C_3 
REMARK    2  A    between atoms: C_10  and  C_5 
REMARK    3  A    between atoms: C_9  and  C_7 
ROOT
ATOM      1  C   UNL d   1      58.085  49.654  50.747  0.00  0.00     0.101 A 
ATOM      2  O   UNL d   1      58.792  49.659  50.317  0.00  0.00    -0.307 OA
ATOM      3  C   UNL d   1      59.428  49.692  50.846  0.00  0.00     0.101 A 
ATOM      4  C   UNL d   1      58.297  49.683  51.546  0.00  0.00     0.027 A 
ATOM      5  C   UNL d   1      59.108  49.706  51.601  0.00  0.00     0.027 A 
ENDROOT
BRANCH   3   6
ATOM      6  C   UNL d   1      60.243  49.707  50.664  0.00  0.00     0.036 C 
BRANCH   6   7
ATOM      7  C   UNL d   1      60.788  49.451  51.229  0.00  0.00     0.091 A 
ATOM      8  C   UNL d   1      61.289  48.798  51.072  0.00  0.00     0.286 A 
ATOM      9  N   UNL d   1      61.768  48.670  51.727  0.00  0.00    -0.190 NA
ATOM     10  O   UNL d   1      61.296  48.352  50.365  0.00  0.00    -0.265 OA
ATOM     11  C   UNL d   1      61.586  49.213  52.276  0.00  0.00     0.169 A 
ATOM     12  S   UNL d   1      60.983  49.708  51.994  0.00  0.00    -0.052 SA
ATOM     13  S   UNL d   1      61.955  49.254  53.005  0.00  0.00    -0.050 SA
ENDBRANCH   6   7
ENDBRANCH   3   6
BRANCH   1  14
ATOM     14  C   UNL d   1      57.455  49.622  50.242  0.00  0.00     0.033 A 
ATOM     15  C   UNL d   1      56.685  49.524  50.552  0.00  0.00     0.060 A 
ATOM     16 CL   UNL d   1      56.566  49.460  51.361  0.00  0.00    -0.082 Cl
ATOM     17  C   UNL d   1      56.033  49.490  50.051  0.00  0.00     0.011 A 
ATOM     18  C   UNL d   1      56.149  49.554  49.235  0.00  0.00     0.001 A 
ATOM     19  C   UNL d   1      56.919  49.652  48.924  0.00  0.00     0.000 A 
ATOM     20  C   UNL d   1      57.553  49.684  49.438  0.00  0.00     0.003 A 
ENDBRANCH   1  14
TORSDOF 3
ENDMDL
MODEL 2
REMARK VINA RESULT:      33.9      1.017      1.156
REMARK  3 active torsions:
REMARK  status: ('A' for Active; 'I' for Inactive)
REMARK    1  A    between atoms: C_7  and  C_3 
REMARK    2  A    between atoms: C_10  and  C_5 
REMARK    3  A    between atoms: C_9  and  C_7 
ROOT
ATOM      1  C   UNL d   1      58.073  49.671  50.767  0.00  0.00     0.101 A 
ATOM      2  O   UNL d   1      58.805  49.673  50.382  0.00  0.00    -0.307 OA
ATOM      3  C   UNL d   1      59.407  49.696  50.949  0.00  0.00     0.101 A 
ATOM      4  C   UNL d   1      58.235  49.692  51.577  0.00  0.00     0.027 A 
ATOM      5  C   UNL d   1      59.042  49.707  51.683  0.00  0.00     0.027 A 
ENDROOT
BRANCH   3   6
ATOM      6  C   UNL d   1      60.232  49.705  50.818  0.00  0.00     0.036 C 
BRANCH   6   7
ATOM      7  C   UNL d   1      60.649  48.992  50.813  0.00  0.00     0.091 A 
ATOM      8  C   UNL d   1      61.321  48.889  51.301  0.00  0.00     0.286 A 
ATOM      9  N   UNL d   1      61.620  48.133  51.181  0.00  0.00    -0.190 NA
ATOM     10  O   UNL d   1      61.634  49.462  51.823  0.00  0.00    -0.265 OA
ATOM     11  C   UNL d   1      61.163  47.769  50.644  0.00  0.00     0.169 A 
ATOM     12  S   UNL d   1      60.556  48.278  50.400  0.00  0.00    -0.052 SA
ATOM     13  S   UNL d   1      61.296  47.004  50.387  0.00  0.00    -0.050 SA
ENDBRANCH   6   7
ENDBRANCH   3   6
BRANCH   1  14
ATOM     14  C   UNL d   1      57.475  49.650  50.223  0.00  0.00     0.033 A 
ATOM     15  C   UNL d   1      56.686  49.566  50.486  0.00  0.00     0.060 A 
ATOM     16 CL   UNL d   1      56.515  49.505  51.285  0.00  0.00    -0.082 Cl
ATOM     17  C   UNL d   1      56.066  49.542  49.945  0.00  0.00     0.011 A 
ATOM     18  C   UNL d   1      56.233  49.603  49.137  0.00  0.00     0.001 A 
ATOM     19  C   UNL d   1      57.023  49.687  48.875  0.00  0.00     0.000 A 
ATOM     20  C   UNL d   1      57.623  49.708  49.427  0.00  0.00     0.003 A 
ENDBRANCH   1  14
TORSDOF 3
ENDMDL
