MODEL 1
REMARK VINA RESULT:      69.6      0.000      0.000
REMARK  4 active torsions:
REMARK  status: ('A' for Active; 'I' for Inactive)
REMARK    1  A    between atoms: C_4  and  S_1 
REMARK    2  A    between atoms: N_8  and  S_1 
REMARK    3  A    between atoms: C_5  and  C_11 
REMARK    4  A    between atoms: C_16  and  N_8 
ROOT
ATOM      1  C   UNL d   1      59.291  49.162  50.966  0.00  0.00     0.021 A 
ATOM      2  C   UNL d   1      60.466  48.334  50.928  0.00  0.00     0.094 A 
ATOM      3  C   UNL d   1      59.684  48.468  50.712  0.00  0.00     0.021 A 
ATOM      4  C   UNL d   1      59.688  49.708  51.433  0.00  0.00     0.002 A 
ATOM      5  C   UNL d   1      60.479  49.581  51.657  0.00  0.00     0.002 A 
ATOM      6  C   UNL d   1      60.872  48.887  51.402  0.00  0.00     0.020 A 
ENDROOT
BRANCH   2   7
ATOM      7  N   UNL d   1      60.849  47.657  50.680  0.00  0.00    -0.158 NA
BRANCH   7   8
ATOM      8  S   UNL d   1      61.570  47.713  50.287  0.00  0.00     0.287 S 
ATOM      9  O   UNL d   1      61.626  48.500  50.492  0.00  0.00    -0.198 OA
ATOM     10  O   UNL d   1      62.297  47.781  49.894  0.00  0.00    -0.198 OA
BRANCH   8  11
ATOM     11  C   UNL d   1      61.522  46.918  50.075  0.00  0.00     0.133 A 
ATOM     12  C   UNL d   1      62.140  46.569  49.658  0.00  0.00     0.155 A 
ATOM     13  C   UNL d   1      62.100  45.778  49.444  0.00  0.00     0.060 A 
ATOM     14  F   UNL d   1      62.805  47.014  49.454  0.00  0.00    -0.203 F 
ATOM     15  C   UNL d   1      61.431  45.326  49.648  0.00  0.00     0.142 A 
ATOM     16  C   UNL d   1      60.813  45.679  50.066  0.00  0.00     0.030 A 
ATOM     17  F   UNL d   1      61.388  44.529  49.433  0.00  0.00    -0.204 F 
ATOM     18  C   UNL d   1      60.856  46.467  50.278  0.00  0.00     0.018 A 
ENDBRANCH   8  11
ENDBRANCH   7   8
ENDBRANCH   2   7
BRANCH   1  19
ATOM     19  C   UNL d   1      58.509  49.296  50.750  0.00  0.00     0.101 A 
ATOM     20  N   UNL d   1      57.867  49.333  51.263  0.00  0.00    -0.221 NA
ATOM     21  C   UNL d   1      57.182  49.477  50.816  0.00  0.00     0.179 A 
ATOM     22  S   UNL d   1      56.376  49.588  50.848  0.00  0.00    -0.048 SA
ATOM     23  N   UNL d   1      57.420  49.527  50.015  0.00  0.00    -0.282 N 
ATOM     24  C   UNL d   1      56.097  49.708  50.080  0.00  0.00     0.057 A 
ATOM     25  C   UNL d   1      56.741  49.671  49.562  0.00  0.00     0.089 A 
ATOM     26  C   UNL d   1      58.240  49.413  49.988  0.00  0.00     0.101 A 
ENDBRANCH   1  19
TORSDOF 4
ENDMDL
MODEL 2
REMARK VINA RESULT:      71.8      2.320      4.688
REMARK  4 active torsions:
REMARK  status: ('A' for Active; 'I' for Inactive)
REMARK    1  A    between atoms: C_4  and  S_1 
REMARK    2  A    between atoms: N_8  and  S_1 
REMARK    3  A    between atoms: C_5  and  C_11 
REMARK    4  A    between atoms: C_16  and  N_8 
ROOT
ATOM      1  C   UNL d   1      60.949  47.881  50.668  0.00  0.00     0.021 A 
ATOM      2  C   UNL d   1      60.077  49.018  50.784  0.00  0.00     0.094 A 
ATOM      3  C   UNL d   1      60.179  48.209  50.675  0.00  0.00     0.021 A 
ATOM      4  C   UNL d   1      61.601  48.368  50.769  0.00  0.00     0.002 A 
ATOM      5  C   UNL d   1      61.508  49.187  50.880  0.00  0.00     0.002 A 
ATOM      6  C   UNL d   1      60.738  49.515  50.887  0.00  0.00     0.020 A 
ENDROOT
BRANCH   2   7
ATOM      7  N   UNL d   1      59.325  49.338  50.791  0.00  0.00    -0.158 NA
BRANCH   7   8
ATOM      8  S   UNL d   1      58.949  49.522  50.083  0.00  0.00     0.287 S 
ATOM      9  O   UNL d   1      59.664  49.492  49.691  0.00  0.00    -0.198 OA
ATOM     10  O   UNL d   1      58.582  49.707  49.363  0.00  0.00    -0.198 OA
BRANCH   8  11
ATOM     11  C   UNL d   1      58.223  49.554  50.471  0.00  0.00     0.133 A 
ATOM     12  C   UNL d   1      57.527  49.474  50.039  0.00  0.00     0.155 A 
ATOM     13  C   UNL d   1      56.800  49.505  50.418  0.00  0.00     0.060 A 
ATOM     14  F   UNL d   1      57.557  49.362  49.222  0.00  0.00    -0.203 F 
ATOM     15  C   UNL d   1      56.765  49.619  51.243  0.00  0.00     0.142 A 
ATOM     16  C   UNL d   1      57.466  49.698  51.672  0.00  0.00     0.030 A 
ATOM     17  F   UNL d   1      56.034  49.650  51.627  0.00  0.00    -0.204 F 
ATOM     18  C   UNL d   1      58.188  49.667  51.292  0.00  0.00     0.018 A 
ENDBRANCH   8  11
ENDBRANCH   7   8
ENDBRANCH   2   7
BRANCH   1  19
ATOM     19  C   UNL d   1      61.051  47.072  50.559  0.00  0.00     0.101 A 
ATOM     20  N   UNL d   1      60.778  46.481  51.062  0.00  0.00    -0.221 NA
ATOM     21  C   UNL d   1      61.001  45.745  50.746  0.00  0.00     0.179 A 
ATOM     22  S   UNL d   1      60.974  44.939  50.853  0.00  0.00    -0.048 SA
ATOM     23  N   UNL d   1      61.417  45.900  50.037  0.00  0.00    -0.282 N 
ATOM     24  C   UNL d   1      61.367  44.577  50.223  0.00  0.00     0.057 A 
ATOM     25  C   UNL d   1      61.642  45.170  49.716  0.00  0.00     0.089 A 
ATOM     26  C   UNL d   1      61.441  46.722  49.933  0.00  0.00     0.101 A 
ENDBRANCH   1  19
TORSDOF 4
ENDMDL
