MODEL 1
REMARK VINA RESULT:       9.7      0.000      0.000
REMARK  3 active torsions:
REMARK  status: ('A' for Active; 'I' for Inactive)
REMARK    1  A    between atoms: S_2  and  C_5 
REMARK    2  A    between atoms: C_7  and  S_2 
REMARK    3  A    between atoms: C_3  and  C_7 
ROOT
ATOM      1  C   UNL d   1     -52.072  24.430  33.331  0.00  0.00     0.087 A 
ATOM      2  N   UNL d   1     -52.787  24.845  33.327  0.00  0.00    -0.244 NA
ATOM      3  C   UNL d   1     -51.355  24.834  33.320  0.00  0.00     0.043 A 
ATOM      4  C   UNL d   1     -52.087  23.605  33.345  0.00  0.00     0.018 A 
ATOM      5  C   UNL d   1     -50.655  23.598  33.338  0.00  0.00     0.001 A 
ATOM      6  C   UNL d   1     -53.504  24.433  33.338  0.00  0.00     0.099 A 
ATOM      7  C   UNL d   1     -50.640  24.418  33.324  0.00  0.00     0.008 A 
ATOM      8  C   UNL d   1     -51.372  23.189  33.349  0.00  0.00     0.002 A 
ATOM      9  C   UNL d   1     -52.790  23.193  33.356  0.00  0.00     0.003 A 
ATOM     10  C   UNL d   1     -53.506  23.604  33.353  0.00  0.00     0.021 A 
ENDROOT
BRANCH   3  11
ATOM     11  S   UNL d   1     -51.353  25.663  33.306  0.00  0.00    -0.101 SA
BRANCH  11  12
ATOM     12  C   UNL d   1     -50.762  26.252  33.321  0.00  0.00     0.160 C 
BRANCH  12  13
ATOM     13  C   UNL d   1     -50.748  27.064  33.487  0.00  0.00     0.197 C 
ATOM     14  O   UNL d   1     -50.072  27.408  33.817  0.00  0.00    -0.647 OA
ATOM     15  O   UNL d   1     -51.411  27.531  33.322  0.00  0.00    -0.647 OA
ENDBRANCH  12  13
ENDBRANCH  11  12
ENDBRANCH   3  11
TORSDOF 3
ENDMDL
