MODEL 1
REMARK VINA RESULT:      -6.4      0.000      0.000
REMARK  4 active torsions:
REMARK  status: ('A' for Active; 'I' for Inactive)
REMARK    1  A    between atoms: N_4  and  S_1 
REMARK    2  A    between atoms: C_6  and  S_1 
REMARK    3  A    between atoms: N_3  and  C_2 
REMARK    4  A    between atoms: C_7  and  N_4 
ROOT
ATOM      1  S   UNL d   1     -41.253-122.650 -52.081  0.00  0.00     0.285 S 
ATOM      2  O   UNL d   1     -41.234-123.490 -51.945  0.00  0.00    -0.198 OA
ATOM      3  O   UNL d   1     -41.266-121.819 -52.174  0.00  0.00    -0.198 OA
ENDROOT
BRANCH   1   4
ATOM      4  N   UNL d   1     -41.122-122.526 -51.248  0.00  0.00    -0.158 NA
BRANCH   4   5
ATOM      5  C   UNL d   1     -41.689-122.791 -50.687  0.00  0.00     0.094 A 
ATOM      6  C   UNL d   1     -42.343-122.297 -50.523  0.00  0.00     0.023 A 
ATOM      7  C   UNL d   1     -42.910-122.562 -49.961  0.00  0.00     0.044 A 
ATOM      8  C   UNL d   1     -42.788-123.304 -49.597  0.00  0.00     0.196 A 
ATOM      9  C   UNL d   1     -42.146-123.779 -49.764  0.00  0.00     0.044 A 
ATOM     10  O   UNL d   1     -43.359-123.570 -49.032  0.00  0.00    -0.287 OA
ATOM     11  C   UNL d   1     -41.579-123.514 -50.326  0.00  0.00     0.023 A 
ENDBRANCH   4   5
ENDBRANCH   1   4
BRANCH   1  12
ATOM     12  C   UNL d   1     -41.381-122.766 -52.892  0.00  0.00     0.107 A 
ATOM     13  C   UNL d   1     -41.772-122.178 -53.318  0.00  0.00     0.037 A 
ATOM     14  C   UNL d   1     -41.897-122.295 -54.124  0.00  0.00     0.138 A 
ATOM     15  C   UNL d   1     -41.642-122.975 -54.490  0.00  0.00     0.080 A 
ATOM     16  C   UNL d   1     -41.251-123.563 -54.065  0.00  0.00     0.014 A 
ATOM     17 CL   UNL d   1     -41.771-123.089 -55.307  0.00  0.00    -0.081 Cl
ATOM     18  C   UNL d   1     -41.126-123.445 -53.258  0.00  0.00     0.014 A 
BRANCH  14  19
ATOM     19  N   UNL d   1     -42.292-121.704 -54.560  0.00  0.00    -0.113 N 
ATOM     20  O   UNL d   1     -43.114-121.651 -54.542  0.00  0.00    -0.532 OA
ATOM     21  O   UNL d   1     -41.872-121.174 -55.008  0.00  0.00    -0.532 OA
ENDBRANCH  14  19
ENDBRANCH   1  12
TORSDOF 4
ENDMDL
MODEL 2
REMARK VINA RESULT:      -4.8      2.077      4.532
REMARK  4 active torsions:
REMARK  status: ('A' for Active; 'I' for Inactive)
REMARK    1  A    between atoms: N_4  and  S_1 
REMARK    2  A    between atoms: C_6  and  S_1 
REMARK    3  A    between atoms: N_3  and  C_2 
REMARK    4  A    between atoms: C_7  and  N_4 
ROOT
ATOM      1  S   UNL d   1     -41.663-122.485 -50.791  0.00  0.00     0.285 S 
ATOM      2  O   UNL d   1     -42.130-121.774 -50.766  0.00  0.00    -0.198 OA
ATOM      3  O   UNL d   1     -41.183-123.167 -50.848  0.00  0.00    -0.198 OA
ENDROOT
BRANCH   1   4
ATOM      4  N   UNL d   1     -41.220-122.154 -51.439  0.00  0.00    -0.158 NA
BRANCH   4   5
ATOM      5  C   UNL d   1     -41.372-122.404 -52.227  0.00  0.00     0.094 A 
ATOM      6  C   UNL d   1     -41.766-121.876 -52.740  0.00  0.00     0.023 A 
ATOM      7  C   UNL d   1     -41.918-122.126 -53.528  0.00  0.00     0.044 A 
ATOM      8  C   UNL d   1     -41.667-122.889 -53.756  0.00  0.00     0.196 A 
ATOM      9  C   UNL d   1     -41.282-123.398 -53.247  0.00  0.00     0.044 A 
ATOM     10  O   UNL d   1     -41.820-123.141 -54.549  0.00  0.00    -0.287 OA
ATOM     11  C   UNL d   1     -41.129-123.148 -52.459  0.00  0.00     0.023 A 
ENDBRANCH   4   5
ENDBRANCH   1   4
BRANCH   1  12
ATOM     12  C   UNL d   1     -42.092-122.811 -50.161  0.00  0.00     0.107 A 
ATOM     13  C   UNL d   1     -41.750-122.812 -49.410  0.00  0.00     0.037 A 
ATOM     14  C   UNL d   1     -42.179-123.137 -48.785  0.00  0.00     0.138 A 
ATOM     15  C   UNL d   1     -42.920-123.448 -48.906  0.00  0.00     0.080 A 
ATOM     16  C   UNL d   1     -43.262-123.447 -49.657  0.00  0.00     0.014 A 
ATOM     17 CL   UNL d   1     -43.350-123.776 -48.270  0.00  0.00    -0.081 Cl
ATOM     18  C   UNL d   1     -42.833-123.122 -50.281  0.00  0.00     0.014 A 
BRANCH  14  19
ATOM     19  N   UNL d   1     -41.838-123.141 -48.023  0.00  0.00    -0.113 N 
ATOM     20  O   UNL d   1     -42.119-122.632 -47.439  0.00  0.00    -0.532 OA
ATOM     21  O   UNL d   1     -41.228-123.645 -47.849  0.00  0.00    -0.532 OA
ENDBRANCH  14  19
ENDBRANCH   1  12
TORSDOF 4
ENDMDL
