MODEL 1
REMARK VINA RESULT:       2.2      0.000      0.000
REMARK  7 active torsions:
REMARK  status: ('A' for Active; 'I' for Inactive)
REMARK    1  A    between atoms: C_14  and  N_3 
REMARK    2  A    between atoms: C_10  and  C_6 
REMARK    3  A    between atoms: C_15  and  C_14 
REMARK    4  A    between atoms: C_20  and  C_15 
REMARK    5  A    between atoms: N_16  and  C_20 
REMARK    6  A    between atoms: C_23  and  N_16 
REMARK    7  A    between atoms: C_24  and  N_16 
ROOT
ATOM      1  C   UNL d   1     -41.558-121.952 -52.942  0.00  0.00     0.083 A 
ATOM      2  C   UNL d   1     -41.588-122.766 -52.940  0.00  0.00     0.161 A 
ATOM      3  N   UNL d   1     -41.302-122.375 -51.718  0.00  0.00    -0.272 N 
ATOM      4  C   UNL d   1     -41.430-123.028 -52.185  0.00  0.00     0.288 A 
ATOM      5  C   UNL d   1     -41.696-121.536 -53.632  0.00  0.00     0.201 A 
ATOM      6  C   UNL d   1     -41.381-121.712 -52.183  0.00  0.00     0.074 A 
ATOM      7  O   UNL d   1     -41.758-123.168 -53.637  0.00  0.00    -0.302 OA
ATOM      8  C   UNL d   1     -41.866-121.944 -54.329  0.00  0.00     0.062 A 
ATOM      9  C   UNL d   1     -41.896-122.758 -54.327  0.00  0.00     0.103 A 
ATOM     10  O   UNL d   1     -41.405-123.816 -51.940  0.00  0.00    -0.264 OA
ATOM     11  O   UNL d   1     -41.665-120.700 -53.634  0.00  0.00    -0.286 OA
ATOM     12  C   UNL d   1     -42.003-121.529 -55.020  0.00  0.00     0.005 A 
ATOM     13  C   UNL d   1     -42.063-123.160 -55.016  0.00  0.00     0.025 A 
ATOM     14  C   UNL d   1     -42.171-121.936 -55.708  0.00  0.00     0.000 A 
ATOM     15  C   UNL d   1     -42.201-122.750 -55.706  0.00  0.00     0.002 A 
ENDROOT
BRANCH   3  16
ATOM     16  C   UNL d   1     -41.123-122.380 -50.909  0.00  0.00     0.085 C 
BRANCH  16  17
ATOM     17  C   UNL d   1     -41.448-122.968 -50.410  0.00  0.00     0.038 C 
BRANCH  17  18
ATOM     18  C   UNL d   1     -41.337-122.925 -49.590  0.00  0.00     0.082 C 
BRANCH  18  19
ATOM     19  N   UNL d   1     -41.944-123.165 -49.076  0.00  0.00    -0.302 N 
BRANCH  19  20
ATOM     20  C   UNL d   1     -41.950-122.897 -48.288  0.00  0.00     0.080 C 
ATOM     21  C   UNL d   1     -41.475-123.274 -47.716  0.00  0.00     0.021 C 
ENDBRANCH  19  20
BRANCH  19  22
ATOM     22  C   UNL d   1     -42.545-123.673 -49.348  0.00  0.00     0.080 C 
ATOM     23  C   UNL d   1     -43.310-123.631 -49.021  0.00  0.00     0.021 C 
ENDBRANCH  19  22
ENDBRANCH  18  19
ENDBRANCH  17  18
ENDBRANCH  16  17
ENDBRANCH   3  16
BRANCH   6  24
ATOM     24  C   UNL d   1     -41.296-120.922 -51.933  0.00  0.00     0.036 A 
ATOM     25  C   UNL d   1     -41.236-120.746 -51.122  0.00  0.00     0.100 A 
ATOM     26  N   UNL d   1     -41.151-119.961 -50.872  0.00  0.00    -0.242 NA
ATOM     27  C   UNL d   1     -41.126-119.343 -51.433  0.00  0.00     0.099 A 
ATOM     28  C   UNL d   1     -41.187-119.522 -52.245  0.00  0.00     0.021 A 
ATOM     29  C   UNL d   1     -41.271-120.308 -52.495  0.00  0.00     0.005 A 
ENDBRANCH   6  24
TORSDOF 7
ENDMDL
MODEL 2
REMARK VINA RESULT:       4.0      1.130      4.307
REMARK  7 active torsions:
REMARK  status: ('A' for Active; 'I' for Inactive)
REMARK    1  A    between atoms: C_14  and  N_3 
REMARK    2  A    between atoms: C_10  and  C_6 
REMARK    3  A    between atoms: C_15  and  C_14 
REMARK    4  A    between atoms: C_20  and  C_15 
REMARK    5  A    between atoms: N_16  and  C_20 
REMARK    6  A    between atoms: C_23  and  N_16 
REMARK    7  A    between atoms: C_24  and  N_16 
ROOT
ATOM      1  C   UNL d   1     -41.810-122.212 -51.095  0.00  0.00     0.083 A 
ATOM      2  C   UNL d   1     -41.859-123.002 -51.283  0.00  0.00     0.161 A 
ATOM      3  N   UNL d   1     -41.406-122.369 -52.342  0.00  0.00    -0.272 N 
ATOM      4  C   UNL d   1     -41.610-123.100 -52.052  0.00  0.00     0.288 A 
ATOM      5  C   UNL d   1     -42.027-121.951 -50.351  0.00  0.00     0.201 A 
ATOM      6  C   UNL d   1     -41.529-121.820 -51.753  0.00  0.00     0.074 A 
ATOM      7  O   UNL d   1     -42.127-123.538 -50.719  0.00  0.00    -0.302 OA
ATOM      8  C   UNL d   1     -42.296-122.492 -49.789  0.00  0.00     0.062 A 
ATOM      9  C   UNL d   1     -42.345-123.282 -49.977  0.00  0.00     0.103 A 
ATOM     10  O   UNL d   1     -41.571-123.816 -52.462  0.00  0.00    -0.264 OA
ATOM     11  O   UNL d   1     -41.977-121.138 -50.158  0.00  0.00    -0.286 OA
ATOM     12  C   UNL d   1     -42.513-122.231 -49.046  0.00  0.00     0.005 A 
ATOM     13  C   UNL d   1     -42.611-123.817 -49.422  0.00  0.00     0.025 A 
ATOM     14  C   UNL d   1     -42.780-122.770 -48.492  0.00  0.00     0.000 A 
ATOM     15  C   UNL d   1     -42.828-123.561 -48.680  0.00  0.00     0.002 A 
ENDROOT
BRANCH   3  16
ATOM     16  C   UNL d   1     -41.123-122.206 -53.103  0.00  0.00     0.085 C 
BRANCH  16  17
ATOM     17  C   UNL d   1     -41.373-122.670 -53.753  0.00  0.00     0.038 C 
BRANCH  17  18
ATOM     18  C   UNL d   1     -41.375-122.349 -54.517  0.00  0.00     0.082 C 
BRANCH  18  19
ATOM     19  N   UNL d   1     -41.939-122.601 -55.072  0.00  0.00    -0.302 N 
BRANCH  19  20
ATOM     20  C   UNL d   1     -41.915-123.379 -55.364  0.00  0.00     0.080 C 
ATOM     21  C   UNL d   1     -42.596-123.717 -55.706  0.00  0.00     0.021 C 
ENDBRANCH  19  20
BRANCH  19  22
ATOM     22  C   UNL d   1     -42.527-122.074 -55.337  0.00  0.00     0.080 C 
ATOM     23  C   UNL d   1     -42.428-121.658 -56.051  0.00  0.00     0.021 C 
ENDBRANCH  19  22
ENDBRANCH  18  19
ENDBRANCH  17  18
ENDBRANCH  16  17
ENDBRANCH   3  16
BRANCH   6  24
ATOM     24  C   UNL d   1     -41.394-121.000 -51.808  0.00  0.00     0.036 A 
ATOM     25  C   UNL d   1     -41.261-120.554 -51.118  0.00  0.00     0.100 A 
ATOM     26  N   UNL d   1     -41.126-119.739 -51.171  0.00  0.00    -0.242 NA
ATOM     27  C   UNL d   1     -41.123-119.361 -51.916  0.00  0.00     0.099 A 
ATOM     28  C   UNL d   1     -41.257-119.811 -52.605  0.00  0.00     0.021 A 
ATOM     29  C   UNL d   1     -41.392-120.627 -52.552  0.00  0.00     0.005 A 
ENDBRANCH   6  24
TORSDOF 7
ENDMDL
