MODEL 1
REMARK VINA RESULT:      -5.0      0.000      0.000
REMARK  8 active torsions:
REMARK  status: ('A' for Active; 'I' for Inactive)
REMARK       I    between atoms: N_3  and  C_1 
REMARK    1  A    between atoms: C_11  and  C_1 
REMARK    2  A    between atoms: C_7  and  N_3 
REMARK    3  A    between atoms: C_5  and  O_8 
REMARK    4  A    between atoms: C_12  and  C_7 
REMARK    5  A    between atoms: O_8  and  C_15 
REMARK    6  A    between atoms: C_9  and  C_12 
REMARK    7  A    between atoms: C_19  and  C_11 
REMARK    8  A    between atoms: C_15  and  C_19 
ROOT
ATOM      1  C   UNL d   1      59.025   0.114  29.726  0.00  0.00     0.328 C 
ATOM      2  O   UNL d   1      59.602   0.646  29.979  0.00  0.00    -0.251 OA
ATOM      3  N   UNL d   1      59.247  -0.572  29.314  0.00  0.00    -0.362 NA
ENDROOT
BRANCH   1   4
ATOM      4  C   UNL d   1      58.230   0.262  29.883  0.00  0.00     0.078 C 
BRANCH   4   5
ATOM      5  C   UNL d   1      57.998   0.536  30.619  0.00  0.00     0.033 C 
BRANCH   5   6
ATOM      6  C   UNL d   1      57.409   0.144  31.042  0.00  0.00     0.123 C 
BRANCH   6   7
ATOM      7  O   UNL d   1      57.017   0.525  31.658  0.00  0.00    -0.305 OA
BRANCH   7   8
ATOM      8  C   UNL d   1      56.529   0.099  32.166  0.00  0.00     0.100 A 
ATOM      9  C   UNL d   1      55.970   0.493  32.638  0.00  0.00     0.025 A 
ATOM     10  C   UNL d   1      55.483   0.059  33.145  0.00  0.00     0.002 A 
ATOM     11  C   UNL d   1      54.930   0.454  33.611  0.00  0.00     0.000 C 
ATOM     12  C   UNL d   1      55.548  -0.762  33.188  0.00  0.00     0.000 A 
ATOM     13  C   UNL d   1      56.100  -1.157  32.723  0.00  0.00     0.002 A 
ATOM     14  C   UNL d   1      56.594  -0.730  32.210  0.00  0.00     0.025 A 
ENDBRANCH   7   8
ENDBRANCH   6   7
ENDBRANCH   5   6
ENDBRANCH   4   5
ENDBRANCH   1   4
BRANCH   3  15
ATOM     15  C   UNL d   1      59.468  -1.249  28.906  0.00  0.00     0.165 C 
BRANCH  15  16
ATOM     16  C   UNL d   1      60.135  -1.674  29.140  0.00  0.00     0.035 C 
BRANCH  16  17
ATOM     17  C   UNL d   1      60.208  -2.465  28.937  0.00  0.00     0.003 A 
ATOM     18  C   UNL d   1      59.553  -2.893  28.659  0.00  0.00     0.000 A 
ATOM     19  C   UNL d   1      59.632  -3.686  28.457  0.00  0.00     0.000 A 
ATOM     20  C   UNL d   1      60.365  -4.059  28.528  0.00  0.00     0.000 A 
ATOM     21  C   UNL d   1      61.021  -3.631  28.806  0.00  0.00     0.000 A 
ATOM     22  C   UNL d   1      60.940  -2.838  29.008  0.00  0.00     0.000 A 
ENDBRANCH  16  17
ENDBRANCH  15  16
ENDBRANCH   3  15
TORSDOF 8
ENDMDL
MODEL 2
REMARK VINA RESULT:      -3.2      1.369      6.215
REMARK  8 active torsions:
REMARK  status: ('A' for Active; 'I' for Inactive)
REMARK       I    between atoms: N_3  and  C_1 
REMARK    1  A    between atoms: C_11  and  C_1 
REMARK    2  A    between atoms: C_7  and  N_3 
REMARK    3  A    between atoms: C_5  and  O_8 
REMARK    4  A    between atoms: C_12  and  C_7 
REMARK    5  A    between atoms: O_8  and  C_15 
REMARK    6  A    between atoms: C_9  and  C_12 
REMARK    7  A    between atoms: C_19  and  C_11 
REMARK    8  A    between atoms: C_15  and  C_19 
ROOT
ATOM      1  C   UNL d   1      56.813  -0.481  31.504  0.00  0.00     0.328 C 
ATOM      2  O   UNL d   1      56.466  -1.208  31.328  0.00  0.00    -0.251 OA
ATOM      3  N   UNL d   1      56.441   0.037  32.035  0.00  0.00    -0.362 NA
ENDROOT
BRANCH   1   4
ATOM      4  C   UNL d   1      57.527  -0.268  31.152  0.00  0.00     0.078 C 
BRANCH   4   5
ATOM      5  C   UNL d   1      57.733  -0.571  30.419  0.00  0.00     0.033 C 
BRANCH   5   6
ATOM      6  C   UNL d   1      58.502  -0.489  30.137  0.00  0.00     0.123 C 
BRANCH   6   7
ATOM      7  O   UNL d   1      58.701  -0.764  29.386  0.00  0.00    -0.305 OA
BRANCH   7   8
ATOM      8  C   UNL d   1      59.482  -0.947  29.203  0.00  0.00     0.100 A 
ATOM      9  C   UNL d   1      59.764  -1.722  29.301  0.00  0.00     0.025 A 
ATOM     10  C   UNL d   1      60.550  -1.899  29.116  0.00  0.00     0.002 A 
ATOM     11  C   UNL d   1      60.827  -2.668  29.215  0.00  0.00     0.000 C 
ATOM     12  C   UNL d   1      61.057  -1.311  28.834  0.00  0.00     0.000 A 
ATOM     13  C   UNL d   1      60.782  -0.542  28.735  0.00  0.00     0.002 A 
ATOM     14  C   UNL d   1      59.994  -0.354  28.918  0.00  0.00     0.025 A 
ENDBRANCH   7   8
ENDBRANCH   6   7
ENDBRANCH   5   6
ENDBRANCH   4   5
ENDBRANCH   1   4
BRANCH   3  15
ATOM     15  C   UNL d   1      56.072   0.548  32.562  0.00  0.00     0.165 C 
BRANCH  15  16
ATOM     16  C   UNL d   1      56.247   0.509  33.367  0.00  0.00     0.035 C 
BRANCH  16  17
ATOM     17  C   UNL d   1      55.643   0.566  33.918  0.00  0.00     0.003 A 
ATOM     18  C   UNL d   1      54.849   0.604  33.675  0.00  0.00     0.000 A 
ATOM     19  C   UNL d   1      54.248   0.661  34.234  0.00  0.00     0.000 A 
ATOM     20  C   UNL d   1      54.432   0.682  35.038  0.00  0.00     0.000 A 
ATOM     21  C   UNL d   1      55.225   0.645  35.282  0.00  0.00     0.000 A 
ATOM     22  C   UNL d   1      55.826   0.587  34.722  0.00  0.00     0.000 A 
ENDBRANCH  16  17
ENDBRANCH  15  16
ENDBRANCH   3  15
TORSDOF 8
ENDMDL
