MODEL 1
REMARK VINA RESULT:      -3.7      0.000      0.000
REMARK  7 active torsions:
REMARK  status: ('A' for Active; 'I' for Inactive)
REMARK    1  A    between atoms: C_4  and  S_1 
REMARK    2  A    between atoms: N_10  and  S_1 
REMARK    3  A    between atoms: C_3  and  C_2 
REMARK       I    between atoms: N_6  and  C_3 
REMARK    4  A    between atoms: C_16  and  N_6 
REMARK    5  A    between atoms: C_19  and  N_10 
REMARK    6  A    between atoms: C_12  and  C_24 
REMARK    7  A    between atoms: C_24  and  C_19 
ROOT
ATOM      1  C   UNL d   1      31.714  16.868 -24.055  0.00  0.00     0.086 A 
ATOM      2  C   UNL d   1      32.711  17.864 -23.832  0.00  0.00     0.106 A 
ATOM      3  C   UNL d   1      31.977  17.535 -23.652  0.00  0.00     0.020 A 
ATOM      4  C   UNL d   1      32.187  16.526 -24.643  0.00  0.00     0.145 A 
ATOM      5  C   UNL d   1      33.181  17.525 -24.416  0.00  0.00     0.015 A 
ATOM      6  C   UNL d   1      32.918  16.855 -24.821  0.00  0.00     0.030 A 
ATOM      7  F   UNL d   1      31.931  15.863 -25.047  0.00  0.00    -0.204 F 
ENDROOT
BRANCH   2   8
ATOM      8  S   UNL d   1      32.977  18.534 -23.429  0.00  0.00     0.285 S 
ATOM      9  O   UNL d   1      33.239  18.056 -22.814  0.00  0.00    -0.198 OA
ATOM     10  O   UNL d   1      32.716  19.016 -24.043  0.00  0.00    -0.198 OA
BRANCH   8  11
ATOM     11  N   UNL d   1      33.241  19.203 -23.031  0.00  0.00    -0.157 NA
BRANCH  11  12
ATOM     12  C   UNL d   1      32.703  19.643 -22.562  0.00  0.00     0.112 C 
BRANCH  12  13
ATOM     13  C   UNL d   1      32.933  19.953 -21.843  0.00  0.00     0.021 C 
BRANCH  13  14
ATOM     14  C   UNL d   1      32.723  20.709 -21.630  0.00  0.00     0.002 A 
ATOM     15  C   UNL d   1      32.904  21.356 -22.125  0.00  0.00     0.000 A 
ATOM     16  C   UNL d   1      32.691  22.126 -21.908  0.00  0.00     0.000 A 
ATOM     17  C   UNL d   1      32.290  22.269 -21.191  0.00  0.00     0.000 A 
ATOM     18  C   UNL d   1      32.110  21.621 -20.698  0.00  0.00     0.000 A 
ATOM     19  C   UNL d   1      32.324  20.851 -20.915  0.00  0.00     0.000 A 
ENDBRANCH  13  14
ENDBRANCH  12  13
ENDBRANCH  11  12
ENDBRANCH   8  11
ENDBRANCH   2   8
BRANCH   1  20
ATOM     20  C   UNL d   1      30.986  16.530 -23.886  0.00  0.00     0.281 C 
ATOM     21  N   UNL d   1      30.312  16.804 -24.289  0.00  0.00    -0.208 NA
ATOM     22  O   UNL d   1      30.915  15.931 -23.330  0.00  0.00    -0.265 OA
BRANCH  21  23
ATOM     23  C   UNL d   1      29.583  16.469 -24.122  0.00  0.00     0.085 A 
ATOM     24  C   UNL d   1      29.333  15.806 -24.525  0.00  0.00     0.019 A 
ATOM     25  C   UNL d   1      28.596  15.477 -24.349  0.00  0.00     0.002 A 
ATOM     26  C   UNL d   1      28.110  15.809 -23.770  0.00  0.00     0.000 A 
ATOM     27  C   UNL d   1      28.371  16.480 -23.367  0.00  0.00     0.002 A 
ATOM     28  C   UNL d   1      27.377  15.482 -23.595  0.00  0.00     0.000 C 
ATOM     29  C   UNL d   1      29.104  16.812 -23.539  0.00  0.00     0.019 A 
ENDBRANCH  21  23
ENDBRANCH   1  20
TORSDOF 7
ENDMDL
MODEL 2
REMARK VINA RESULT:      -2.0      3.074      6.964
REMARK  7 active torsions:
REMARK  status: ('A' for Active; 'I' for Inactive)
REMARK    1  A    between atoms: C_4  and  S_1 
REMARK    2  A    between atoms: N_10  and  S_1 
REMARK    3  A    between atoms: C_3  and  C_2 
REMARK       I    between atoms: N_6  and  C_3 
REMARK    4  A    between atoms: C_16  and  N_6 
REMARK    5  A    between atoms: C_19  and  N_10 
REMARK    6  A    between atoms: C_12  and  C_24 
REMARK    7  A    between atoms: C_24  and  C_19 
ROOT
ATOM      1  C   UNL d   1      32.720  22.458 -20.579  0.00  0.00     0.086 A 
ATOM      2  C   UNL d   1      32.794  21.401 -21.535  0.00  0.00     0.106 A 
ATOM      3  C   UNL d   1      32.944  21.692 -20.779  0.00  0.00     0.020 A 
ATOM      4  C   UNL d   1      32.343  22.938 -21.139  0.00  0.00     0.145 A 
ATOM      5  C   UNL d   1      32.419  21.878 -22.091  0.00  0.00     0.015 A 
ATOM      6  C   UNL d   1      32.194  22.648 -21.892  0.00  0.00     0.030 A 
ATOM      7  F   UNL d   1      32.118  23.701 -20.946  0.00  0.00    -0.204 F 
ENDROOT
BRANCH   2   8
ATOM      8  S   UNL d   1      33.018  20.633 -21.738  0.00  0.00     0.285 S 
ATOM      9  O   UNL d   1      33.037  20.431 -20.941  0.00  0.00    -0.198 OA
ATOM     10  O   UNL d   1      32.999  20.831 -22.536  0.00  0.00    -0.198 OA
BRANCH   8  11
ATOM     11  N   UNL d   1      33.240  19.869 -21.944  0.00  0.00    -0.157 NA
BRANCH  11  12
ATOM     12  C   UNL d   1      32.741  19.414 -22.442  0.00  0.00     0.112 C 
BRANCH  12  13
ATOM     13  C   UNL d   1      33.042  18.794 -22.879  0.00  0.00     0.021 C 
BRANCH  13  14
ATOM     14  C   UNL d   1      32.545  18.280 -23.267  0.00  0.00     0.002 A 
ATOM     15  C   UNL d   1      32.212  18.485 -24.005  0.00  0.00     0.000 A 
ATOM     16  C   UNL d   1      31.707  17.961 -24.400  0.00  0.00     0.000 A 
ATOM     17  C   UNL d   1      31.521  17.219 -24.067  0.00  0.00     0.000 A 
ATOM     18  C   UNL d   1      31.855  17.018 -23.330  0.00  0.00     0.000 A 
ATOM     19  C   UNL d   1      32.360  17.541 -22.935  0.00  0.00     0.000 A 
ENDBRANCH  13  14
ENDBRANCH  12  13
ENDBRANCH  11  12
ENDBRANCH   8  11
ENDBRANCH   2   8
BRANCH   1  20
ATOM     20  C   UNL d   1      32.863  22.760 -19.830  0.00  0.00     0.281 C 
ATOM     21  N   UNL d   1      32.677  22.295 -19.167  0.00  0.00    -0.208 NA
ATOM     22  O   UNL d   1      33.185  23.507 -19.728  0.00  0.00    -0.265 OA
BRANCH  21  23
ATOM     23  C   UNL d   1      32.819  22.594 -18.416  0.00  0.00     0.085 A 
ATOM     24  C   UNL d   1      33.101  22.107 -17.827  0.00  0.00     0.019 A 
ATOM     25  C   UNL d   1      33.241  22.419 -17.075  0.00  0.00     0.002 A 
ATOM     26  C   UNL d   1      33.098  23.215 -16.911  0.00  0.00     0.000 A 
ATOM     27  C   UNL d   1      32.812  23.701 -17.514  0.00  0.00     0.002 A 
ATOM     28  C   UNL d   1      33.237  23.525 -16.164  0.00  0.00     0.000 C 
ATOM     29  C   UNL d   1      32.672  23.394 -18.266  0.00  0.00     0.019 A 
ENDBRANCH  21  23
ENDBRANCH   1  20
TORSDOF 7
ENDMDL
MODEL 3
REMARK VINA RESULT:      -1.4      1.872      5.893
REMARK  7 active torsions:
REMARK  status: ('A' for Active; 'I' for Inactive)
REMARK    1  A    between atoms: C_4  and  S_1 
REMARK    2  A    between atoms: N_10  and  S_1 
REMARK    3  A    between atoms: C_3  and  C_2 
REMARK       I    between atoms: N_6  and  C_3 
REMARK    4  A    between atoms: C_16  and  N_6 
REMARK    5  A    between atoms: C_19  and  N_10 
REMARK    6  A    between atoms: C_12  and  C_24 
REMARK    7  A    between atoms: C_24  and  C_19 
ROOT
ATOM      1  C   UNL d   1      33.059  20.882 -23.191  0.00  0.00     0.086 A 
ATOM      2  C   UNL d   1      33.058  19.540 -23.678  0.00  0.00     0.106 A 
ATOM      3  C   UNL d   1      32.999  20.073 -23.052  0.00  0.00     0.020 A 
ATOM      4  C   UNL d   1      33.180  21.161 -23.961  0.00  0.00     0.145 A 
ATOM      5  C   UNL d   1      33.178  19.818 -24.443  0.00  0.00     0.015 A 
ATOM      6  C   UNL d   1      33.239  20.630 -24.584  0.00  0.00     0.030 A 
ATOM      7  F   UNL d   1      33.240  21.965 -24.105  0.00  0.00    -0.204 F 
ENDROOT
BRANCH   2   8
ATOM      8  S   UNL d   1      32.998  18.728 -23.541  0.00  0.00     0.285 S 
ATOM      9  O   UNL d   1      32.777  18.879 -22.764  0.00  0.00    -0.198 OA
ATOM     10  O   UNL d   1      33.219  18.574 -24.319  0.00  0.00    -0.198 OA
BRANCH   8  11
ATOM     11  N   UNL d   1      32.940  17.920 -23.409  0.00  0.00    -0.157 NA
BRANCH  11  12
ATOM     12  C   UNL d   1      32.253  17.509 -23.661  0.00  0.00     0.112 C 
BRANCH  12  13
ATOM     13  C   UNL d   1      32.130  16.731 -23.449  0.00  0.00     0.021 C 
BRANCH  13  14
ATOM     14  C   UNL d   1      31.496  16.315 -23.742  0.00  0.00     0.002 A 
ATOM     15  C   UNL d   1      30.920  15.998 -23.227  0.00  0.00     0.000 A 
ATOM     16  C   UNL d   1      30.275  15.574 -23.525  0.00  0.00     0.000 A 
ATOM     17  C   UNL d   1      30.188  15.456 -24.346  0.00  0.00     0.000 A 
ATOM     18  C   UNL d   1      30.765  15.774 -24.858  0.00  0.00     0.000 A 
ATOM     19  C   UNL d   1      31.410  16.198 -24.560  0.00  0.00     0.000 A 
ENDBRANCH  13  14
ENDBRANCH  12  13
ENDBRANCH  11  12
ENDBRANCH   8  11
ENDBRANCH   2   8
BRANCH   1  20
ATOM     20  C   UNL d   1      33.001  21.423 -22.577  0.00  0.00     0.281 C 
ATOM     21  N   UNL d   1      33.006  21.144 -21.794  0.00  0.00    -0.208 NA
ATOM     22  O   UNL d   1      32.940  22.227 -22.724  0.00  0.00    -0.265 OA
BRANCH  21  23
ATOM     23  C   UNL d   1      32.949  21.682 -21.178  0.00  0.00     0.085 A 
ATOM     24  C   UNL d   1      32.610  22.413 -21.301  0.00  0.00     0.019 A 
ATOM     25  C   UNL d   1      32.558  22.947 -20.672  0.00  0.00     0.002 A 
ATOM     26  C   UNL d   1      32.843  22.751 -19.923  0.00  0.00     0.000 A 
ATOM     27  C   UNL d   1      33.185  22.009 -19.808  0.00  0.00     0.002 A 
ATOM     28  C   UNL d   1      32.791  23.282 -19.298  0.00  0.00     0.000 C 
ATOM     29  C   UNL d   1      33.239  21.473 -20.431  0.00  0.00     0.019 A 
ENDBRANCH  21  23
ENDBRANCH   1  20
TORSDOF 7
ENDMDL
