MODEL 1
REMARK VINA RESULT:      -5.2      0.000      0.000
REMARK  4 active torsions:
REMARK  status: ('A' for Active; 'I' for Inactive)
REMARK    1  A    between atoms: N_4  and  C_8 
REMARK    2  A    between atoms: C_15  and  C_5 
REMARK    3  A    between atoms: O_17  and  C_15 
REMARK    4  A    between atoms: C_16  and  O_17 
ROOT
ATOM      1  C   UNL d   1      57.340   0.637  30.550  0.00  0.00     0.144 C 
ENDROOT
BRANCH   1   2
ATOM      2  C   UNL d   1      58.046   0.360  30.235  0.00  0.00     0.142 A 
ATOM      3  N   UNL d   1      58.123  -0.244  29.683  0.00  0.00    -0.057 NA
ATOM      4  C   UNL d   1      58.917  -0.335  29.527  0.00  0.00     0.735 A 
ATOM      5  N   UNL d   1      59.337   0.210  29.982  0.00  0.00    -0.136 N 
ATOM      6  N   UNL d   1      59.329  -0.846  29.028  0.00  0.00    -0.059 NA
ATOM      7  C   UNL d   1      58.788   0.631  30.412  0.00  0.00     0.120 A 
ATOM      8  C   UNL d   1      60.165   0.260  29.952  0.00  0.00     0.100 A 
ATOM      9  C   UNL d   1      60.580  -0.268  29.437  0.00  0.00     0.041 A 
ATOM     10  C   UNL d   1      60.150  -0.818  28.979  0.00  0.00     0.119 A 
ENDBRANCH   1   2
BRANCH   1  11
ATOM     11  O   UNL d   1      56.998   0.262  31.216  0.00  0.00    -0.303 OA
BRANCH  11  12
ATOM     12  C   UNL d   1      56.664  -0.110  31.877  0.00  0.00     0.102 A 
ATOM     13  C   UNL d   1      56.415   0.339  32.532  0.00  0.00     0.048 A 
ATOM     14  C   UNL d   1      56.083  -0.024  33.190  0.00  0.00     0.129 A 
ATOM     15  C   UNL d   1      55.992  -0.853  33.204  0.00  0.00     0.024 A 
ATOM     16  C   UNL d   1      56.239  -1.302  32.553  0.00  0.00     0.004 A 
ATOM     17  C   UNL d   1      56.571  -0.929  31.899  0.00  0.00     0.025 A 
BRANCH  14  18
ATOM     18  N   UNL d   1      55.841   0.435  33.832  0.00  0.00    -0.114 N 
ATOM     19  O   UNL d   1      55.047   0.662  33.896  0.00  0.00    -0.532 OA
ATOM     20  O   UNL d   1      56.375   0.669  34.405  0.00  0.00    -0.532 OA
ENDBRANCH  14  18
ENDBRANCH  11  12
ENDBRANCH   1  11
TORSDOF 4
ENDMDL
MODEL 2
REMARK VINA RESULT:      -5.1      1.072      1.373
REMARK  4 active torsions:
REMARK  status: ('A' for Active; 'I' for Inactive)
REMARK    1  A    between atoms: N_4  and  C_8 
REMARK    2  A    between atoms: C_15  and  C_5 
REMARK    3  A    between atoms: O_17  and  C_15 
REMARK    4  A    between atoms: C_16  and  O_17 
ROOT
ATOM      1  C   UNL d   1      57.807   0.456  30.141  0.00  0.00     0.144 C 
ENDROOT
BRANCH   1   2
ATOM      2  C   UNL d   1      58.392  -0.022  29.821  0.00  0.00     0.142 A 
ATOM      3  N   UNL d   1      58.279  -0.761  29.479  0.00  0.00    -0.057 NA
ATOM      4  C   UNL d   1      59.006  -1.035  29.237  0.00  0.00     0.735 A 
ATOM      5  N   UNL d   1      59.575  -0.468  29.426  0.00  0.00    -0.136 N 
ATOM      6  N   UNL d   1      59.240  -1.732  28.863  0.00  0.00    -0.059 NA
ATOM      7  C   UNL d   1      59.183   0.149  29.784  0.00  0.00     0.120 A 
ATOM      8  C   UNL d   1      60.378  -0.578  29.250  0.00  0.00     0.100 A 
ATOM      9  C   UNL d   1      60.610  -1.296  28.867  0.00  0.00     0.041 A 
ATOM     10  C   UNL d   1      60.030  -1.867  28.678  0.00  0.00     0.119 A 
ENDBRANCH   1   2
BRANCH   1  11
ATOM     11  O   UNL d   1      57.554   0.343  30.931  0.00  0.00    -0.303 OA
BRANCH  11  12
ATOM     12  C   UNL d   1      57.306   0.234  31.715  0.00  0.00     0.102 A 
ATOM     13  C   UNL d   1      56.720  -0.327  31.897  0.00  0.00     0.048 A 
ATOM     14  C   UNL d   1      56.470  -0.439  32.672  0.00  0.00     0.129 A 
ATOM     15  C   UNL d   1      56.807   0.015  33.286  0.00  0.00     0.024 A 
ATOM     16  C   UNL d   1      57.390   0.575  33.106  0.00  0.00     0.004 A 
ATOM     17  C   UNL d   1      57.633   0.679  32.328  0.00  0.00     0.025 A 
BRANCH  14  18
ATOM     18  N   UNL d   1      55.887  -1.000  32.837  0.00  0.00    -0.114 N 
ATOM     19  O   UNL d   1      56.042  -1.802  32.699  0.00  0.00    -0.532 OA
ATOM     20  O   UNL d   1      55.160  -0.775  33.135  0.00  0.00    -0.532 OA
ENDBRANCH  14  18
ENDBRANCH  11  12
ENDBRANCH   1  11
TORSDOF 4
ENDMDL
MODEL 3
REMARK VINA RESULT:      -4.0      1.519      4.892
REMARK  4 active torsions:
REMARK  status: ('A' for Active; 'I' for Inactive)
REMARK    1  A    between atoms: N_4  and  C_8 
REMARK    2  A    between atoms: C_15  and  C_5 
REMARK    3  A    between atoms: O_17  and  C_15 
REMARK    4  A    between atoms: C_16  and  O_17 
ROOT
ATOM      1  C   UNL d   1      56.634  -1.236  31.960  0.00  0.00     0.144 C 
ENDROOT
BRANCH   1   2
ATOM      2  C   UNL d   1      56.299  -0.792  32.565  0.00  0.00     0.142 A 
ATOM      3  N   UNL d   1      55.513  -0.552  32.608  0.00  0.00    -0.057 NA
ATOM      4  C   UNL d   1      55.424  -0.127  33.297  0.00  0.00     0.735 A 
ATOM      5  N   UNL d   1      56.151  -0.101  33.684  0.00  0.00    -0.136 N 
ATOM      6  N   UNL d   1      54.773   0.249  33.636  0.00  0.00    -0.059 NA
ATOM      7  C   UNL d   1      56.680  -0.514  33.223  0.00  0.00     0.120 A 
ATOM      8  C   UNL d   1      56.249   0.294  34.408  0.00  0.00     0.100 A 
ATOM      9  C   UNL d   1      55.575   0.677  34.748  0.00  0.00     0.041 A 
ATOM     10  C   UNL d   1      54.841   0.647  34.352  0.00  0.00     0.119 A 
ENDBRANCH   1   2
BRANCH   1  11
ATOM     11  O   UNL d   1      57.111  -0.867  31.380  0.00  0.00    -0.303 OA
BRANCH  11  12
ATOM     12  C   UNL d   1      57.581  -0.504  30.802  0.00  0.00     0.102 A 
ATOM     13  C   UNL d   1      58.063  -0.962  30.302  0.00  0.00     0.048 A 
ATOM     14  C   UNL d   1      58.531  -0.607  29.727  0.00  0.00     0.129 A 
ATOM     15  C   UNL d   1      58.525   0.222  29.642  0.00  0.00     0.024 A 
ATOM     16  C   UNL d   1      58.046   0.680  30.138  0.00  0.00     0.004 A 
ATOM     17  C   UNL d   1      57.581   0.316  30.710  0.00  0.00     0.025 A 
BRANCH  14  18
ATOM     18  N   UNL d   1      59.005  -1.076  29.239  0.00  0.00    -0.114 N 
ATOM     19  O   UNL d   1      59.814  -1.147  29.401  0.00  0.00    -0.532 OA
ATOM     20  O   UNL d   1      58.684  -1.470  28.599  0.00  0.00    -0.532 OA
ENDBRANCH  14  18
ENDBRANCH  11  12
ENDBRANCH   1  11
TORSDOF 4
ENDMDL
MODEL 4
REMARK VINA RESULT:      -3.3      8.591      9.664
REMARK  4 active torsions:
REMARK  status: ('A' for Active; 'I' for Inactive)
REMARK    1  A    between atoms: N_4  and  C_8 
REMARK    2  A    between atoms: C_15  and  C_5 
REMARK    3  A    between atoms: O_17  and  C_15 
REMARK    4  A    between atoms: C_16  and  O_17 
ROOT
ATOM      1  C   UNL d   1      59.116  -8.464  35.422  0.00  0.00     0.144 C 
ENDROOT
BRANCH   1   2
ATOM      2  C   UNL d   1      59.490  -7.764  35.634  0.00  0.00     0.142 A 
ATOM      3  N   UNL d   1      59.122  -7.039  35.759  0.00  0.00    -0.057 NA
ATOM      4  C   UNL d   1      59.699  -6.500  35.958  0.00  0.00     0.735 A 
ATOM      5  N   UNL d   1      60.427  -6.886  35.957  0.00  0.00    -0.136 N 
ATOM      6  N   UNL d   1      59.668  -5.697  36.144  0.00  0.00    -0.059 NA
ATOM      7  C   UNL d   1      60.284  -7.662  35.756  0.00  0.00     0.120 A 
ATOM      8  C   UNL d   1      61.133  -6.490  36.139  0.00  0.00     0.100 A 
ATOM      9  C   UNL d   1      61.093  -5.666  36.328  0.00  0.00     0.041 A 
ATOM     10  C   UNL d   1      60.352  -5.280  36.327  0.00  0.00     0.119 A 
ENDBRANCH   1   2
BRANCH   1  11
ATOM     11  O   UNL d   1      59.249  -8.802  34.668  0.00  0.00    -0.303 OA
BRANCH  11  12
ATOM     12  C   UNL d   1      59.384  -9.140  33.923  0.00  0.00     0.102 A 
ATOM     13  C   UNL d   1      58.768  -9.192  33.367  0.00  0.00     0.048 A 
ATOM     14  C   UNL d   1      58.895  -9.525  32.627  0.00  0.00     0.129 A 
ATOM     15  C   UNL d   1      59.652  -9.816  32.428  0.00  0.00     0.024 A 
ATOM     16  C   UNL d   1      60.266  -9.765  32.981  0.00  0.00     0.004 A 
ATOM     17  C   UNL d   1      60.129  -9.430  33.719  0.00  0.00     0.025 A 
BRANCH  14  18
ATOM     18  N   UNL d   1      58.273  -9.570  32.085  0.00  0.00    -0.114 N 
ATOM     19  O   UNL d   1      57.497  -9.444  32.344  0.00  0.00    -0.532 OA
ATOM     20  O   UNL d   1      58.414  -9.737  31.298  0.00  0.00    -0.532 OA
ENDBRANCH  14  18
ENDBRANCH  11  12
ENDBRANCH   1  11
TORSDOF 4
ENDMDL
MODEL 5
REMARK VINA RESULT:      -2.9      1.353      2.172
REMARK  4 active torsions:
REMARK  status: ('A' for Active; 'I' for Inactive)
REMARK    1  A    between atoms: N_4  and  C_8 
REMARK    2  A    between atoms: C_15  and  C_5 
REMARK    3  A    between atoms: O_17  and  C_15 
REMARK    4  A    between atoms: C_16  and  O_17 
ROOT
ATOM      1  C   UNL d   1      56.394  -1.267  32.412  0.00  0.00     0.144 C 
ENDROOT
BRANCH   1   2
ATOM      2  C   UNL d   1      56.887  -0.939  31.843  0.00  0.00     0.142 A 
ATOM      3  N   UNL d   1      56.971  -1.200  31.068  0.00  0.00    -0.057 NA
ATOM      4  C   UNL d   1      57.514  -0.717  30.702  0.00  0.00     0.735 A 
ATOM      5  N   UNL d   1      57.772  -0.155  31.247  0.00  0.00    -0.136 N 
ATOM      6  N   UNL d   1      57.820  -0.707  29.936  0.00  0.00    -0.059 NA
ATOM      7  C   UNL d   1      57.378  -0.303  31.944  0.00  0.00     0.120 A 
ATOM      8  C   UNL d   1      58.331   0.425  31.047  0.00  0.00     0.100 A 
ATOM      9  C   UNL d   1      58.640   0.428  30.259  0.00  0.00     0.041 A 
ATOM     10  C   UNL d   1      58.376  -0.144  29.711  0.00  0.00     0.119 A 
ENDBRANCH   1   2
BRANCH   1  11
ATOM     11  O   UNL d   1      55.983  -0.774  32.949  0.00  0.00    -0.303 OA
BRANCH  11  12
ATOM     12  C   UNL d   1      55.575  -0.290  33.484  0.00  0.00     0.102 A 
ATOM     13  C   UNL d   1      55.912  -0.099  34.221  0.00  0.00     0.048 A 
ATOM     14  C   UNL d   1      55.512   0.380  34.755  0.00  0.00     0.129 A 
ATOM     15  C   UNL d   1      54.760   0.682  34.559  0.00  0.00     0.024 A 
ATOM     16  C   UNL d   1      54.423   0.493  33.827  0.00  0.00     0.004 A 
ATOM     17  C   UNL d   1      54.831   0.012  33.299  0.00  0.00     0.025 A 
BRANCH  14  18
ATOM     18  N   UNL d   1      55.860   0.560  35.483  0.00  0.00    -0.114 N 
ATOM     19  O   UNL d   1      56.678   0.682  35.525  0.00  0.00    -0.532 OA
ATOM     20  O   UNL d   1      55.407   0.619  36.160  0.00  0.00    -0.532 OA
ENDBRANCH  14  18
ENDBRANCH  11  12
ENDBRANCH   1  11
TORSDOF 4
ENDMDL
MODEL 6
REMARK VINA RESULT:      -2.3      9.759     10.546
REMARK  4 active torsions:
REMARK  status: ('A' for Active; 'I' for Inactive)
REMARK    1  A    between atoms: N_4  and  C_8 
REMARK    2  A    between atoms: C_15  and  C_5 
REMARK    3  A    between atoms: O_17  and  C_15 
REMARK    4  A    between atoms: C_16  and  O_17 
ROOT
ATOM      1  C   UNL d   1      58.632  -9.755  34.166  0.00  0.00     0.144 C 
ENDROOT
BRANCH   1   2
ATOM      2  C   UNL d   1      59.178  -9.368  34.642  0.00  0.00     0.142 A 
ATOM      3  N   UNL d   1      59.247  -8.553  34.733  0.00  0.00    -0.057 NA
ATOM      4  C   UNL d   1      59.858  -8.415  35.253  0.00  0.00     0.735 A 
ATOM      5  N   UNL d   1      60.171  -9.140  35.487  0.00  0.00    -0.136 N 
ATOM      6  N   UNL d   1      60.183  -7.719  35.554  0.00  0.00    -0.059 NA
ATOM      7  C   UNL d   1      59.744  -9.718  35.104  0.00  0.00     0.120 A 
ATOM      8  C   UNL d   1      60.806  -9.192  36.019  0.00  0.00     0.100 A 
ATOM      9  C   UNL d   1      61.133  -8.473  36.324  0.00  0.00     0.041 A 
ATOM     10  C   UNL d   1      60.812  -7.741  36.083  0.00  0.00     0.119 A 
ENDBRANCH   1   2
BRANCH   1  11
ATOM     11  O   UNL d   1      58.729  -9.768  33.335  0.00  0.00    -0.303 OA
BRANCH  11  12
ATOM     12  C   UNL d   1      58.822  -9.780  32.511  0.00  0.00     0.102 A 
ATOM     13  C   UNL d   1      59.582  -9.767  32.173  0.00  0.00     0.048 A 
ATOM     14  C   UNL d   1      59.680  -9.778  31.357  0.00  0.00     0.129 A 
ATOM     15  C   UNL d   1      59.011  -9.804  30.860  0.00  0.00     0.024 A 
ATOM     16  C   UNL d   1      58.254  -9.817  31.195  0.00  0.00     0.004 A 
ATOM     17  C   UNL d   1      58.166  -9.805  32.012  0.00  0.00     0.025 A 
BRANCH  14  18
ATOM     18  N   UNL d   1      60.441  -9.764  31.036  0.00  0.00    -0.114 N 
ATOM     19  O   UNL d   1      61.095  -9.699  31.540  0.00  0.00    -0.532 OA
ATOM     20  O   UNL d   1      60.556  -9.814  30.229  0.00  0.00    -0.532 OA
ENDBRANCH  14  18
ENDBRANCH  11  12
ENDBRANCH   1  11
TORSDOF 4
ENDMDL
