MODEL 1
REMARK VINA RESULT:     -11.2      0.000      0.000
REMARK  1 active torsions:
REMARK  status: ('A' for Active; 'I' for Inactive)
REMARK    1  A    between atoms: C_8  and  C_2 
ROOT
ATOM      1  N   UNL d   1      53.391  32.000  53.415  0.00  0.00    -0.191 NA
ATOM      2  C   UNL d   1      53.394  32.775  53.645  0.00  0.00     0.087 A 
ATOM      3  C   UNL d   1      52.804  31.736  52.879  0.00  0.00     0.369 A 
ATOM      4  N   UNL d   1      52.232  32.253  52.585  0.00  0.00    -0.191 NA
ATOM      5  C   UNL d   1      52.842  33.311  53.371  0.00  0.00     0.036 A 
ATOM      6  C   UNL d   1      52.255  33.047  52.836  0.00  0.00     0.088 A 
ATOM      7  O   UNL d   1      52.779  30.945  52.628  0.00  0.00    -0.242 OA
ATOM      8  C   UNL d   1      52.846  34.086  53.602  0.00  0.00     0.003 A 
ATOM      9  C   UNL d   1      51.683  33.564  52.541  0.00  0.00     0.019 A 
ATOM     10  C   UNL d   1      52.297  34.613  53.328  0.00  0.00     0.000 A 
ATOM     11  C   UNL d   1      51.710  34.349  52.793  0.00  0.00     0.002 A 
ENDROOT
BRANCH   2  12
ATOM     12  C   UNL d   1      53.982  33.038  54.181  0.00  0.00     0.018 A 
ATOM     13  C   UNL d   1      54.680  33.326  53.891  0.00  0.00     0.002 A 
ATOM     14  C   UNL d   1      55.275  33.593  54.433  0.00  0.00     0.000 A 
ATOM     15  C   UNL d   1      55.130  33.553  55.227  0.00  0.00     0.000 A 
ATOM     16  C   UNL d   1      54.426  33.264  55.526  0.00  0.00     0.000 A 
ATOM     17  C   UNL d   1      53.831  32.997  54.983  0.00  0.00     0.002 A 
ENDBRANCH   2  12
TORSDOF 1
ENDMDL
MODEL 2
REMARK VINA RESULT:     -10.8      0.741      2.761
REMARK  1 active torsions:
REMARK  status: ('A' for Active; 'I' for Inactive)
REMARK    1  A    between atoms: C_8  and  C_2 
ROOT
ATOM      1  N   UNL d   1      52.514  31.966  52.890  0.00  0.00    -0.191 NA
ATOM      2  C   UNL d   1      52.513  32.699  53.231  0.00  0.00     0.087 A 
ATOM      3  C   UNL d   1      53.102  31.413  53.114  0.00  0.00     0.369 A 
ATOM      4  N   UNL d   1      53.677  31.604  53.673  0.00  0.00    -0.191 NA
ATOM      5  C   UNL d   1      53.069  32.918  53.788  0.00  0.00     0.036 A 
ATOM      6  C   UNL d   1      53.657  32.366  54.012  0.00  0.00     0.088 A 
ATOM      7  O   UNL d   1      53.124  30.654  52.778  0.00  0.00    -0.242 OA
ATOM      8  C   UNL d   1      53.068  33.652  54.129  0.00  0.00     0.003 A 
ATOM      9  C   UNL d   1      54.232  32.557  54.571  0.00  0.00     0.019 A 
ATOM     10  C   UNL d   1      53.620  33.864  54.680  0.00  0.00     0.000 A 
ATOM     11  C   UNL d   1      54.208  33.312  54.903  0.00  0.00     0.002 A 
ENDROOT
BRANCH   2  12
ATOM     12  C   UNL d   1      51.925  33.252  53.007  0.00  0.00     0.018 A 
ATOM     13  C   UNL d   1      52.082  33.774  52.410  0.00  0.00     0.002 A 
ATOM     14  C   UNL d   1      51.487  34.334  52.184  0.00  0.00     0.000 A 
ATOM     15  C   UNL d   1      50.777  34.333  52.571  0.00  0.00     0.000 A 
ATOM     16  C   UNL d   1      50.614  33.807  53.175  0.00  0.00     0.000 A 
ATOM     17  C   UNL d   1      51.209  33.247  53.401  0.00  0.00     0.002 A 
ENDBRANCH   2  12
TORSDOF 1
ENDMDL
MODEL 3
REMARK VINA RESULT:     -10.4      1.500      3.257
REMARK  1 active torsions:
REMARK  status: ('A' for Active; 'I' for Inactive)
REMARK    1  A    between atoms: C_8  and  C_2 
ROOT
ATOM      1  N   UNL d   1      53.133  33.871  54.201  0.00  0.00    -0.191 NA
ATOM      2  C   UNL d   1      52.754  33.370  53.692  0.00  0.00     0.087 A 
ATOM      3  C   UNL d   1      53.797  33.592  54.629  0.00  0.00     0.369 A 
ATOM      4  N   UNL d   1      54.069  32.819  54.539  0.00  0.00    -0.191 NA
ATOM      5  C   UNL d   1      52.999  32.598  53.581  0.00  0.00     0.036 A 
ATOM      6  C   UNL d   1      53.662  32.320  54.008  0.00  0.00     0.088 A 
ATOM      7  O   UNL d   1      54.203  34.088  55.157  0.00  0.00    -0.242 OA
ATOM      8  C   UNL d   1      52.620  32.098  53.072  0.00  0.00     0.003 A 
ATOM      9  C   UNL d   1      53.934  31.546  53.919  0.00  0.00     0.019 A 
ATOM     10  C   UNL d   1      52.865  31.335  52.965  0.00  0.00     0.000 A 
ATOM     11  C   UNL d   1      53.529  31.056  53.393  0.00  0.00     0.002 A 
ENDROOT
BRANCH   2  12
ATOM     12  C   UNL d   1      52.090  33.649  53.264  0.00  0.00     0.018 A 
ATOM     13  C   UNL d   1      51.349  33.526  53.563  0.00  0.00     0.002 A 
ATOM     14  C   UNL d   1      50.677  33.808  53.130  0.00  0.00     0.000 A 
ATOM     15  C   UNL d   1      50.793  34.193  52.428  0.00  0.00     0.000 A 
ATOM     16  C   UNL d   1      51.540  34.320  52.123  0.00  0.00     0.000 A 
ATOM     17  C   UNL d   1      52.212  34.038  52.556  0.00  0.00     0.002 A 
ENDBRANCH   2  12
TORSDOF 1
ENDMDL
MODEL 4
REMARK VINA RESULT:      -9.7      1.737      2.555
REMARK  1 active torsions:
REMARK  status: ('A' for Active; 'I' for Inactive)
REMARK    1  A    between atoms: C_8  and  C_2 
ROOT
ATOM      1  N   UNL d   1      54.562  33.037  54.767  0.00  0.00    -0.191 NA
ATOM      2  C   UNL d   1      53.913  32.909  54.302  0.00  0.00     0.087 A 
ATOM      3  C   UNL d   1      54.709  33.808  55.058  0.00  0.00     0.369 A 
ATOM      4  N   UNL d   1      54.205  34.436  54.879  0.00  0.00    -0.191 NA
ATOM      5  C   UNL d   1      53.394  33.509  54.107  0.00  0.00     0.036 A 
ATOM      6  C   UNL d   1      53.542  34.280  54.398  0.00  0.00     0.088 A 
ATOM      7  O   UNL d   1      55.369  33.965  55.536  0.00  0.00    -0.242 OA
ATOM      8  C   UNL d   1      52.745  33.381  53.642  0.00  0.00     0.003 A 
ATOM      9  C   UNL d   1      53.037  34.908  54.219  0.00  0.00     0.019 A 
ATOM     10  C   UNL d   1      52.235  33.978  53.452  0.00  0.00     0.000 A 
ATOM     11  C   UNL d   1      52.382  34.749  53.743  0.00  0.00     0.002 A 
ENDROOT
BRANCH   2  12
ATOM     12  C   UNL d   1      53.766  32.137  54.011  0.00  0.00     0.018 A 
ATOM     13  C   UNL d   1      54.000  31.948  53.261  0.00  0.00     0.002 A 
ATOM     14  C   UNL d   1      53.851  31.167  52.966  0.00  0.00     0.000 A 
ATOM     15  C   UNL d   1      53.478  30.630  53.442  0.00  0.00     0.000 A 
ATOM     16  C   UNL d   1      53.239  30.817  54.201  0.00  0.00     0.000 A 
ATOM     17  C   UNL d   1      53.388  31.598  54.496  0.00  0.00     0.002 A 
ENDBRANCH   2  12
TORSDOF 1
ENDMDL
MODEL 5
REMARK VINA RESULT:      -9.6      1.338      2.757
REMARK  1 active torsions:
REMARK  status: ('A' for Active; 'I' for Inactive)
REMARK    1  A    between atoms: C_8  and  C_2 
ROOT
ATOM      1  N   UNL d   1      52.456  32.948  52.866  0.00  0.00    -0.191 NA
ATOM      2  C   UNL d   1      52.931  32.538  53.376  0.00  0.00     0.087 A 
ATOM      3  C   UNL d   1      52.386  33.778  52.951  0.00  0.00     0.369 A 
ATOM      4  N   UNL d   1      52.793  34.182  53.544  0.00  0.00    -0.191 NA
ATOM      5  C   UNL d   1      53.347  32.909  53.973  0.00  0.00     0.036 A 
ATOM      6  C   UNL d   1      53.277  33.739  54.058  0.00  0.00     0.088 A 
ATOM      7  O   UNL d   1      51.904  34.220  52.440  0.00  0.00    -0.242 OA
ATOM      8  C   UNL d   1      53.822  32.500  54.483  0.00  0.00     0.003 A 
ATOM      9  C   UNL d   1      53.684  34.143  54.651  0.00  0.00     0.019 A 
ATOM     10  C   UNL d   1      54.232  32.871  55.073  0.00  0.00     0.000 A 
ATOM     11  C   UNL d   1      54.162  33.701  55.158  0.00  0.00     0.002 A 
ENDROOT
BRANCH   2  12
ATOM     12  C   UNL d   1      53.001  31.707  53.291  0.00  0.00     0.018 A 
ATOM     13  C   UNL d   1      53.689  31.398  53.001  0.00  0.00     0.002 A 
ATOM     14  C   UNL d   1      53.760  30.557  52.914  0.00  0.00     0.000 A 
ATOM     15  C   UNL d   1      53.137  30.086  53.124  0.00  0.00     0.000 A 
ATOM     16  C   UNL d   1      52.440  30.394  53.418  0.00  0.00     0.000 A 
ATOM     17  C   UNL d   1      52.369  31.235  53.504  0.00  0.00     0.002 A 
ENDBRANCH   2  12
TORSDOF 1
ENDMDL
