MODEL 1
REMARK VINA RESULT:      -3.5      0.000      0.000
REMARK  4 active torsions:
REMARK  status: ('A' for Active; 'I' for Inactive)
REMARK    1  A    between atoms: C_18  and  N_4 
REMARK    2  A    between atoms: C_11  and  C_6 
REMARK       I    between atoms: N_15  and  C_11 
REMARK    3  A    between atoms: C_26  and  N_15 
REMARK    4  A    between atoms: C_17  and  C_26 
ROOT
ATOM      1  C   UNL d   1      59.242  -1.301  29.581  0.00  0.00     0.155 A 
ATOM      2  C   UNL d   1      58.546  -1.711  29.745  0.00  0.00     0.091 A 
ATOM      3  N   UNL d   1      59.869  -1.699  29.216  0.00  0.00    -0.210 NA
ATOM      4  N   UNL d   1      59.304  -0.516  29.777  0.00  0.00    -0.275 N 
ATOM      5  C   UNL d   1      58.686  -0.122  30.137  0.00  0.00     0.175 A 
ATOM      6  C   UNL d   1      57.992  -0.531  30.301  0.00  0.00     0.094 A 
ATOM      7  N   UNL d   1      59.105  -2.909  29.182  0.00  0.00    -0.258 N 
ATOM      8  C   UNL d   1      59.811  -2.493  29.015  0.00  0.00     0.152 A 
ATOM      9  C   UNL d   1      58.469  -2.524  29.547  0.00  0.00     0.269 A 
ATOM     10  C   UNL d   1      57.913  -1.325  30.108  0.00  0.00     0.016 A 
ATOM     11  C   UNL d   1      60.433  -2.881  28.655  0.00  0.00     0.035 A 
ATOM     12  N   UNL d   1      58.748   0.682  30.339  0.00  0.00    -0.128 N 
ATOM     13  C   UNL d   1      59.033  -3.706  28.986  0.00  0.00     0.084 A 
ATOM     14  O   UNL d   1      57.776  -2.922  29.713  0.00  0.00    -0.266 OA
ATOM     15  C   UNL d   1      59.668  -4.089  28.622  0.00  0.00     0.019 A 
ATOM     16  C   UNL d   1      60.374  -3.674  28.455  0.00  0.00     0.005 A 
ATOM     17  C   UNL d   1      61.133  -2.468  28.490  0.00  0.00     0.003 C 
ENDROOT
BRANCH   6  18
ATOM     18  C   UNL d   1      57.358  -0.137  30.667  0.00  0.00     0.282 C 
ATOM     19  N   UNL d   1      57.073  -0.396  31.397  0.00  0.00    -0.204 NA
ATOM     20  O   UNL d   1      57.013   0.518  30.297  0.00  0.00    -0.265 OA
BRANCH  19  21
ATOM     21  C   UNL d   1      56.448  -0.007  31.758  0.00  0.00     0.127 C 
BRANCH  21  22
ATOM     22  C   UNL d   1      56.159  -0.266  32.492  0.00  0.00     0.119 A 
ATOM     23  O   UNL d   1      56.151  -1.047  32.763  0.00  0.00    -0.304 OA
ATOM     24  C   UNL d   1      55.815  -1.047  33.519  0.00  0.00     0.123 A 
ATOM     25  C   UNL d   1      55.618  -0.270  33.709  0.00  0.00     0.029 A 
ATOM     26  C   UNL d   1      55.833   0.214  33.070  0.00  0.00     0.028 A 
ENDBRANCH  21  22
ENDBRANCH  19  21
ENDBRANCH   6  18
BRANCH   4  27
ATOM     27  C   UNL d   1      60.005  -0.103  29.612  0.00  0.00     0.067 A 
ATOM     28  C   UNL d   1      60.506   0.230  30.175  0.00  0.00     0.018 A 
ATOM     29  C   UNL d   1      61.133   0.586  29.774  0.00  0.00     0.002 A 
ATOM     30  C   UNL d   1      61.020   0.472  28.953  0.00  0.00     0.002 A 
ATOM     31  C   UNL d   1      60.321   0.047  28.866  0.00  0.00     0.018 A 
ENDBRANCH   4  27
TORSDOF 4
ENDMDL
