MODEL 1
REMARK VINA RESULT:      -2.9      0.000      0.000
REMARK  4 active torsions:
REMARK  status: ('A' for Active; 'I' for Inactive)
REMARK    1  A    between atoms: N_2  and  S_1 
REMARK    2  A    between atoms: C_3  and  S_1 
REMARK    3  A    between atoms: C_4  and  N_2 
REMARK    4  A    between atoms: O_14  and  C_7 
ROOT
ATOM      1  S   UNL d   1      30.893  17.031 -24.477  0.00  0.00     0.285 S 
ATOM      2  O   UNL d   1      30.536  17.761 -24.321  0.00  0.00    -0.198 OA
ATOM      3  O   UNL d   1      31.259  16.288 -24.636  0.00  0.00    -0.198 OA
ENDROOT
BRANCH   1   4
ATOM      4  N   UNL d   1      31.589  17.417 -24.691  0.00  0.00    -0.156 NA
BRANCH   4   5
ATOM      5  C   UNL d   1      32.134  17.638 -24.117  0.00  0.00     0.116 A 
ATOM      6  C   UNL d   1      32.602  18.310 -24.215  0.00  0.00     0.112 A 
ATOM      7  C   UNL d   1      33.147  18.532 -23.640  0.00  0.00     0.026 A 
ATOM      8  C   UNL d   1      33.235  18.087 -22.954  0.00  0.00     0.002 A 
ATOM      9  C   UNL d   1      32.769  17.414 -22.850  0.00  0.00     0.002 A 
ATOM     10  C   UNL d   1      32.224  17.192 -23.425  0.00  0.00     0.022 A 
BRANCH   6  11
ATOM     11  O   UNL d   1      32.507  18.767 -24.928  0.00  0.00    -0.327 OA
ATOM     12  C   UNL d   1      33.009  19.395 -25.097  0.00  0.00     0.181 C 
ENDBRANCH   6  11
ENDBRANCH   4   5
ENDBRANCH   1   4
BRANCH   1  13
ATOM     13  C   UNL d   1      30.182  16.635 -24.257  0.00  0.00     0.105 A 
ATOM     14  C   UNL d   1      30.213  15.836 -24.031  0.00  0.00     0.014 A 
ATOM     15  C   UNL d   1      29.510  15.454 -23.817  0.00  0.00     0.012 A 
ATOM     16  C   UNL d   1      28.778  15.866 -23.829  0.00  0.00     0.058 A 
ATOM     17  C   UNL d   1      28.761  16.653 -24.055  0.00  0.00     0.012 A 
ATOM     18 CL   UNL d   1      28.108  15.550 -23.639  0.00  0.00    -0.082 Cl
ATOM     19  C   UNL d   1      29.449  17.047 -24.270  0.00  0.00     0.014 A 
ENDBRANCH   1  13
TORSDOF 4
ENDMDL
MODEL 2
REMARK VINA RESULT:      -2.6      2.563      4.187
REMARK  4 active torsions:
REMARK  status: ('A' for Active; 'I' for Inactive)
REMARK    1  A    between atoms: N_2  and  S_1 
REMARK    2  A    between atoms: C_3  and  S_1 
REMARK    3  A    between atoms: C_4  and  N_2 
REMARK    4  A    between atoms: O_14  and  C_7 
ROOT
ATOM      1  S   UNL d   1      33.206  18.535 -23.328  0.00  0.00     0.285 S 
ATOM      2  O   UNL d   1      33.173  18.033 -22.672  0.00  0.00    -0.198 OA
ATOM      3  O   UNL d   1      33.241  19.047 -23.999  0.00  0.00    -0.198 OA
ENDROOT
BRANCH   1   4
ATOM      4  N   UNL d   1      33.199  17.882 -23.830  0.00  0.00    -0.156 NA
BRANCH   4   5
ATOM      5  C   UNL d   1      32.490  17.607 -24.142  0.00  0.00     0.116 A 
ATOM      6  C   UNL d   1      32.459  16.897 -24.560  0.00  0.00     0.112 A 
ATOM      7  C   UNL d   1      31.750  16.622 -24.871  0.00  0.00     0.026 A 
ATOM      8  C   UNL d   1      31.055  17.050 -24.771  0.00  0.00     0.002 A 
ATOM      9  C   UNL d   1      31.080  17.762 -24.353  0.00  0.00     0.002 A 
ATOM     10  C   UNL d   1      31.789  18.037 -24.042  0.00  0.00     0.022 A 
BRANCH   6  11
ATOM     11  O   UNL d   1      33.182  16.457 -24.661  0.00  0.00    -0.327 OA
ATOM     12  C   UNL d   1      33.184  15.731 -25.047  0.00  0.00     0.181 C 
ENDBRANCH   6  11
ENDBRANCH   4   5
ENDBRANCH   1   4
BRANCH   1  13
ATOM     13  C   UNL d   1      33.214  19.206 -22.817  0.00  0.00     0.105 A 
ATOM     14  C   UNL d   1      33.202  19.970 -23.144  0.00  0.00     0.014 A 
ATOM     15  C   UNL d   1      33.210  20.622 -22.634  0.00  0.00     0.012 A 
ATOM     16  C   UNL d   1      33.229  20.515 -21.800  0.00  0.00     0.058 A 
ATOM     17  C   UNL d   1      33.240  19.757 -21.492  0.00  0.00     0.012 A 
ATOM     18 CL   UNL d   1      33.236  21.090 -21.297  0.00  0.00    -0.082 Cl
ATOM     19  C   UNL d   1      33.233  19.099 -21.983  0.00  0.00     0.014 A 
ENDBRANCH   1  13
TORSDOF 4
ENDMDL
MODEL 3
REMARK VINA RESULT:      -2.4      6.667      7.853
REMARK  4 active torsions:
REMARK  status: ('A' for Active; 'I' for Inactive)
REMARK    1  A    between atoms: N_2  and  S_1 
REMARK    2  A    between atoms: C_3  and  S_1 
REMARK    3  A    between atoms: C_4  and  N_2 
REMARK    4  A    between atoms: O_14  and  C_7 
ROOT
ATOM      1  S   UNL d   1      32.436  23.413 -19.629  0.00  0.00     0.285 S 
ATOM      2  O   UNL d   1      33.239  23.605 -19.673  0.00  0.00    -0.198 OA
ATOM      3  O   UNL d   1      31.616  23.217 -19.586  0.00  0.00    -0.198 OA
ENDROOT
BRANCH   1   4
ATOM      4  N   UNL d   1      32.381  23.448 -20.451  0.00  0.00    -0.156 NA
BRANCH   4   5
ATOM      5  C   UNL d   1      32.480  22.767 -20.901  0.00  0.00     0.116 A 
ATOM      6  C   UNL d   1      32.659  22.814 -21.705  0.00  0.00     0.112 A 
ATOM      7  C   UNL d   1      32.758  22.134 -22.155  0.00  0.00     0.026 A 
ATOM      8  C   UNL d   1      32.681  21.390 -21.812  0.00  0.00     0.002 A 
ATOM      9  C   UNL d   1      32.501  21.337 -21.008  0.00  0.00     0.002 A 
ATOM     10  C   UNL d   1      32.402  22.017 -20.558  0.00  0.00     0.022 A 
BRANCH   6  11
ATOM     11  O   UNL d   1      32.738  23.587 -22.055  0.00  0.00    -0.327 OA
ATOM     12  C   UNL d   1      32.969  23.673 -22.839  0.00  0.00     0.181 C 
ENDBRANCH   6  11
ENDBRANCH   4   5
ENDBRANCH   1   4
BRANCH   1  13
ATOM     13  C   UNL d   1      32.490  23.377 -18.788  0.00  0.00     0.105 A 
ATOM     14  C   UNL d   1      33.152  23.020 -18.436  0.00  0.00     0.014 A 
ATOM     15  C   UNL d   1      33.197  22.989 -17.610  0.00  0.00     0.012 A 
ATOM     16  C   UNL d   1      32.583  23.313 -17.135  0.00  0.00     0.058 A 
ATOM     17  C   UNL d   1      31.936  23.661 -17.495  0.00  0.00     0.012 A 
ATOM     18 CL   UNL d   1      32.587  23.304 -16.370  0.00  0.00    -0.082 Cl
ATOM     19  C   UNL d   1      31.876  23.701 -18.313  0.00  0.00     0.014 A 
ENDBRANCH   1  13
TORSDOF 4
ENDMDL
MODEL 4
REMARK VINA RESULT:      -2.0      1.740      2.404
REMARK  4 active torsions:
REMARK  status: ('A' for Active; 'I' for Inactive)
REMARK    1  A    between atoms: N_2  and  S_1 
REMARK    2  A    between atoms: C_3  and  S_1 
REMARK    3  A    between atoms: C_4  and  N_2 
REMARK    4  A    between atoms: O_14  and  C_7 
ROOT
ATOM      1  S   UNL d   1      32.663  18.325 -23.946  0.00  0.00     0.285 S 
ATOM      2  O   UNL d   1      33.234  17.875 -23.551  0.00  0.00    -0.198 OA
ATOM      3  O   UNL d   1      32.082  18.786 -24.348  0.00  0.00    -0.198 OA
ENDROOT
BRANCH   1   4
ATOM      4  N   UNL d   1      33.141  18.993 -23.877  0.00  0.00    -0.156 NA
BRANCH   4   5
ATOM      5  C   UNL d   1      33.163  19.416 -23.172  0.00  0.00     0.116 A 
ATOM      6  C   UNL d   1      33.188  20.240 -23.173  0.00  0.00     0.112 A 
ATOM      7  C   UNL d   1      33.210  20.662 -22.468  0.00  0.00     0.026 A 
ATOM      8  C   UNL d   1      33.207  20.270 -21.746  0.00  0.00     0.002 A 
ATOM      9  C   UNL d   1      33.182  19.445 -21.738  0.00  0.00     0.002 A 
ATOM     10  C   UNL d   1      33.160  19.022 -22.443  0.00  0.00     0.022 A 
BRANCH   6  11
ATOM     11  O   UNL d   1      33.190  20.642 -23.925  0.00  0.00    -0.327 OA
ATOM     12  C   UNL d   1      33.225  21.462 -23.965  0.00  0.00     0.181 C 
ENDBRANCH   6  11
ENDBRANCH   4   5
ENDBRANCH   1   4
BRANCH   1  13
ATOM     13  C   UNL d   1      32.173  17.643 -24.018  0.00  0.00     0.105 A 
ATOM     14  C   UNL d   1      32.523  16.895 -24.106  0.00  0.00     0.014 A 
ATOM     15  C   UNL d   1      32.034  16.231 -24.175  0.00  0.00     0.012 A 
ATOM     16  C   UNL d   1      31.197  16.311 -24.158  0.00  0.00     0.058 A 
ATOM     17  C   UNL d   1      30.865  17.053 -24.071  0.00  0.00     0.012 A 
ATOM     18 CL   UNL d   1      30.712  15.723 -24.219  0.00  0.00    -0.082 Cl
ATOM     19  C   UNL d   1      31.336  17.723 -24.000  0.00  0.00     0.014 A 
ENDBRANCH   1  13
TORSDOF 4
ENDMDL
MODEL 5
REMARK VINA RESULT:      -1.9      1.884      3.805
REMARK  4 active torsions:
REMARK  status: ('A' for Active; 'I' for Inactive)
REMARK    1  A    between atoms: N_2  and  S_1 
REMARK    2  A    between atoms: C_3  and  S_1 
REMARK    3  A    between atoms: C_4  and  N_2 
REMARK    4  A    between atoms: O_14  and  C_7 
ROOT
ATOM      1  S   UNL d   1      30.811  16.734 -24.699  0.00  0.00     0.285 S 
ATOM      2  O   UNL d   1      31.349  16.110 -24.772  0.00  0.00    -0.198 OA
ATOM      3  O   UNL d   1      30.261  17.369 -24.626  0.00  0.00    -0.198 OA
ENDROOT
BRANCH   1   4
ATOM      4  N   UNL d   1      30.188  16.195 -24.668  0.00  0.00    -0.156 NA
BRANCH   4   5
ATOM      5  C   UNL d   1      29.889  15.950 -23.943  0.00  0.00     0.116 A 
ATOM      6  C   UNL d   1      29.094  15.745 -23.861  0.00  0.00     0.112 A 
ATOM      7  C   UNL d   1      28.795  15.500 -23.136  0.00  0.00     0.026 A 
ATOM      8  C   UNL d   1      29.284  15.453 -22.476  0.00  0.00     0.002 A 
ATOM      9  C   UNL d   1      30.080  15.656 -22.553  0.00  0.00     0.002 A 
ATOM     10  C   UNL d   1      30.380  15.901 -23.278  0.00  0.00     0.022 A 
BRANCH   6  11
ATOM     11  O   UNL d   1      28.592  15.796 -24.548  0.00  0.00    -0.327 OA
ATOM     12  C   UNL d   1      27.828  15.494 -24.535  0.00  0.00     0.181 C 
ENDBRANCH   6  11
ENDBRANCH   4   5
ENDBRANCH   1   4
BRANCH   1  13
ATOM     13  C   UNL d   1      31.447  17.287 -24.731  0.00  0.00     0.105 A 
ATOM     14  C   UNL d   1      32.226  17.011 -24.814  0.00  0.00     0.014 A 
ATOM     15  C   UNL d   1      32.844  17.560 -24.843  0.00  0.00     0.012 A 
ATOM     16  C   UNL d   1      32.687  18.385 -24.791  0.00  0.00     0.058 A 
ATOM     17  C   UNL d   1      31.915  18.644 -24.710  0.00  0.00     0.012 A 
ATOM     18 CL   UNL d   1      33.229  18.924 -24.815  0.00  0.00    -0.082 Cl
ATOM     19  C   UNL d   1      31.290  18.112 -24.678  0.00  0.00     0.014 A 
ENDBRANCH   1  13
TORSDOF 4
ENDMDL
MODEL 6
REMARK VINA RESULT:      -1.4      3.296      4.326
REMARK  4 active torsions:
REMARK  status: ('A' for Active; 'I' for Inactive)
REMARK    1  A    between atoms: N_2  and  S_1 
REMARK    2  A    between atoms: C_3  and  S_1 
REMARK    3  A    between atoms: C_4  and  N_2 
REMARK    4  A    between atoms: O_14  and  C_7 
ROOT
ATOM      1  S   UNL d   1      33.087  20.067 -22.839  0.00  0.00     0.285 S 
ATOM      2  O   UNL d   1      33.204  19.871 -22.044  0.00  0.00    -0.198 OA
ATOM      3  O   UNL d   1      32.968  20.270 -23.649  0.00  0.00    -0.198 OA
ENDROOT
BRANCH   1   4
ATOM      4  N   UNL d   1      33.241  20.858 -22.667  0.00  0.00    -0.156 NA
BRANCH   4   5
ATOM      5  C   UNL d   1      32.886  21.218 -22.018  0.00  0.00     0.116 A 
ATOM      6  C   UNL d   1      32.811  22.038 -21.978  0.00  0.00     0.112 A 
ATOM      7  C   UNL d   1      32.456  22.397 -21.329  0.00  0.00     0.026 A 
ATOM      8  C   UNL d   1      32.169  21.945 -20.706  0.00  0.00     0.002 A 
ATOM      9  C   UNL d   1      32.242  21.123 -20.740  0.00  0.00     0.002 A 
ATOM     10  C   UNL d   1      32.597  20.764 -21.389  0.00  0.00     0.022 A 
BRANCH   6  11
ATOM     11  O   UNL d   1      33.110  22.502 -22.627  0.00  0.00    -0.327 OA
ATOM     12  C   UNL d   1      32.938  23.304 -22.687  0.00  0.00     0.181 C 
ENDBRANCH   6  11
ENDBRANCH   4   5
ENDBRANCH   1   4
BRANCH   1  13
ATOM     13  C   UNL d   1      32.929  19.258 -23.017  0.00  0.00     0.105 A 
ATOM     14  C   UNL d   1      32.479  19.068 -23.690  0.00  0.00     0.014 A 
ATOM     15  C   UNL d   1      32.329  18.272 -23.857  0.00  0.00     0.012 A 
ATOM     16  C   UNL d   1      32.626  17.665 -23.357  0.00  0.00     0.058 A 
ATOM     17  C   UNL d   1      33.068  17.866 -22.698  0.00  0.00     0.012 A 
ATOM     18 CL   UNL d   1      32.510  16.919 -23.477  0.00  0.00    -0.082 Cl
ATOM     19  C   UNL d   1      33.226  18.651 -22.517  0.00  0.00     0.014 A 
ENDBRANCH   1  13
TORSDOF 4
ENDMDL
MODEL 7
REMARK VINA RESULT:      -0.8      4.222      5.650
REMARK  4 active torsions:
REMARK  status: ('A' for Active; 'I' for Inactive)
REMARK    1  A    between atoms: N_2  and  S_1 
REMARK    2  A    between atoms: C_3  and  S_1 
REMARK    3  A    between atoms: C_4  and  N_2 
REMARK    4  A    between atoms: O_14  and  C_7 
ROOT
ATOM      1  S   UNL d   1      32.433  20.804 -21.471  0.00  0.00     0.285 S 
ATOM      2  O   UNL d   1      33.050  20.468 -21.036  0.00  0.00    -0.198 OA
ATOM      3  O   UNL d   1      31.802  21.145 -21.917  0.00  0.00    -0.198 OA
ENDROOT
BRANCH   1   4
ATOM      4  N   UNL d   1      32.374  20.116 -21.921  0.00  0.00    -0.156 NA
BRANCH   4   5
ATOM      5  C   UNL d   1      32.660  20.100 -22.692  0.00  0.00     0.116 A 
ATOM      6  C   UNL d   1      32.795  19.384 -23.078  0.00  0.00     0.112 A 
ATOM      7  C   UNL d   1      33.081  19.367 -23.848  0.00  0.00     0.026 A 
ATOM      8  C   UNL d   1      33.240  20.067 -24.250  0.00  0.00     0.002 A 
ATOM      9  C   UNL d   1      33.108  20.787 -23.868  0.00  0.00     0.002 A 
ATOM     10  C   UNL d   1      32.821  20.803 -23.098  0.00  0.00     0.022 A 
BRANCH   6  11
ATOM     11  O   UNL d   1      32.628  18.661 -22.657  0.00  0.00    -0.327 OA
ATOM     12  C   UNL d   1      32.409  17.979 -23.059  0.00  0.00     0.181 C 
ENDBRANCH   6  11
ENDBRANCH   4   5
ENDBRANCH   1   4
BRANCH   1  13
ATOM     13  C   UNL d   1      32.490  21.509 -21.012  0.00  0.00     0.105 A 
ATOM     14  C   UNL d   1      31.849  22.036 -20.991  0.00  0.00     0.014 A 
ATOM     15  C   UNL d   1      31.914  22.726 -20.538  0.00  0.00     0.012 A 
ATOM     16  C   UNL d   1      32.617  22.891 -20.106  0.00  0.00     0.058 A 
ATOM     17  C   UNL d   1      33.241  22.362 -20.136  0.00  0.00     0.012 A 
ATOM     18 CL   UNL d   1      32.716  23.515 -19.676  0.00  0.00    -0.082 Cl
ATOM     19  C   UNL d   1      33.193  21.673 -20.580  0.00  0.00     0.014 A 
ENDBRANCH   1  13
TORSDOF 4
ENDMDL
