MODEL 1
REMARK VINA RESULT:      79.3      0.000      0.000
REMARK  5 active torsions:
REMARK  status: ('A' for Active; 'I' for Inactive)
REMARK    1  A    between atoms: S_2  and  C_1 
REMARK    2  A    between atoms: C_9  and  S_2 
REMARK    3  A    between atoms: C_8  and  N_3 
REMARK    4  A    between atoms: C_7  and  C_8 
REMARK       I    between atoms: N_12  and  C_7 
REMARK    5  A    between atoms: C_14  and  C_9 
ROOT
ATOM      1  C   UNL d   1      58.574  48.970  50.893  0.00  0.00     0.107 A 
ATOM      2  N   UNL d   1      57.552  49.437  51.608  0.00  0.00    -0.299 N 
ATOM      3  C   UNL d   1      58.335  49.184  51.657  0.00  0.00     0.092 A 
ATOM      4  C   UNL d   1      57.939  49.091  50.381  0.00  0.00     0.028 A 
ATOM      5  C   UNL d   1      57.305  49.381  50.827  0.00  0.00     0.065 A 
ATOM      6  C   UNL d   1      57.855  48.976  49.570  0.00  0.00     0.002 A 
ATOM      7  C   UNL d   1      56.590  49.554  50.453  0.00  0.00     0.018 A 
ATOM      8  C   UNL d   1      57.137  49.148  49.194  0.00  0.00     0.000 A 
ATOM      9  C   UNL d   1      56.507  49.438  49.643  0.00  0.00     0.002 A 
ENDROOT
BRANCH   1  10
ATOM     10  S   UNL d   1      59.323  48.683  50.681  0.00  0.00     0.212 S 
ATOM     11  O   UNL d   1      59.514  49.474  50.548  0.00  0.00    -0.217 OA
ATOM     12  O   UNL d   1      59.128  47.889  50.815  0.00  0.00    -0.217 OA
BRANCH  10  13
ATOM     13  C   UNL d   1      60.066  48.396  50.471  0.00  0.00     0.099 C 
BRANCH  13  14
ATOM     14  C   UNL d   1      60.734  48.656  50.874  0.00  0.00     0.011 A 
ATOM     15  C   UNL d   1      61.383  48.153  50.957  0.00  0.00     0.001 A 
ATOM     16  C   UNL d   1      62.058  48.420  51.366  0.00  0.00     0.000 A 
ATOM     17  C   UNL d   1      62.075  49.186  51.685  0.00  0.00     0.000 A 
ATOM     18  C   UNL d   1      61.418  49.677  51.593  0.00  0.00     0.000 A 
ATOM     19  C   UNL d   1      60.755  49.412  51.191  0.00  0.00     0.001 A 
ENDBRANCH  13  14
ENDBRANCH  10  13
ENDBRANCH   1  10
BRANCH   2  20
ATOM     20  C   UNL d   1      57.093  49.702  52.241  0.00  0.00     0.142 C 
BRANCH  20  21
ATOM     21  C   UNL d   1      57.390  49.666  53.008  0.00  0.00     0.283 C 
ATOM     22  N   UNL d   1      56.873  49.601  53.648  0.00  0.00    -0.268 N 
ATOM     23  C   UNL d   1      57.167  49.565  54.424  0.00  0.00     0.102 C 
ATOM     24  C   UNL d   1      56.060  49.571  53.520  0.00  0.00     0.102 C 
ATOM     25  O   UNL d   1      58.202  49.696  53.136  0.00  0.00    -0.265 OA
ENDBRANCH  20  21
ENDBRANCH   2  20
TORSDOF 5
ENDMDL
