MODEL 1
REMARK VINA RESULT:      -3.2      0.000      0.000
REMARK  7 active torsions:
REMARK  status: ('A' for Active; 'I' for Inactive)
REMARK    1  A    between atoms: C_2  and  S_1 
REMARK    2  A    between atoms: N_8  and  S_1 
REMARK    3  A    between atoms: C_13  and  N_8 
REMARK    4  A    between atoms: N_9  and  C_14 
REMARK    5  A    between atoms: O_15  and  C_10 
REMARK    6  A    between atoms: C_14  and  C_13 
REMARK    7  A    between atoms: C_22  and  O_15 
ROOT
ATOM      1  C   UNL d   1     -41.666-122.749 -50.588  0.00  0.00     0.105 A 
ATOM      2  C   UNL d   1     -42.411-122.597 -50.291  0.00  0.00     0.014 A 
ATOM      3  C   UNL d   1     -42.631-122.888 -49.551  0.00  0.00     0.024 A 
ATOM      4  C   UNL d   1     -41.128-123.197 -50.145  0.00  0.00     0.015 A 
ATOM      5  C   UNL d   1     -42.107-123.330 -49.108  0.00  0.00     0.100 A 
ATOM      6  C   UNL d   1     -41.348-123.488 -49.405  0.00  0.00     0.025 A 
ATOM      7  C   UNL d   1     -42.944-122.151 -50.734  0.00  0.00     0.001 A 
ATOM      8  C   UNL d   1     -43.385-122.732 -49.254  0.00  0.00     0.002 A 
ATOM      9  C   UNL d   1     -43.698-121.995 -50.438  0.00  0.00     0.000 A 
ATOM     10  C   UNL d   1     -43.919-122.285 -49.698  0.00  0.00     0.000 A 
ENDROOT
BRANCH   1  11
ATOM     11  S   UNL d   1     -41.445-122.459 -51.328  0.00  0.00     0.285 S 
ATOM     12  O   UNL d   1     -41.205-121.744 -50.976  0.00  0.00    -0.198 OA
ATOM     13  O   UNL d   1     -41.680-123.159 -51.673  0.00  0.00    -0.198 OA
BRANCH  11  14
ATOM     14  N   UNL d   1     -41.225-122.168 -52.068  0.00  0.00    -0.155 NA
BRANCH  14  15
ATOM     15  C   UNL d   1     -41.498-122.525 -52.750  0.00  0.00     0.131 C 
BRANCH  15  16
ATOM     16  C   UNL d   1     -41.123-122.389 -53.472  0.00  0.00     0.102 C 
BRANCH  16  17
ATOM     17  N   UNL d   1     -41.557-122.405 -54.172  0.00  0.00    -0.298 N 
ATOM     18  C   UNL d   1     -41.907-121.715 -54.458  0.00  0.00     0.107 A 
ATOM     19  C   UNL d   1     -42.344-121.729 -55.162  0.00  0.00     0.142 A 
ATOM     20  O   UNL d   1     -42.429-122.436 -55.578  0.00  0.00    -0.300 OA
ATOM     21  C   UNL d   1     -42.077-123.129 -55.290  0.00  0.00     0.142 A 
ATOM     22  C   UNL d   1     -41.642-123.112 -54.588  0.00  0.00     0.107 A 
ENDBRANCH  16  17
ENDBRANCH  15  16
ENDBRANCH  14  15
ENDBRANCH  11  14
ENDBRANCH   1  11
BRANCH   5  23
ATOM     23  O   UNL d   1     -42.321-123.623 -48.368  0.00  0.00    -0.305 OA
BRANCH  23  24
ATOM     24  C   UNL d   1     -41.746-123.808 -47.808  0.00  0.00     0.123 C 
ATOM     25  C   UNL d   1     -41.905-123.712 -47.005  0.00  0.00     0.029 C 
ENDBRANCH  23  24
ENDBRANCH   5  23
TORSDOF 7
ENDMDL
