MODEL 1
REMARK VINA RESULT:      -3.0      0.000      0.000
REMARK  4 active torsions:
REMARK  status: ('A' for Active; 'I' for Inactive)
REMARK    1  A    between atoms: N_2  and  C_1 
REMARK    2  A    between atoms: C_4  and  C_8 
REMARK       I    between atoms: N_5  and  C_4 
REMARK    3  A    between atoms: C_9  and  C_7 
REMARK    4  A    between atoms: C_8  and  C_9 
ROOT
ATOM      1  C   UNL d   1      32.981  19.926 -22.431  0.00  0.00     0.062 C 
ENDROOT
BRANCH   1   2
ATOM      2  C   UNL d   1      33.077  19.127 -22.465  0.00  0.00     0.265 C 
ATOM      3  N   UNL d   1      33.013  18.732 -23.181  0.00  0.00    -0.272 N 
ATOM      4  C   UNL d   1      32.849  19.151 -23.869  0.00  0.00     0.083 A 
ATOM      5  C   UNL d   1      33.112  17.906 -23.217  0.00  0.00     0.083 A 
ATOM      6  C   UNL d   1      32.782  18.764 -24.591  0.00  0.00     0.019 A 
ATOM      7  C   UNL d   1      32.880  17.948 -24.629  0.00  0.00     0.003 A 
ATOM      8  C   UNL d   1      33.045  17.518 -23.942  0.00  0.00     0.019 A 
ATOM      9  O   UNL d   1      33.240  18.711 -21.778  0.00  0.00    -0.267 OA
ENDBRANCH   1   2
BRANCH   1  10
ATOM     10  C   UNL d   1      33.058  20.321 -21.660  0.00  0.00     0.011 C 
BRANCH  10  11
ATOM     11  C   UNL d   1      32.934  21.153 -21.585  0.00  0.00     0.031 A 
ATOM     12  S   UNL d   1      32.487  21.498 -21.021  0.00  0.00    -0.064 SA
ATOM     13  C   UNL d   1      32.517  22.316 -21.152  0.00  0.00     0.156 A 
ATOM     14  C   UNL d   1      32.996  22.436 -21.813  0.00  0.00     0.031 A 
ATOM     15  C   UNL d   1      33.241  21.734 -22.065  0.00  0.00     0.009 A 
BRANCH  13  16
ATOM     16  N   UNL d   1      32.135  22.923 -20.705  0.00  0.00    -0.107 N 
ATOM     17  O   UNL d   1      31.383  23.215 -20.950  0.00  0.00    -0.531 OA
ATOM     18  O   UNL d   1      32.499  23.240 -20.014  0.00  0.00    -0.531 OA
ENDBRANCH  13  16
ENDBRANCH  10  11
ENDBRANCH   1  10
TORSDOF 4
ENDMDL
MODEL 2
REMARK VINA RESULT:      -2.7      2.301      4.882
REMARK  4 active torsions:
REMARK  status: ('A' for Active; 'I' for Inactive)
REMARK    1  A    between atoms: N_2  and  C_1 
REMARK    2  A    between atoms: C_4  and  C_8 
REMARK       I    between atoms: N_5  and  C_4 
REMARK    3  A    between atoms: C_9  and  C_7 
REMARK    4  A    between atoms: C_8  and  C_9 
ROOT
ATOM      1  C   UNL d   1      32.924  19.083 -22.964  0.00  0.00     0.062 C 
ENDROOT
BRANCH   1   2
ATOM      2  C   UNL d   1      33.077  19.871 -23.046  0.00  0.00     0.265 C 
ATOM      3  N   UNL d   1      33.080  20.361 -22.390  0.00  0.00    -0.272 N 
ATOM      4  C   UNL d   1      32.927  20.053 -21.643  0.00  0.00     0.083 A 
ATOM      5  C   UNL d   1      33.238  21.175 -22.473  0.00  0.00     0.083 A 
ATOM      6  C   UNL d   1      32.929  20.537 -20.979  0.00  0.00     0.019 A 
ATOM      7  C   UNL d   1      33.084  21.342 -21.059  0.00  0.00     0.003 A 
ATOM      8  C   UNL d   1      33.239  21.661 -21.806  0.00  0.00     0.019 A 
ATOM      9  O   UNL d   1      33.229  20.177 -23.791  0.00  0.00    -0.267 OA
ENDBRANCH   1   2
BRANCH   1  10
ATOM     10  C   UNL d   1      32.895  18.591 -23.680  0.00  0.00     0.011 C 
BRANCH  10  11
ATOM     11  C   UNL d   1      32.614  17.794 -23.647  0.00  0.00     0.031 A 
ATOM     12  S   UNL d   1      31.917  17.544 -23.942  0.00  0.00    -0.064 SA
ATOM     13  C   UNL d   1      31.865  16.731 -23.790  0.00  0.00     0.156 A 
ATOM     14  C   UNL d   1      32.557  16.516 -23.395  0.00  0.00     0.031 A 
ATOM     15  C   UNL d   1      32.999  17.159 -23.314  0.00  0.00     0.009 A 
BRANCH  13  16
ATOM     16  N   UNL d   1      31.232  16.209 -23.993  0.00  0.00    -0.107 N 
ATOM     17  O   UNL d   1      31.133  15.961 -24.793  0.00  0.00    -0.531 OA
ATOM     18  O   UNL d   1      30.697  15.932 -23.403  0.00  0.00    -0.531 OA
ENDBRANCH  13  16
ENDBRANCH  10  11
ENDBRANCH   1  10
TORSDOF 4
ENDMDL
MODEL 3
REMARK VINA RESULT:      -2.7      3.385      4.771
REMARK  4 active torsions:
REMARK  status: ('A' for Active; 'I' for Inactive)
REMARK    1  A    between atoms: N_2  and  C_1 
REMARK    2  A    between atoms: C_4  and  C_8 
REMARK       I    between atoms: N_5  and  C_4 
REMARK    3  A    between atoms: C_9  and  C_7 
REMARK    4  A    between atoms: C_8  and  C_9 
ROOT
ATOM      1  C   UNL d   1      30.802  16.611 -23.914  0.00  0.00     0.062 C 
ENDROOT
BRANCH   1   2
ATOM      2  C   UNL d   1      30.312  16.172 -24.380  0.00  0.00     0.265 C 
ATOM      3  N   UNL d   1      29.536  16.040 -24.154  0.00  0.00    -0.272 N 
ATOM      4  C   UNL d   1      29.252  16.354 -23.449  0.00  0.00     0.083 A 
ATOM      5  C   UNL d   1      29.028  15.586 -24.634  0.00  0.00     0.083 A 
ATOM      6  C   UNL d   1      28.475  16.226 -23.214  0.00  0.00     0.019 A 
ATOM      7  C   UNL d   1      27.971  15.778 -23.687  0.00  0.00     0.003 A 
ATOM      8  C   UNL d   1      28.248  15.458 -24.398  0.00  0.00     0.019 A 
ATOM      9  O   UNL d   1      30.597  15.860 -25.082  0.00  0.00    -0.267 OA
ENDBRANCH   1   2
BRANCH   1  10
ATOM     10  C   UNL d   1      31.599  16.795 -24.209  0.00  0.00     0.011 C 
BRANCH  10  11
ATOM     11  C   UNL d   1      32.139  17.249 -23.744  0.00  0.00     0.031 A 
ATOM     12  S   UNL d   1      32.160  18.046 -23.717  0.00  0.00    -0.064 SA
ATOM     13  C   UNL d   1      32.768  18.257 -23.196  0.00  0.00     0.156 A 
ATOM     14  C   UNL d   1      33.101  17.555 -22.919  0.00  0.00     0.031 A 
ATOM     15  C   UNL d   1      32.718  16.957 -23.253  0.00  0.00     0.009 A 
BRANCH  13  16
ATOM     16  N   UNL d   1      33.012  19.037 -22.979  0.00  0.00    -0.107 N 
ATOM     17  O   UNL d   1      33.227  19.591 -23.578  0.00  0.00    -0.531 OA
ATOM     18  O   UNL d   1      33.044  19.267 -22.169  0.00  0.00    -0.531 OA
ENDBRANCH  13  16
ENDBRANCH  10  11
ENDBRANCH   1  10
TORSDOF 4
ENDMDL
MODEL 4
REMARK VINA RESULT:      -2.5      2.263      3.013
REMARK  4 active torsions:
REMARK  status: ('A' for Active; 'I' for Inactive)
REMARK    1  A    between atoms: N_2  and  C_1 
REMARK    2  A    between atoms: C_4  and  C_8 
REMARK       I    between atoms: N_5  and  C_4 
REMARK    3  A    between atoms: C_9  and  C_7 
REMARK    4  A    between atoms: C_8  and  C_9 
ROOT
ATOM      1  C   UNL d   1      31.968  17.857 -23.786  0.00  0.00     0.062 C 
ENDROOT
BRANCH   1   2
ATOM      2  C   UNL d   1      31.841  17.098 -24.026  0.00  0.00     0.265 C 
ATOM      3  N   UNL d   1      31.112  16.876 -24.327  0.00  0.00    -0.272 N 
ATOM      4  C   UNL d   1      30.505  17.428 -24.385  0.00  0.00     0.083 A 
ATOM      5  C   UNL d   1      30.979  16.093 -24.576  0.00  0.00     0.083 A 
ATOM      6  C   UNL d   1      29.770  17.214 -24.685  0.00  0.00     0.019 A 
ATOM      7  C   UNL d   1      29.636  16.441 -24.932  0.00  0.00     0.003 A 
ATOM      8  C   UNL d   1      30.242  15.879 -24.877  0.00  0.00     0.019 A 
ATOM      9  O   UNL d   1      32.448  16.550 -23.968  0.00  0.00    -0.267 OA
ENDBRANCH   1   2
BRANCH   1  10
ATOM     10  C   UNL d   1      32.753  18.068 -23.477  0.00  0.00     0.011 C 
BRANCH  10  11
ATOM     11  C   UNL d   1      32.925  18.858 -23.233  0.00  0.00     0.031 A 
ATOM     12  S   UNL d   1      32.918  19.114 -22.477  0.00  0.00    -0.064 SA
ATOM     13  C   UNL d   1      33.116  19.918 -22.490  0.00  0.00     0.156 A 
ATOM     14  C   UNL d   1      33.239  20.123 -23.280  0.00  0.00     0.031 A 
ATOM     15  C   UNL d   1      33.122  19.482 -23.717  0.00  0.00     0.009 A 
BRANCH  13  16
ATOM     16  N   UNL d   1      33.184  20.442 -21.829  0.00  0.00    -0.107 N 
ATOM     17  O   UNL d   1      33.195  21.275 -21.954  0.00  0.00    -0.531 OA
ATOM     18  O   UNL d   1      33.241  20.138 -21.045  0.00  0.00    -0.531 OA
ENDBRANCH  13  16
ENDBRANCH  10  11
ENDBRANCH   1  10
TORSDOF 4
ENDMDL
MODEL 5
REMARK VINA RESULT:      -2.2      1.504      4.726
REMARK  4 active torsions:
REMARK  status: ('A' for Active; 'I' for Inactive)
REMARK    1  A    between atoms: N_2  and  C_1 
REMARK    2  A    between atoms: C_4  and  C_8 
REMARK       I    between atoms: N_5  and  C_4 
REMARK    3  A    between atoms: C_9  and  C_7 
REMARK    4  A    between atoms: C_8  and  C_9 
ROOT
ATOM      1  C   UNL d   1      32.895  21.207 -21.865  0.00  0.00     0.062 C 
ENDROOT
BRANCH   1   2
ATOM      2  C   UNL d   1      32.940  22.012 -21.860  0.00  0.00     0.265 C 
ATOM      3  N   UNL d   1      32.730  22.433 -21.188  0.00  0.00    -0.272 N 
ATOM      4  C   UNL d   1      32.474  22.036 -20.516  0.00  0.00     0.083 A 
ATOM      5  C   UNL d   1      32.776  23.265 -21.181  0.00  0.00     0.083 A 
ATOM      6  C   UNL d   1      32.262  22.450 -19.838  0.00  0.00     0.019 A 
ATOM      7  C   UNL d   1      32.306  23.271 -19.828  0.00  0.00     0.003 A 
ATOM      8  C   UNL d   1      32.563  23.680 -20.500  0.00  0.00     0.019 A 
ATOM      9  O   UNL d   1      33.196  22.407 -22.531  0.00  0.00    -0.267 OA
ENDBRANCH   1   2
BRANCH   1  10
ATOM     10  C   UNL d   1      33.241  20.778 -22.538  0.00  0.00     0.011 C 
BRANCH  10  11
ATOM     11  C   UNL d   1      33.148  19.942 -22.611  0.00  0.00     0.031 A 
ATOM     12  S   UNL d   1      32.953  19.562 -23.286  0.00  0.00    -0.064 SA
ATOM     13  C   UNL d   1      32.922  18.753 -23.110  0.00  0.00     0.156 A 
ATOM     14  C   UNL d   1      33.106  18.674 -22.310  0.00  0.00     0.031 A 
ATOM     15  C   UNL d   1      33.240  19.391 -22.020  0.00  0.00     0.009 A 
BRANCH  13  16
ATOM     16  N   UNL d   1      32.739  18.119 -23.638  0.00  0.00    -0.107 N 
ATOM     17  O   UNL d   1      33.228  17.432 -23.655  0.00  0.00    -0.531 OA
ATOM     18  O   UNL d   1      32.071  18.166 -24.150  0.00  0.00    -0.531 OA
ENDBRANCH  13  16
ENDBRANCH  10  11
ENDBRANCH   1  10
TORSDOF 4
ENDMDL
MODEL 6
REMARK VINA RESULT:      -1.6      2.795      3.595
REMARK  4 active torsions:
REMARK  status: ('A' for Active; 'I' for Inactive)
REMARK    1  A    between atoms: N_2  and  C_1 
REMARK    2  A    between atoms: C_4  and  C_8 
REMARK       I    between atoms: N_5  and  C_4 
REMARK    3  A    between atoms: C_9  and  C_7 
REMARK    4  A    between atoms: C_8  and  C_9 
ROOT
ATOM      1  C   UNL d   1      32.970  22.708 -21.195  0.00  0.00     0.062 C 
ENDROOT
BRANCH   1   2
ATOM      2  C   UNL d   1      33.026  22.208 -21.825  0.00  0.00     0.265 C 
ATOM      3  N   UNL d   1      33.097  22.508 -22.585  0.00  0.00    -0.272 N 
ATOM      4  C   UNL d   1      33.111  23.320 -22.708  0.00  0.00     0.083 A 
ATOM      5  C   UNL d   1      33.154  21.993 -23.237  0.00  0.00     0.083 A 
ATOM      6  C   UNL d   1      33.182  23.630 -23.466  0.00  0.00     0.019 A 
ATOM      7  C   UNL d   1      33.239  23.123 -24.112  0.00  0.00     0.003 A 
ATOM      8  C   UNL d   1      33.225  22.304 -23.998  0.00  0.00     0.019 A 
ATOM      9  O   UNL d   1      33.011  21.398 -21.700  0.00  0.00    -0.267 OA
ENDBRANCH   1   2
BRANCH   1  10
ATOM     10  C   UNL d   1      32.684  22.389 -20.438  0.00  0.00     0.011 C 
BRANCH  10  11
ATOM     11  C   UNL d   1      32.824  22.802 -19.714  0.00  0.00     0.031 A 
ATOM     12  S   UNL d   1      32.568  22.563 -18.997  0.00  0.00    -0.064 SA
ATOM     13  C   UNL d   1      32.826  23.126 -18.447  0.00  0.00     0.156 A 
ATOM     14  C   UNL d   1      33.241  23.702 -18.868  0.00  0.00     0.031 A 
ATOM     15  C   UNL d   1      33.234  23.499 -19.626  0.00  0.00     0.009 A 
BRANCH  13  16
ATOM     16  N   UNL d   1      32.697  23.126 -17.611  0.00  0.00    -0.107 N 
ATOM     17  O   UNL d   1      33.154  22.619 -17.116  0.00  0.00    -0.531 OA
ATOM     18  O   UNL d   1      32.114  23.627 -17.266  0.00  0.00    -0.531 OA
ENDBRANCH  13  16
ENDBRANCH  10  11
ENDBRANCH   1  10
TORSDOF 4
ENDMDL
MODEL 7
REMARK VINA RESULT:      -1.1      1.171      1.585
REMARK  4 active torsions:
REMARK  status: ('A' for Active; 'I' for Inactive)
REMARK    1  A    between atoms: N_2  and  C_1 
REMARK    2  A    between atoms: C_4  and  C_8 
REMARK       I    between atoms: N_5  and  C_4 
REMARK    3  A    between atoms: C_9  and  C_7 
REMARK    4  A    between atoms: C_8  and  C_9 
ROOT
ATOM      1  C   UNL d   1      33.201  21.118 -22.933  0.00  0.00     0.062 C 
ENDROOT
BRANCH   1   2
ATOM      2  C   UNL d   1      33.220  20.644 -23.585  0.00  0.00     0.265 C 
ATOM      3  N   UNL d   1      33.219  19.829 -23.503  0.00  0.00    -0.272 N 
ATOM      4  C   UNL d   1      33.199  19.490 -22.755  0.00  0.00     0.083 A 
ATOM      5  C   UNL d   1      33.239  19.338 -24.176  0.00  0.00     0.083 A 
ATOM      6  C   UNL d   1      33.198  18.673 -22.663  0.00  0.00     0.019 A 
ATOM      7  C   UNL d   1      33.217  18.185 -23.326  0.00  0.00     0.003 A 
ATOM      8  C   UNL d   1      33.238  18.518 -24.083  0.00  0.00     0.019 A 
ATOM      9  O   UNL d   1      33.240  20.985 -24.331  0.00  0.00    -0.267 OA
ENDBRANCH   1   2
BRANCH   1  10
ATOM     10  C   UNL d   1      33.107  21.975 -23.047  0.00  0.00     0.011 C 
BRANCH  10  11
ATOM     11  C   UNL d   1      32.951  22.484 -22.391  0.00  0.00     0.031 A 
ATOM     12  S   UNL d   1      32.878  22.243 -21.634  0.00  0.00    -0.064 SA
ATOM     13  C   UNL d   1      32.728  22.917 -21.176  0.00  0.00     0.156 A 
ATOM     14  C   UNL d   1      32.718  23.561 -21.693  0.00  0.00     0.031 A 
ATOM     15  C   UNL d   1      32.852  23.291 -22.418  0.00  0.00     0.009 A 
BRANCH  13  16
ATOM     16  N   UNL d   1      32.608  22.956 -20.340  0.00  0.00    -0.107 N 
ATOM     17  O   UNL d   1      32.147  23.580 -20.011  0.00  0.00    -0.531 OA
ATOM     18  O   UNL d   1      32.946  22.375 -19.831  0.00  0.00    -0.531 OA
ENDBRANCH  13  16
ENDBRANCH  10  11
ENDBRANCH   1  10
TORSDOF 4
ENDMDL
MODEL 8
REMARK VINA RESULT:      -0.1      2.426      3.787
REMARK  4 active torsions:
REMARK  status: ('A' for Active; 'I' for Inactive)
REMARK    1  A    between atoms: N_2  and  C_1 
REMARK    2  A    between atoms: C_4  and  C_8 
REMARK       I    between atoms: N_5  and  C_4 
REMARK    3  A    between atoms: C_9  and  C_7 
REMARK    4  A    between atoms: C_8  and  C_9 
ROOT
ATOM      1  C   UNL d   1      32.598  22.265 -20.218  0.00  0.00     0.062 C 
ENDROOT
BRANCH   1   2
ATOM      2  C   UNL d   1      32.667  22.475 -20.993  0.00  0.00     0.265 C 
ATOM      3  N   UNL d   1      32.830  21.908 -21.562  0.00  0.00    -0.272 N 
ATOM      4  C   UNL d   1      32.923  21.121 -21.345  0.00  0.00     0.083 A 
ATOM      5  C   UNL d   1      32.902  22.124 -22.364  0.00  0.00     0.083 A 
ATOM      6  C   UNL d   1      33.086  20.545 -21.909  0.00  0.00     0.019 A 
ATOM      7  C   UNL d   1      33.158  20.756 -22.701  0.00  0.00     0.003 A 
ATOM      8  C   UNL d   1      33.065  21.546 -22.929  0.00  0.00     0.019 A 
ATOM      9  O   UNL d   1      32.574  23.261 -21.208  0.00  0.00    -0.267 OA
ENDBRANCH   1   2
BRANCH   1  10
ATOM     10  C   UNL d   1      32.822  22.844 -19.610  0.00  0.00     0.011 C 
BRANCH  10  11
ATOM     11  C   UNL d   1      32.970  22.602 -18.814  0.00  0.00     0.031 A 
ATOM     12  S   UNL d   1      32.969  23.089 -18.182  0.00  0.00    -0.064 SA
ATOM     13  C   UNL d   1      33.138  22.625 -17.517  0.00  0.00     0.156 A 
ATOM     14  C   UNL d   1      33.238  21.850 -17.783  0.00  0.00     0.031 A 
ATOM     15  C   UNL d   1      33.135  21.847 -18.561  0.00  0.00     0.009 A 
BRANCH  13  16
ATOM     16  N   UNL d   1      33.201  22.881 -16.713  0.00  0.00    -0.107 N 
ATOM     17  O   UNL d   1      33.223  22.311 -16.092  0.00  0.00    -0.531 OA
ATOM     18  O   UNL d   1      33.240  23.702 -16.526  0.00  0.00    -0.531 OA
ENDBRANCH  13  16
ENDBRANCH  10  11
ENDBRANCH   1  10
TORSDOF 4
ENDMDL
