MODEL 1
REMARK VINA RESULT:      59.3      0.000      0.000
REMARK  3 active torsions:
REMARK  status: ('A' for Active; 'I' for Inactive)
REMARK    1  A    between atoms: N_2  and  S_1 
REMARK    2  A    between atoms: C_5  and  S_1 
REMARK    3  A    between atoms: C_3  and  N_4 
ROOT
ATOM      1  N   UNL d   1     -50.820  26.481  33.926  0.00  0.00    -0.226 N 
ATOM      2  N   UNL d   1     -51.836  25.210  33.678  0.00  0.00    -0.134 N 
ATOM      3  C   UNL d   1     -50.514  25.749  33.703  0.00  0.00     0.111 A 
ATOM      4  C   UNL d   1     -51.633  26.577  34.025  0.00  0.00     0.111 A 
ATOM      5  C   UNL d   1     -52.141  25.941  33.901  0.00  0.00     0.118 A 
ATOM      6  C   UNL d   1     -51.023  25.114  33.579  0.00  0.00     0.118 A 
ENDROOT
BRANCH   1   7
ATOM      7  S   UNL d   1     -50.298  27.119  34.050  0.00  0.00     0.271 S 
ATOM      8  O   UNL d   1     -49.956  26.981  33.307  0.00  0.00    -0.200 OA
ATOM      9  O   UNL d   1     -50.648  27.251  34.796  0.00  0.00    -0.200 OA
BRANCH   7  10
ATOM     10  C   UNL d   1     -49.782  27.758  34.181  0.00  0.00     0.104 A 
ATOM     11  C   UNL d   1     -50.029  28.527  33.963  0.00  0.00     0.015 A 
ATOM     12  C   UNL d   1     -49.515  29.174  34.092  0.00  0.00     0.030 A 
ATOM     13  C   UNL d   1     -48.765  29.045  34.435  0.00  0.00     0.140 A 
ATOM     14  C   UNL d   1     -48.524  28.273  34.651  0.00  0.00     0.030 A 
ATOM     15  F   UNL d   1     -48.256  29.685  34.562  0.00  0.00    -0.204 F 
ATOM     16  C   UNL d   1     -49.045  27.633  34.518  0.00  0.00     0.015 A 
ENDBRANCH   7  10
ENDBRANCH   1   7
BRANCH   2  17
ATOM     17  C   UNL d   1     -52.343  24.586  33.557  0.00  0.00     0.735 A 
ATOM     18  N   UNL d   1     -53.155  24.713  33.495  0.00  0.00    -0.059 NA
ATOM     19  C   UNL d   1     -53.664  24.080  33.372  0.00  0.00     0.120 A 
ATOM     20  C   UNL d   1     -53.359  23.318  33.311  0.00  0.00     0.043 A 
ATOM     21  C   UNL d   1     -52.546  23.192  33.373  0.00  0.00     0.120 A 
ATOM     22  N   UNL d   1     -52.046  23.824  33.495  0.00  0.00    -0.059 NA
ENDBRANCH   2  17
TORSDOF 3
ENDMDL
MODEL 2
REMARK VINA RESULT:      61.5      2.222      4.971
REMARK  3 active torsions:
REMARK  status: ('A' for Active; 'I' for Inactive)
REMARK    1  A    between atoms: N_2  and  S_1 
REMARK    2  A    between atoms: C_5  and  S_1 
REMARK    3  A    between atoms: C_3  and  N_4 
ROOT
ATOM      1  N   UNL d   1     -50.749  26.388  33.952  0.00  0.00    -0.226 N 
ATOM      2  N   UNL d   1     -49.702  27.630  34.216  0.00  0.00    -0.134 N 
ATOM      3  C   UNL d   1     -50.404  26.482  34.694  0.00  0.00     0.111 A 
ATOM      4  C   UNL d   1     -50.571  26.915  33.343  0.00  0.00     0.111 A 
ATOM      5  C   UNL d   1     -50.047  27.536  33.476  0.00  0.00     0.118 A 
ATOM      6  C   UNL d   1     -49.880  27.103  34.825  0.00  0.00     0.118 A 
ENDROOT
BRANCH   1   7
ATOM      7  S   UNL d   1     -51.278  25.756  33.826  0.00  0.00     0.271 S 
ATOM      8  O   UNL d   1     -51.836  26.128  34.315  0.00  0.00    -0.200 OA
ATOM      9  O   UNL d   1     -50.713  25.388  33.335  0.00  0.00    -0.200 OA
BRANCH   7  10
ATOM     10  C   UNL d   1     -51.801  25.122  33.695  0.00  0.00     0.104 A 
ATOM     11  C   UNL d   1     -51.490  24.345  33.661  0.00  0.00     0.015 A 
ATOM     12  C   UNL d   1     -52.010  23.703  33.530  0.00  0.00     0.030 A 
ATOM     13  C   UNL d   1     -52.827  23.844  33.435  0.00  0.00     0.140 A 
ATOM     14  C   UNL d   1     -53.131  24.623  33.471  0.00  0.00     0.030 A 
ATOM     15  F   UNL d   1     -53.342  23.209  33.306  0.00  0.00    -0.204 F 
ATOM     16  C   UNL d   1     -52.604  25.259  33.602  0.00  0.00     0.015 A 
ENDBRANCH   7  10
ENDBRANCH   1   7
BRANCH   2  17
ATOM     17  C   UNL d   1     -49.185  28.245  34.341  0.00  0.00     0.735 A 
ATOM     18  N   UNL d   1     -49.316  28.979  33.988  0.00  0.00    -0.059 NA
ATOM     19  C   UNL d   1     -48.792  29.598  34.117  0.00  0.00     0.120 A 
ATOM     20  C   UNL d   1     -48.136  29.482  34.600  0.00  0.00     0.043 A 
ATOM     21  C   UNL d   1     -48.006  28.748  34.953  0.00  0.00     0.120 A 
ATOM     22  N   UNL d   1     -48.530  28.138  34.821  0.00  0.00    -0.059 NA
ENDBRANCH   2  17
TORSDOF 3
ENDMDL
