MODEL 1
REMARK VINA RESULT:      23.7      0.000      0.000
REMARK  2 active torsions:
REMARK  status: ('A' for Active; 'I' for Inactive)
REMARK    1  A    between atoms: C_7  and  C_1 
REMARK    2  A    between atoms: S_13  and  C_5 
ROOT
ATOM      1  C   UNL d   1      46.250 -18.529  43.040  0.00  0.00     0.025 A 
ATOM      2  C   UNL d   1      46.138 -17.735  43.227  0.00  0.00     0.106 A 
ATOM      3  C   UNL d   1      46.419 -18.746  42.261  0.00  0.00     0.092 A 
ATOM      4  N   UNL d   1      46.362 -17.375  41.865  0.00  0.00    -0.218 NA
ATOM      5  C   UNL d   1      46.475 -18.169  41.673  0.00  0.00     0.118 A 
ATOM      6  C   UNL d   1      46.194 -17.158  42.640  0.00  0.00     0.194 A 
ATOM      7  C   UNL d   1      45.968 -17.517  44.007  0.00  0.00     0.104 C 
ATOM      8  C   UNL d   1      46.530 -19.538  42.077  0.00  0.00     0.103 C 
ATOM      9  N   UNL d   1      45.802 -17.303  44.774  0.00  0.00    -0.191 NA
ATOM     10  N   UNL d   1      46.641 -20.322  41.889  0.00  0.00    -0.191 NA
ATOM     11  N   UNL d   1      46.081 -16.363  42.832  0.00  0.00    -0.126 N 
ENDROOT
BRANCH   1  12
ATOM     12  C   UNL d   1      46.194 -19.101  43.623  0.00  0.00     0.012 A 
ATOM     13  C   UNL d   1      45.684 -19.744  43.525  0.00  0.00     0.058 A 
ATOM     14 CL   UNL d   1      45.234 -19.804  42.841  0.00  0.00    -0.082 Cl
ATOM     15  C   UNL d   1      45.627 -20.329  44.120  0.00  0.00     0.011 A 
ATOM     16  C   UNL d   1      46.081 -20.260  44.803  0.00  0.00     0.001 A 
ATOM     17  C   UNL d   1      46.589 -19.624  44.904  0.00  0.00     0.000 A 
ATOM     18  C   UNL d   1      46.646 -19.039  44.308  0.00  0.00     0.001 A 
ENDBRANCH   1  12
BRANCH   5  19
ATOM     19  S   UNL d   1      46.645 -18.392  40.894  0.00  0.00    -0.093 SA
ATOM     20  C   UNL d   1      46.266 -18.020  40.262  0.00  0.00     0.076 C 
ENDBRANCH   5  19
TORSDOF 2
ENDMDL
