MODEL 1
REMARK VINA RESULT:      64.7      0.000      0.000
REMARK  5 active torsions:
REMARK  status: ('A' for Active; 'I' for Inactive)
REMARK    1  A    between atoms: C_15  and  C_4 
REMARK    2  A    between atoms: S_10  and  C_5 
REMARK    3  A    between atoms: C_17  and  S_10 
REMARK    4  A    between atoms: C_11  and  C_14 
REMARK    5  A    between atoms: C_14  and  C_17 
ROOT
ATOM      1  N   UNL d   1      13.671  14.244  -3.977  0.00  0.00    -0.206 N 
ATOM      2  C   UNL d   1      13.842  13.824  -3.287  0.00  0.00     0.166 A 
ATOM      3  N   UNL d   1      13.298  13.045  -4.609  0.00  0.00    -0.163 NA
ATOM      4  C   UNL d   1      13.741  13.021  -3.258  0.00  0.00     0.055 A 
ATOM      5  C   UNL d   1      13.779  15.043  -3.985  0.00  0.00     0.116 A 
ATOM      6  C   UNL d   1      13.465  12.632  -3.930  0.00  0.00     0.104 A 
ATOM      7  N   UNL d   1      14.114  14.215  -2.624  0.00  0.00    -0.227 NA
ATOM      8  C   UNL d   1      14.050  15.449  -3.332  0.00  0.00     0.045 A 
ATOM      9  C   UNL d   1      14.219  15.031  -2.646  0.00  0.00     0.085 A 
ATOM     10  C   UNL d   1      13.366  11.833  -3.898  0.00  0.00     0.023 C 
ATOM     11  C   UNL d   1      14.504  15.439  -1.953  0.00  0.00     0.021 C 
ENDROOT
BRANCH   5  12
ATOM     12  S   UNL d   1      13.603  15.476  -4.697  0.00  0.00    -0.064 SA
BRANCH  12  13
ATOM     13  C   UNL d   1      13.356  16.090  -5.219  0.00  0.00     0.079 C 
BRANCH  13  14
ATOM     14  C   UNL d   1      13.937  16.525  -5.661  0.00  0.00     0.202 C 
ATOM     15  O   UNL d   1      14.640  16.135  -5.920  0.00  0.00    -0.286 OA
BRANCH  14  16
ATOM     16  C   UNL d   1      13.812  17.336  -5.839  0.00  0.00     0.043 A 
ATOM     17  C   UNL d   1      14.406  17.911  -5.655  0.00  0.00     0.049 A 
ATOM     18  C   UNL d   1      14.274  18.732  -5.838  0.00  0.00     0.234 A 
ATOM     19  O   UNL d   1      14.872  19.311  -5.652  0.00  0.00    -0.283 OA
ATOM     20  C   UNL d   1      13.553  18.974  -6.202  0.00  0.00     0.234 A 
ATOM     21  C   UNL d   1      12.958  18.407  -6.389  0.00  0.00     0.045 A 
ATOM     22  O   UNL d   1      13.417  19.786  -6.385  0.00  0.00    -0.283 OA
ATOM     23  C   UNL d   1      13.089  17.586  -6.206  0.00  0.00     0.007 A 
ENDBRANCH  14  16
ENDBRANCH  13  14
ENDBRANCH  12  13
ENDBRANCH   5  12
BRANCH   4  24
ATOM     24  C   UNL d   1      13.908  12.608  -2.578  0.00  0.00     0.004 A 
ATOM     25  C   UNL d   1      14.657  12.601  -2.283  0.00  0.00     0.000 A 
ATOM     26  C   UNL d   1      14.825  12.188  -1.603  0.00  0.00     0.000 A 
ATOM     27  C   UNL d   1      14.243  11.781  -1.220  0.00  0.00     0.000 A 
ATOM     28  C   UNL d   1      13.478  11.792  -1.528  0.00  0.00     0.000 A 
ATOM     29  C   UNL d   1      13.325  12.203  -2.197  0.00  0.00     0.000 A 
ENDBRANCH   4  24
TORSDOF 5
ENDMDL
