MODEL 1
REMARK VINA RESULT:      -9.1      0.000      0.000
REMARK  4 active torsions:
REMARK  status: ('A' for Active; 'I' for Inactive)
REMARK    1  A    between atoms: N_10  and  C_3 
REMARK    2  A    between atoms: C_13  and  C_5 
REMARK    3  A    between atoms: C_12  and  C_9 
REMARK    4  A    between atoms: C_19  and  N_11 
ROOT
ATOM      1  N   UNL d   1      52.001  34.124  53.363  0.00  0.00    -0.196 N 
ATOM      2  C   UNL d   1      52.684  33.815  53.714  0.00  0.00     0.167 A 
ATOM      3  C   UNL d   1      51.522  33.631  52.925  0.00  0.00     0.152 A 
ATOM      4  N   UNL d   1      52.311  35.386  53.901  0.00  0.00    -0.163 NA
ATOM      5  C   UNL d   1      53.170  34.288  54.150  0.00  0.00     0.055 A 
ATOM      6  N   UNL d   1      52.870  33.021  53.617  0.00  0.00    -0.231 NA
ATOM      7  C   UNL d   1      51.708  32.833  52.827  0.00  0.00     0.052 A 
ATOM      8  C   UNL d   1      52.984  35.082  54.246  0.00  0.00     0.104 A 
ATOM      9  C   UNL d   1      52.380  32.529  53.173  0.00  0.00     0.063 A 
ATOM     10  C   UNL d   1      53.465  35.570  54.684  0.00  0.00     0.023 C 
ENDROOT
BRANCH   3  11
ATOM     11  N   UNL d   1      50.817  33.950  52.563  0.00  0.00    -0.286 N 
ATOM     12  C   UNL d   1      50.111  34.123  52.991  0.00  0.00     0.101 A 
ATOM     13  C   UNL d   1      49.442  34.437  52.585  0.00  0.00     0.100 A 
ATOM     14  N   UNL d   1      49.473  34.581  51.746  0.00  0.00    -0.300 N 
ATOM     15  C   UNL d   1      50.183  34.405  51.326  0.00  0.00     0.100 A 
ATOM     16  C   UNL d   1      50.864  34.086  51.733  0.00  0.00     0.101 A 
BRANCH  14  17
ATOM     17  C   UNL d   1      48.808  34.895  51.333  0.00  0.00     0.080 C 
ATOM     18  C   UNL d   1      48.481  34.457  50.687  0.00  0.00     0.021 C 
ENDBRANCH  14  17
ENDBRANCH   3  11
BRANCH   9  19
ATOM     19  C   UNL d   1      52.576  31.706  53.074  0.00  0.00     0.036 C 
ATOM     20  C   UNL d   1      52.765  30.891  52.981  0.00  0.00     0.006 C 
ATOM     21  C   UNL d   1      53.209  31.480  52.550  0.00  0.00     0.006 C 
ATOM     22  C   UNL d   1      52.134  31.121  53.503  0.00  0.00     0.006 C 
ENDBRANCH   9  19
BRANCH   5  23
ATOM     23  C   UNL d   1      53.847  33.982  54.497  0.00  0.00     0.004 A 
ATOM     24  C   UNL d   1      54.556  34.018  54.093  0.00  0.00     0.000 A 
ATOM     25  C   UNL d   1      55.239  33.709  54.444  0.00  0.00     0.000 A 
ATOM     26  C   UNL d   1      55.193  33.373  55.188  0.00  0.00     0.000 A 
ATOM     27  C   UNL d   1      54.474  33.343  55.582  0.00  0.00     0.000 A 
ATOM     28  C   UNL d   1      53.802  33.647  55.237  0.00  0.00     0.000 A 
ENDBRANCH   5  23
TORSDOF 4
ENDMDL
MODEL 2
REMARK VINA RESULT:      -7.6      0.904      2.435
REMARK  4 active torsions:
REMARK  status: ('A' for Active; 'I' for Inactive)
REMARK    1  A    between atoms: N_10  and  C_3 
REMARK    2  A    between atoms: C_13  and  C_5 
REMARK    3  A    between atoms: C_12  and  C_9 
REMARK    4  A    between atoms: C_19  and  N_11 
ROOT
ATOM      1  N   UNL d   1      51.786  33.487  52.892  0.00  0.00    -0.196 N 
ATOM      2  C   UNL d   1      52.485  33.394  53.325  0.00  0.00     0.167 A 
ATOM      3  C   UNL d   1      51.426  34.218  52.870  0.00  0.00     0.152 A 
ATOM      4  N   UNL d   1      51.843  32.128  52.532  0.00  0.00    -0.163 NA
ATOM      5  C   UNL d   1      52.854  32.678  53.358  0.00  0.00     0.055 A 
ATOM      6  N   UNL d   1      52.807  34.035  53.724  0.00  0.00    -0.231 NA
ATOM      7  C   UNL d   1      51.749  34.863  53.271  0.00  0.00     0.052 A 
ATOM      8  C   UNL d   1      52.532  32.037  52.958  0.00  0.00     0.104 A 
ATOM      9  C   UNL d   1      52.437  34.771  53.697  0.00  0.00     0.063 A 
ATOM     10  C   UNL d   1      52.894  31.309  52.983  0.00  0.00     0.023 C 
ENDROOT
BRANCH   3  11
ATOM     11  N   UNL d   1      50.705  34.314  52.423  0.00  0.00    -0.286 N 
ATOM     12  C   UNL d   1      49.944  34.391  52.778  0.00  0.00     0.101 A 
ATOM     13  C   UNL d   1      49.263  34.483  52.290  0.00  0.00     0.100 A 
ATOM     14  N   UNL d   1      49.335  34.499  51.442  0.00  0.00    -0.300 N 
ATOM     15  C   UNL d   1      50.101  34.421  51.096  0.00  0.00     0.100 A 
ATOM     16  C   UNL d   1      50.795  34.327  51.586  0.00  0.00     0.101 A 
BRANCH  14  17
ATOM     17  C   UNL d   1      48.658  34.591  50.948  0.00  0.00     0.080 C 
ATOM     18  C   UNL d   1      48.013  35.067  51.219  0.00  0.00     0.021 C 
ENDBRANCH  14  17
ENDBRANCH   3  11
BRANCH   9  19
ATOM     19  C   UNL d   1      52.774  35.435  54.113  0.00  0.00     0.036 C 
ATOM     20  C   UNL d   1      53.109  36.091  54.518  0.00  0.00     0.006 C 
ATOM     21  C   UNL d   1      52.502  35.626  54.898  0.00  0.00     0.006 C 
ATOM     22  C   UNL d   1      53.378  35.897  53.736  0.00  0.00     0.006 C 
ENDBRANCH   9  19
BRANCH   5  23
ATOM     23  C   UNL d   1      53.547  32.586  53.787  0.00  0.00     0.004 A 
ATOM     24  C   UNL d   1      54.266  32.707  53.418  0.00  0.00     0.000 A 
ATOM     25  C   UNL d   1      54.965  32.614  53.851  0.00  0.00     0.000 A 
ATOM     26  C   UNL d   1      54.925  32.403  54.640  0.00  0.00     0.000 A 
ATOM     27  C   UNL d   1      54.196  32.286  54.998  0.00  0.00     0.000 A 
ATOM     28  C   UNL d   1      53.508  32.377  54.571  0.00  0.00     0.000 A 
ENDBRANCH   5  23
TORSDOF 4
ENDMDL
MODEL 3
REMARK VINA RESULT:      -6.7      1.348      3.898
REMARK  4 active torsions:
REMARK  status: ('A' for Active; 'I' for Inactive)
REMARK    1  A    between atoms: N_10  and  C_3 
REMARK    2  A    between atoms: C_13  and  C_5 
REMARK    3  A    between atoms: C_12  and  C_9 
REMARK    4  A    between atoms: C_19  and  N_11 
ROOT
ATOM      1  N   UNL d   1      53.333  32.567  54.086  0.00  0.00    -0.196 N 
ATOM      2  C   UNL d   1      53.179  33.381  54.098  0.00  0.00     0.167 A 
ATOM      3  C   UNL d   1      52.826  32.074  53.681  0.00  0.00     0.152 A 
ATOM      4  N   UNL d   1      54.475  32.785  54.877  0.00  0.00    -0.163 NA
ATOM      5  C   UNL d   1      53.669  33.884  54.493  0.00  0.00     0.055 A 
ATOM      6  N   UNL d   1      52.524  33.679  53.703  0.00  0.00    -0.231 NA
ATOM      7  C   UNL d   1      52.167  32.372  53.284  0.00  0.00     0.052 A 
ATOM      8  C   UNL d   1      54.324  33.586  54.888  0.00  0.00     0.104 A 
ATOM      9  C   UNL d   1      52.017  33.173  53.295  0.00  0.00     0.063 A 
ATOM     10  C   UNL d   1      54.826  34.083  55.291  0.00  0.00     0.023 C 
ENDROOT
BRANCH   3  11
ATOM     11  N   UNL d   1      52.985  31.235  53.669  0.00  0.00    -0.286 N 
ATOM     12  C   UNL d   1      53.250  30.820  52.984  0.00  0.00     0.101 A 
ATOM     13  C   UNL d   1      53.392  29.990  53.026  0.00  0.00     0.100 A 
ATOM     14  N   UNL d   1      53.269  29.566  53.754  0.00  0.00    -0.300 N 
ATOM     15  C   UNL d   1      53.003  29.989  54.434  0.00  0.00     0.100 A 
ATOM     16  C   UNL d   1      52.858  30.831  54.397  0.00  0.00     0.101 A 
BRANCH  14  17
ATOM     17  C   UNL d   1      53.408  28.736  53.805  0.00  0.00     0.080 C 
ATOM     18  C   UNL d   1      53.576  28.392  54.560  0.00  0.00     0.021 C 
ENDBRANCH  14  17
ENDBRANCH   3  11
BRANCH   9  19
ATOM     19  C   UNL d   1      51.337  33.486  52.887  0.00  0.00     0.036 C 
ATOM     20  C   UNL d   1      50.663  33.793  52.488  0.00  0.00     0.006 C 
ATOM     21  C   UNL d   1      51.423  33.800  52.099  0.00  0.00     0.006 C 
ATOM     22  C   UNL d   1      50.582  33.479  53.274  0.00  0.00     0.006 C 
ENDBRANCH   9  19
BRANCH   5  23
ATOM     23  C   UNL d   1      53.517  34.690  54.505  0.00  0.00     0.004 A 
ATOM     24  C   UNL d   1      53.070  35.005  55.112  0.00  0.00     0.000 A 
ATOM     25  C   UNL d   1      52.917  35.819  55.124  0.00  0.00     0.000 A 
ATOM     26  C   UNL d   1      53.215  36.292  54.527  0.00  0.00     0.000 A 
ATOM     27  C   UNL d   1      53.661  35.963  53.924  0.00  0.00     0.000 A 
ATOM     28  C   UNL d   1      53.812  35.162  53.913  0.00  0.00     0.000 A 
ENDBRANCH   5  23
TORSDOF 4
ENDMDL
