MODEL 1
REMARK VINA RESULT:      -2.8      0.000      0.000
REMARK  3 active torsions:
REMARK  status: ('A' for Active; 'I' for Inactive)
REMARK    1  A    between atoms: S_3  and  N_1 
REMARK    2  A    between atoms: C_5  and  C_4 
REMARK    3  A    between atoms: C_11  and  C_6 
ROOT
ATOM      1  N   UNL d   1     -41.718-121.730 -51.511  0.00  0.00    -0.155 N 
ATOM      2  N   UNL d   1     -41.954-121.759 -50.731  0.00  0.00    -0.153 NA
ATOM      3  C   UNL d   1     -41.931-122.426 -51.868  0.00  0.00     0.098 A 
ATOM      4  C   UNL d   1     -42.315-122.481 -50.610  0.00  0.00     0.126 A 
ATOM      5  C   UNL d   1     -42.305-122.899 -51.307  0.00  0.00     0.043 A 
ENDROOT
BRANCH   3   6
ATOM      6  C   UNL d   1     -41.798-122.629 -52.656  0.00  0.00     0.047 A 
ATOM      7  C   UNL d   1     -41.393-123.326 -52.840  0.00  0.00     0.140 A 
ATOM      8  N   UNL d   1     -41.261-123.529 -53.630  0.00  0.00    -0.234 NA
ATOM      9 CL   UNL d   1     -41.123-123.817 -52.235  0.00  0.00    -0.061 Cl
ATOM     10  C   UNL d   1     -41.532-123.038 -54.236  0.00  0.00     0.082 A 
ATOM     11  C   UNL d   1     -41.936-122.341 -54.052  0.00  0.00     0.018 A 
ATOM     12  C   UNL d   1     -41.399-123.241 -55.023  0.00  0.00     0.019 A 
ATOM     13  C   UNL d   1     -42.069-122.138 -53.263  0.00  0.00     0.005 A 
ATOM     14  C   UNL d   1     -42.207-121.850 -54.656  0.00  0.00     0.002 A 
ATOM     15  C   UNL d   1     -42.072-122.060 -55.415  0.00  0.00     0.000 A 
ATOM     16  C   UNL d   1     -41.667-122.756 -55.599  0.00  0.00     0.002 A 
ATOM     17  C   UNL d   1     -42.342-121.569 -56.021  0.00  0.00     0.000 C 
ENDBRANCH   3   6
BRANCH   1  18
ATOM     18  S   UNL d   1     -41.402-120.980 -51.431  0.00  0.00     0.266 S 
ATOM     19  O   UNL d   1     -41.124-120.709 -50.712  0.00  0.00    -0.203 OA
ATOM     20  O   UNL d   1     -41.448-120.646 -52.185  0.00  0.00    -0.203 OA
ATOM     21  C   UNL d   1     -41.128-120.212 -51.560  0.00  0.00     0.165 C 
ENDBRANCH   1  18
BRANCH   4  22
ATOM     22  C   UNL d   1     -42.633-122.741 -49.907  0.00  0.00     0.119 A 
ATOM     23  O   UNL d   1     -43.416-122.758 -49.692  0.00  0.00    -0.304 OA
ATOM     24  C   UNL d   1     -43.486-123.062 -48.939  0.00  0.00     0.123 A 
ATOM     25  C   UNL d   1     -42.738-123.241 -48.669  0.00  0.00     0.029 A 
ATOM     26  C   UNL d   1     -42.197-123.049 -49.256  0.00  0.00     0.028 A 
ENDBRANCH   4  22
TORSDOF 3
ENDMDL
MODEL 2
REMARK VINA RESULT:      -1.7      1.457      2.020
REMARK  3 active torsions:
REMARK  status: ('A' for Active; 'I' for Inactive)
REMARK    1  A    between atoms: S_3  and  N_1 
REMARK    2  A    between atoms: C_5  and  C_4 
REMARK    3  A    between atoms: C_11  and  C_6 
ROOT
ATOM      1  N   UNL d   1     -42.821-122.473 -50.543  0.00  0.00    -0.155 N 
ATOM      2  N   UNL d   1     -42.811-122.664 -49.751  0.00  0.00    -0.153 NA
ATOM      3  C   UNL d   1     -42.081-122.603 -50.847  0.00  0.00     0.098 A 
ATOM      4  C   UNL d   1     -42.056-122.915 -49.568  0.00  0.00     0.126 A 
ATOM      5  C   UNL d   1     -41.599-122.880 -50.239  0.00  0.00     0.043 A 
ENDROOT
BRANCH   3   6
ATOM      6  C   UNL d   1     -41.847-122.481 -51.628  0.00  0.00     0.047 A 
ATOM      7  C   UNL d   1     -41.371-121.833 -51.819  0.00  0.00     0.140 A 
ATOM      8  N   UNL d   1     -41.137-121.712 -52.603  0.00  0.00    -0.234 NA
ATOM      9 CL   UNL d   1     -41.131-121.309 -51.230  0.00  0.00    -0.061 Cl
ATOM     10  C   UNL d   1     -41.377-122.236 -53.193  0.00  0.00     0.082 A 
ATOM     11  C   UNL d   1     -41.852-122.884 -53.002  0.00  0.00     0.018 A 
ATOM     12  C   UNL d   1     -41.142-122.114 -53.974  0.00  0.00     0.019 A 
ATOM     13  C   UNL d   1     -42.086-123.006 -52.220  0.00  0.00     0.005 A 
ATOM     14  C   UNL d   1     -42.092-123.408 -53.591  0.00  0.00     0.002 A 
ATOM     15  C   UNL d   1     -41.857-123.277 -54.344  0.00  0.00     0.000 A 
ATOM     16  C   UNL d   1     -41.382-122.630 -54.536  0.00  0.00     0.002 A 
ATOM     17  C   UNL d   1     -42.097-123.801 -54.935  0.00  0.00     0.000 C 
ENDBRANCH   3   6
BRANCH   1  18
ATOM     18  S   UNL d   1     -43.611-122.261 -50.524  0.00  0.00     0.266 S 
ATOM     19  O   UNL d   1     -44.184-122.778 -50.256  0.00  0.00    -0.203 OA
ATOM     20  O   UNL d   1     -43.633-121.488 -50.816  0.00  0.00    -0.203 OA
ATOM     21  C   UNL d   1     -44.331-121.863 -50.586  0.00  0.00     0.165 C 
ENDBRANCH   1  18
BRANCH   4  22
ATOM     22  C   UNL d   1     -41.801-123.160 -48.834  0.00  0.00     0.119 A 
ATOM     23  O   UNL d   1     -42.052-122.897 -48.108  0.00  0.00    -0.304 OA
ATOM     24  C   UNL d   1     -41.649-123.294 -47.521  0.00  0.00     0.123 A 
ATOM     25  C   UNL d   1     -41.134-123.816 -47.876  0.00  0.00     0.029 A 
ATOM     26  C   UNL d   1     -41.214-123.747 -48.690  0.00  0.00     0.028 A 
ENDBRANCH   4  22
TORSDOF 3
ENDMDL
MODEL 3
REMARK VINA RESULT:      -0.3      1.024      4.248
REMARK  3 active torsions:
REMARK  status: ('A' for Active; 'I' for Inactive)
REMARK    1  A    between atoms: S_3  and  N_1 
REMARK    2  A    between atoms: C_5  and  C_4 
REMARK    3  A    between atoms: C_11  and  C_6 
ROOT
ATOM      1  N   UNL d   1     -41.606-121.489 -52.259  0.00  0.00    -0.155 N 
ATOM      2  N   UNL d   1     -41.648-121.332 -53.058  0.00  0.00    -0.153 NA
ATOM      3  C   UNL d   1     -41.822-122.261 -52.139  0.00  0.00     0.098 A 
ATOM      4  C   UNL d   1     -41.891-122.016 -53.431  0.00  0.00     0.126 A 
ATOM      5  C   UNL d   1     -42.001-122.594 -52.871  0.00  0.00     0.043 A 
ENDROOT
BRANCH   3   6
ATOM      6  C   UNL d   1     -41.857-122.650 -51.413  0.00  0.00     0.047 A 
ATOM      7  C   UNL d   1     -41.508-123.393 -51.325  0.00  0.00     0.140 A 
ATOM      8  N   UNL d   1     -41.544-123.782 -50.596  0.00  0.00    -0.234 NA
ATOM      9 CL   UNL d   1     -41.125-123.746 -51.964  0.00  0.00    -0.061 Cl
ATOM     10  C   UNL d   1     -41.928-123.429 -49.957  0.00  0.00     0.082 A 
ATOM     11  C   UNL d   1     -42.277-122.685 -50.044  0.00  0.00     0.018 A 
ATOM     12  C   UNL d   1     -41.964-123.817 -49.231  0.00  0.00     0.019 A 
ATOM     13  C   UNL d   1     -42.242-122.297 -50.772  0.00  0.00     0.005 A 
ATOM     14  C   UNL d   1     -42.661-122.332 -49.406  0.00  0.00     0.002 A 
ATOM     15  C   UNL d   1     -42.688-122.720 -48.707  0.00  0.00     0.000 A 
ATOM     16  C   UNL d   1     -42.339-123.464 -48.620  0.00  0.00     0.002 A 
ATOM     17  C   UNL d   1     -43.072-122.367 -48.068  0.00  0.00     0.000 C 
ENDBRANCH   3   6
BRANCH   1  18
ATOM     18  S   UNL d   1     -41.362-120.730 -52.080  0.00  0.00     0.266 S 
ATOM     19  O   UNL d   1     -41.236-120.173 -52.666  0.00  0.00    -0.203 OA
ATOM     20  O   UNL d   1     -41.296-120.714 -51.257  0.00  0.00    -0.203 OA
ATOM     21  C   UNL d   1     -41.123-120.038 -51.698  0.00  0.00     0.165 C 
ENDBRANCH   1  18
BRANCH   4  22
ATOM     22  C   UNL d   1     -42.006-122.106 -54.232  0.00  0.00     0.119 A 
ATOM     23  O   UNL d   1     -42.681-121.955 -54.657  0.00  0.00    -0.304 OA
ATOM     24  C   UNL d   1     -42.551-122.122 -55.444  0.00  0.00     0.123 A 
ATOM     25  C   UNL d   1     -41.783-122.382 -55.524  0.00  0.00     0.029 A 
ATOM     26  C   UNL d   1     -41.430-122.379 -54.783  0.00  0.00     0.028 A 
ENDBRANCH   4  22
TORSDOF 3
ENDMDL
