MODEL 1
REMARK VINA RESULT:      -4.5      0.000      0.000
REMARK  3 active torsions:
REMARK  status: ('A' for Active; 'I' for Inactive)
REMARK    1  A    between atoms: N_3  and  C_1 
REMARK    2  A    between atoms: C_5  and  C_2 
REMARK       I    between atoms: C_4  and  N_3 
REMARK    3  A    between atoms: C_10  and  C_4 
ROOT
ATOM      1  N   UNL d   1     -41.616-122.618 -53.040  0.00  0.00    -0.201 NA
ATOM      2  C   UNL d   1     -41.410-123.049 -52.366  0.00  0.00     0.280 C 
ATOM      3  O   UNL d   1     -41.123-123.817 -52.437  0.00  0.00    -0.265 OA
ENDROOT
BRANCH   1   4
ATOM      4  C   UNL d   1     -41.532-122.960 -53.785  0.00  0.00     0.119 A 
ATOM      5  C   UNL d   1     -41.820-122.651 -54.497  0.00  0.00     0.084 A 
ATOM      6  C   UNL d   1     -41.610-123.177 -55.109  0.00  0.00     0.014 A 
ATOM      7  C   UNL d   1     -41.194-123.805 -54.768  0.00  0.00     0.037 A 
ATOM      8  S   UNL d   1     -41.149-123.667 -53.955  0.00  0.00    -0.067 SA
BRANCH   5   9
ATOM      9  C   UNL d   1     -42.242-121.949 -54.592  0.00  0.00     0.299 C 
ATOM     10  O   UNL d   1     -43.063-121.943 -54.467  0.00  0.00    -0.264 OA
ATOM     11  N   UNL d   1     -41.851-121.253 -54.811  0.00  0.00    -0.102 N 
ENDBRANCH   5   9
ENDBRANCH   1   4
BRANCH   2  12
ATOM     12  C   UNL d   1     -41.496-122.704 -51.625  0.00  0.00     0.058 A 
ATOM     13  C   UNL d   1     -41.947-123.083 -51.050  0.00  0.00     0.005 A 
ATOM     14  C   UNL d   1     -42.029-122.729 -50.304  0.00  0.00     0.000 A 
ATOM     15  C   UNL d   1     -41.665-122.010 -50.141  0.00  0.00     0.000 A 
ATOM     16  C   UNL d   1     -41.215-121.639 -50.724  0.00  0.00     0.000 A 
ATOM     17  C   UNL d   1     -41.129-121.985 -51.470  0.00  0.00     0.005 A 
ENDBRANCH   2  12
TORSDOF 3
ENDMDL
MODEL 2
REMARK VINA RESULT:      -3.4      1.288      1.562
REMARK  3 active torsions:
REMARK  status: ('A' for Active; 'I' for Inactive)
REMARK    1  A    between atoms: N_3  and  C_1 
REMARK    2  A    between atoms: C_5  and  C_2 
REMARK       I    between atoms: C_4  and  N_3 
REMARK    3  A    between atoms: C_10  and  C_4 
ROOT
ATOM      1  N   UNL d   1     -41.857-122.461 -53.265  0.00  0.00    -0.201 NA
ATOM      2  C   UNL d   1     -41.511-122.027 -52.653  0.00  0.00     0.280 C 
ATOM      3  O   UNL d   1     -41.188-121.285 -52.802  0.00  0.00    -0.265 OA
ENDROOT
BRANCH   1   4
ATOM      4  C   UNL d   1     -41.877-122.147 -54.027  0.00  0.00     0.119 A 
ATOM      5  C   UNL d   1     -41.916-122.581 -54.731  0.00  0.00     0.084 A 
ATOM      6  C   UNL d   1     -41.925-122.041 -55.366  0.00  0.00     0.014 A 
ATOM      7  C   UNL d   1     -41.891-121.279 -55.047  0.00  0.00     0.037 A 
ATOM      8  S   UNL d   1     -41.861-121.349 -54.225  0.00  0.00    -0.067 SA
BRANCH   5   9
ATOM      9  C   UNL d   1     -41.943-123.403 -54.800  0.00  0.00     0.299 C 
ATOM     10  O   UNL d   1     -42.602-123.817 -54.512  0.00  0.00    -0.264 OA
ATOM     11  N   UNL d   1     -41.317-123.813 -55.153  0.00  0.00    -0.102 N 
ENDBRANCH   5   9
ENDBRANCH   1   4
BRANCH   2  12
ATOM     12  C   UNL d   1     -41.493-122.344 -51.895  0.00  0.00     0.058 A 
ATOM     13  C   UNL d   1     -41.137-123.076 -51.768  0.00  0.00     0.005 A 
ATOM     14  C   UNL d   1     -41.123-123.390 -51.001  0.00  0.00     0.000 A 
ATOM     15  C   UNL d   1     -41.459-122.976 -50.374  0.00  0.00     0.000 A 
ATOM     16  C   UNL d   1     -41.813-122.244 -50.512  0.00  0.00     0.000 A 
ATOM     17  C   UNL d   1     -41.831-121.924 -51.274  0.00  0.00     0.005 A 
ENDBRANCH   2  12
TORSDOF 3
ENDMDL
MODEL 3
REMARK VINA RESULT:      -2.4      1.955      2.741
REMARK  3 active torsions:
REMARK  status: ('A' for Active; 'I' for Inactive)
REMARK    1  A    between atoms: N_3  and  C_1 
REMARK    2  A    between atoms: C_5  and  C_2 
REMARK       I    between atoms: C_4  and  N_3 
REMARK    3  A    between atoms: C_10  and  C_4 
ROOT
ATOM      1  N   UNL d   1     -42.027-122.777 -50.607  0.00  0.00    -0.201 NA
ATOM      2  C   UNL d   1     -41.748-123.295 -50.028  0.00  0.00     0.280 C 
ATOM      3  O   UNL d   1     -41.135-123.817 -50.199  0.00  0.00    -0.265 OA
ENDROOT
BRANCH   1   4
ATOM      4  C   UNL d   1     -41.688-122.784 -51.359  0.00  0.00     0.119 A 
ATOM      5  C   UNL d   1     -41.554-122.122 -51.838  0.00  0.00     0.084 A 
ATOM      6  C   UNL d   1     -41.202-122.385 -52.547  0.00  0.00     0.014 A 
ATOM      7  C   UNL d   1     -41.123-123.206 -52.497  0.00  0.00     0.037 A 
ATOM      8  S   UNL d   1     -41.422-123.446 -51.766  0.00  0.00    -0.067 SA
BRANCH   5   9
ATOM      9  C   UNL d   1     -41.735-121.338 -51.654  0.00  0.00     0.299 C 
ATOM     10  O   UNL d   1     -42.529-121.097 -51.622  0.00  0.00    -0.264 OA
ATOM     11  N   UNL d   1     -41.130-120.795 -51.503  0.00  0.00    -0.102 N 
ENDBRANCH   5   9
ENDBRANCH   1   4
BRANCH   2  12
ATOM     12  C   UNL d   1     -42.089-123.285 -49.280  0.00  0.00     0.058 A 
ATOM     13  C   UNL d   1     -41.640-123.046 -48.632  0.00  0.00     0.005 A 
ATOM     14  C   UNL d   1     -41.990-123.038 -47.880  0.00  0.00     0.000 A 
ATOM     15  C   UNL d   1     -42.775-123.266 -47.783  0.00  0.00     0.000 A 
ATOM     16  C   UNL d   1     -43.215-123.503 -48.438  0.00  0.00     0.000 A 
ATOM     17  C   UNL d   1     -42.873-123.514 -49.191  0.00  0.00     0.005 A 
ENDBRANCH   2  12
TORSDOF 3
ENDMDL
