MODEL 1
REMARK VINA RESULT:      -7.7      0.000      0.000
REMARK  3 active torsions:
REMARK  status: ('A' for Active; 'I' for Inactive)
REMARK    1  A    between atoms: C_6  and  C_1 
REMARK    2  A    between atoms: C_7  and  N_3 
REMARK    3  A    between atoms: C_10  and  C_7 
ROOT
ATOM      1  C   UNL d   1     -48.430  12.824  23.005  0.00  0.00     0.148 A 
ATOM      2  N   UNL d   1     -48.757  12.083  23.195  0.00  0.00    -0.227 NA
ATOM      3  N   UNL d   1     -49.052  13.362  23.058  0.00  0.00    -0.289 N 
ATOM      4  C   UNL d   1     -49.728  12.980  23.270  0.00  0.00     0.083 A 
ATOM      5  C   UNL d   1     -49.543  12.177  23.356  0.00  0.00     0.099 A 
ATOM      6  C   UNL d   1     -50.500  13.237  23.402  0.00  0.00     0.019 A 
ATOM      7  C   UNL d   1     -50.137  11.666  23.570  0.00  0.00     0.021 A 
ATOM      8  C   UNL d   1     -51.064  12.707  23.612  0.00  0.00     0.002 A 
ATOM      9  C   UNL d   1     -50.879  11.905  23.698  0.00  0.00     0.002 A 
ENDROOT
BRANCH   1  10
ATOM     10  C   UNL d   1     -47.643  12.984  22.803  0.00  0.00     0.035 A 
ATOM     11  C   UNL d   1     -47.410  12.981  22.014  0.00  0.00     0.005 A 
ATOM     12  C   UNL d   1     -46.623  13.141  21.812  0.00  0.00     0.021 A 
ATOM     13  C   UNL d   1     -46.070  13.304  22.401  0.00  0.00     0.103 A 
ATOM     14  C   UNL d   1     -46.303  13.307  23.194  0.00  0.00     0.021 A 
ATOM     15  N   UNL d   1     -45.284  13.464  22.200  0.00  0.00    -0.148 N 
ATOM     16  C   UNL d   1     -47.090  13.147  23.396  0.00  0.00     0.005 A 
ENDBRANCH   1  10
BRANCH   3  17
ATOM     17  C   UNL d   1     -48.843  14.132  22.889  0.00  0.00     0.082 C 
BRANCH  17  18
ATOM     18  C   UNL d   1     -49.381  14.744  22.868  0.00  0.00     0.019 C 
ATOM     19  C   UNL d   1     -49.168  15.523  22.729  0.00  0.00     0.002 C 
ENDBRANCH  17  18
ENDBRANCH   3  17
TORSDOF 3
ENDMDL
MODEL 2
REMARK VINA RESULT:      -7.6      0.838      2.023
REMARK  3 active torsions:
REMARK  status: ('A' for Active; 'I' for Inactive)
REMARK    1  A    between atoms: C_6  and  C_1 
REMARK    2  A    between atoms: C_7  and  N_3 
REMARK    3  A    between atoms: C_10  and  C_7 
ROOT
ATOM      1  C   UNL d   1     -48.443  14.136  22.946  0.00  0.00     0.148 A 
ATOM      2  N   UNL d   1     -48.711  14.922  22.898  0.00  0.00    -0.227 NA
ATOM      3  N   UNL d   1     -49.085  13.698  23.219  0.00  0.00    -0.289 N 
ATOM      4  C   UNL d   1     -49.718  14.181  23.334  0.00  0.00     0.083 A 
ATOM      5  C   UNL d   1     -49.484  14.950  23.133  0.00  0.00     0.099 A 
ATOM      6  C   UNL d   1     -50.488  14.044  23.596  0.00  0.00     0.019 A 
ATOM      7  C   UNL d   1     -50.029  15.548  23.202  0.00  0.00     0.021 A 
ATOM      8  C   UNL d   1     -51.002  14.657  23.653  0.00  0.00     0.002 A 
ATOM      9  C   UNL d   1     -50.768  15.425  23.452  0.00  0.00     0.002 A 
ENDROOT
BRANCH   1  10
ATOM     10  C   UNL d   1     -47.687  13.856  22.758  0.00  0.00     0.035 A 
ATOM     11  C   UNL d   1     -47.535  13.546  22.011  0.00  0.00     0.005 A 
ATOM     12  C   UNL d   1     -46.779  13.266  21.823  0.00  0.00     0.021 A 
ATOM     13  C   UNL d   1     -46.175  13.296  22.383  0.00  0.00     0.103 A 
ATOM     14  C   UNL d   1     -46.327  13.607  23.134  0.00  0.00     0.021 A 
ATOM     15  N   UNL d   1     -45.420  13.016  22.195  0.00  0.00    -0.148 N 
ATOM     16  C   UNL d   1     -47.083  13.888  23.322  0.00  0.00     0.005 A 
ENDBRANCH   1  10
BRANCH   3  17
ATOM     17  C   UNL d   1     -48.933  12.901  23.305  0.00  0.00     0.082 C 
BRANCH  17  18
ATOM     18  C   UNL d   1     -49.489  12.370  23.575  0.00  0.00     0.019 C 
ATOM     19  C   UNL d   1     -49.327  11.575  23.698  0.00  0.00     0.002 C 
ENDBRANCH  17  18
ENDBRANCH   3  17
TORSDOF 3
ENDMDL
MODEL 3
REMARK VINA RESULT:      -7.3      1.409      3.215
REMARK  3 active torsions:
REMARK  status: ('A' for Active; 'I' for Inactive)
REMARK    1  A    between atoms: C_6  and  C_1 
REMARK    2  A    between atoms: C_7  and  N_3 
REMARK    3  A    between atoms: C_10  and  C_7 
ROOT
ATOM      1  C   UNL d   1     -48.559  12.851  22.935  0.00  0.00     0.148 A 
ATOM      2  N   UNL d   1     -48.608  12.051  23.156  0.00  0.00    -0.227 NA
ATOM      3  N   UNL d   1     -47.760  13.047  22.981  0.00  0.00    -0.289 N 
ATOM      4  C   UNL d   1     -47.333  12.406  23.216  0.00  0.00     0.083 A 
ATOM      5  C   UNL d   1     -47.865  11.781  23.326  0.00  0.00     0.099 A 
ATOM      6  C   UNL d   1     -46.529  12.287  23.351  0.00  0.00     0.019 A 
ATOM      7  C   UNL d   1     -47.570  11.063  23.566  0.00  0.00     0.021 A 
ATOM      8  C   UNL d   1     -46.269  11.566  23.588  0.00  0.00     0.002 A 
ATOM      9  C   UNL d   1     -46.801  10.941  23.698  0.00  0.00     0.002 A 
ENDROOT
BRANCH   1  10
ATOM     10  C   UNL d   1     -49.186  13.346  22.716  0.00  0.00     0.035 A 
ATOM     11  C   UNL d   1     -49.559  13.814  23.281  0.00  0.00     0.005 A 
ATOM     12  C   UNL d   1     -50.186  14.309  23.062  0.00  0.00     0.021 A 
ATOM     13  C   UNL d   1     -50.438  14.335  22.278  0.00  0.00     0.103 A 
ATOM     14  C   UNL d   1     -50.064  13.865  21.710  0.00  0.00     0.021 A 
ATOM     15  N   UNL d   1     -51.064  14.829  22.060  0.00  0.00    -0.148 N 
ATOM     16  C   UNL d   1     -49.437  13.370  21.929  0.00  0.00     0.005 A 
ENDBRANCH   1  10
BRANCH   3  17
ATOM     17  C   UNL d   1     -47.594  13.821  22.783  0.00  0.00     0.082 C 
BRANCH  17  18
ATOM     18  C   UNL d   1     -46.871  14.170  22.924  0.00  0.00     0.019 C 
ATOM     19  C   UNL d   1     -46.642  14.881  22.586  0.00  0.00     0.002 C 
ENDBRANCH  17  18
ENDBRANCH   3  17
TORSDOF 3
ENDMDL
MODEL 4
REMARK VINA RESULT:      -5.9      8.308      9.880
REMARK  3 active torsions:
REMARK  status: ('A' for Active; 'I' for Inactive)
REMARK    1  A    between atoms: C_6  and  C_1 
REMARK    2  A    between atoms: C_7  and  N_3 
REMARK    3  A    between atoms: C_10  and  C_7 
ROOT
ATOM      1  C   UNL d   1     -39.504  14.520  19.499  0.00  0.00     0.148 A 
ATOM      2  N   UNL d   1     -38.842  14.026  19.600  0.00  0.00    -0.227 NA
ATOM      3  N   UNL d   1     -39.787  14.672  20.258  0.00  0.00    -0.289 N 
ATOM      4  C   UNL d   1     -39.329  14.295  20.802  0.00  0.00     0.083 A 
ATOM      5  C   UNL d   1     -38.736  13.890  20.390  0.00  0.00     0.099 A 
ATOM      6  C   UNL d   1     -39.356  14.253  21.625  0.00  0.00     0.019 A 
ATOM      7  C   UNL d   1     -38.195  13.461  20.817  0.00  0.00     0.021 A 
ATOM      8  C   UNL d   1     -38.806  13.820  22.018  0.00  0.00     0.002 A 
ATOM      9  C   UNL d   1     -38.214  13.416  21.606  0.00  0.00     0.002 A 
ENDROOT
BRANCH   1  10
ATOM     10  C   UNL d   1     -39.812  14.799  18.783  0.00  0.00     0.035 A 
ATOM     11  C   UNL d   1     -40.386  14.366  18.383  0.00  0.00     0.005 A 
ATOM     12  C   UNL d   1     -40.694  14.645  17.667  0.00  0.00     0.021 A 
ATOM     13  C   UNL d   1     -40.427  15.358  17.352  0.00  0.00     0.103 A 
ATOM     14  C   UNL d   1     -39.850  15.794  17.753  0.00  0.00     0.021 A 
ATOM     15  N   UNL d   1     -40.735  15.637  16.637  0.00  0.00    -0.148 N 
ATOM     16  C   UNL d   1     -39.543  15.515  18.469  0.00  0.00     0.005 A 
ENDBRANCH   1  10
BRANCH   3  17
ATOM     17  C   UNL d   1     -40.445  15.153  20.279  0.00  0.00     0.082 C 
BRANCH  17  18
ATOM     18  C   UNL d   1     -40.758  15.448  20.972  0.00  0.00     0.019 C 
ATOM     19  C   UNL d   1     -41.428  15.919  20.996  0.00  0.00     0.002 C 
ENDBRANCH  17  18
ENDBRANCH   3  17
TORSDOF 3
ENDMDL
MODEL 5
REMARK VINA RESULT:      -5.8      8.765     10.156
REMARK  3 active torsions:
REMARK  status: ('A' for Active; 'I' for Inactive)
REMARK    1  A    between atoms: C_6  and  C_1 
REMARK    2  A    between atoms: C_7  and  N_3 
REMARK    3  A    between atoms: C_10  and  C_7 
ROOT
ATOM      1  C   UNL d   1     -39.511  14.597  18.702  0.00  0.00     0.148 A 
ATOM      2  N   UNL d   1     -39.326  14.514  19.509  0.00  0.00    -0.227 NA
ATOM      3  N   UNL d   1     -40.162  15.101  18.673  0.00  0.00    -0.289 N 
ATOM      4  C   UNL d   1     -40.373  15.321  19.418  0.00  0.00     0.083 A 
ATOM      5  C   UNL d   1     -39.849  14.953  19.942  0.00  0.00     0.099 A 
ATOM      6  C   UNL d   1     -40.971  15.807  19.710  0.00  0.00     0.019 A 
ATOM      7  C   UNL d   1     -39.944  15.087  20.738  0.00  0.00     0.021 A 
ATOM      8  C   UNL d   1     -41.038  15.920  20.502  0.00  0.00     0.002 A 
ATOM      9  C   UNL d   1     -40.514  15.552  21.027  0.00  0.00     0.002 A 
ENDROOT
BRANCH   1  10
ATOM     10  C   UNL d   1     -39.119  14.244  18.064  0.00  0.00     0.035 A 
ATOM     11  C   UNL d   1     -39.328  13.487  17.818  0.00  0.00     0.005 A 
ATOM     12  C   UNL d   1     -38.936  13.134  17.179  0.00  0.00     0.021 A 
ATOM     13  C   UNL d   1     -38.336  13.539  16.788  0.00  0.00     0.103 A 
ATOM     14  C   UNL d   1     -38.124  14.300  17.034  0.00  0.00     0.021 A 
ATOM     15  N   UNL d   1     -37.944  13.187  16.150  0.00  0.00    -0.148 N 
ATOM     16  C   UNL d   1     -38.516  14.653  17.672  0.00  0.00     0.005 A 
ENDBRANCH   1  10
BRANCH   3  17
ATOM     17  C   UNL d   1     -40.432  15.254  17.918  0.00  0.00     0.082 C 
BRANCH  17  18
ATOM     18  C   UNL d   1     -41.039  15.774  17.761  0.00  0.00     0.019 C 
ATOM     19  C   UNL d   1     -41.322  15.917  17.005  0.00  0.00     0.002 C 
ENDBRANCH  17  18
ENDBRANCH   3  17
TORSDOF 3
ENDMDL
