MODEL 1
REMARK VINA RESULT:      -2.8      0.000      0.000
REMARK  2 active torsions:
REMARK  status: ('A' for Active; 'I' for Inactive)
REMARK       I    between atoms: C_2  and  N_1 
REMARK       I    between atoms: N_8  and  C_2 
REMARK    1  A    between atoms: C_15  and  N_8 
REMARK    2  A    between atoms: C_9  and  C_15 
ROOT
ATOM      1  N   UNL d   1      33.239  21.293 -22.808  0.00  0.00    -0.258 N 
ATOM      2  C   UNL d   1      33.239  20.724 -23.408  0.00  0.00     0.354 C 
ATOM      3  S   UNL d   1      33.238  22.406 -21.581  0.00  0.00    -0.084 SA
ATOM      4  C   UNL d   1      33.239  21.043 -22.013  0.00  0.00     0.074 A 
ATOM      5  C   UNL d   1      33.238  22.087 -22.995  0.00  0.00     0.074 A 
ATOM      6  C   UNL d   1      33.238  21.602 -21.396  0.00  0.00     0.046 A 
ATOM      7  C   UNL d   1      33.238  22.647 -22.377  0.00  0.00     0.046 A 
ATOM      8  N   UNL d   1      33.240  19.838 -23.195  0.00  0.00    -0.189 NA
ATOM      9  O   UNL d   1      33.239  21.002 -24.270  0.00  0.00    -0.244 OA
ATOM     10  C   UNL d   1      33.238  22.331 -23.774  0.00  0.00     0.018 A 
ATOM     11  C   UNL d   1      33.239  20.247 -21.832  0.00  0.00     0.018 A 
ATOM     12  C   UNL d   1      33.238  21.355 -20.619  0.00  0.00     0.008 A 
ATOM     13  C   UNL d   1      33.237  23.448 -22.558  0.00  0.00     0.008 A 
ATOM     14  C   UNL d   1      33.239  20.001 -21.049  0.00  0.00     0.002 A 
ATOM     15  C   UNL d   1      33.238  23.135 -23.958  0.00  0.00     0.002 A 
ATOM     16  C   UNL d   1      33.237  23.700 -23.346  0.00  0.00     0.001 A 
ATOM     17  C   UNL d   1      33.239  20.563 -20.429  0.00  0.00     0.001 A 
ENDROOT
BRANCH   8  18
ATOM     18  C   UNL d   1      33.240  19.275 -23.796  0.00  0.00     0.128 C 
BRANCH  18  19
ATOM     19  C   UNL d   1      32.902  18.530 -23.669  0.00  0.00     0.119 A 
ATOM     20  O   UNL d   1      33.240  17.907 -23.244  0.00  0.00    -0.304 OA
ATOM     21  C   UNL d   1      32.713  17.271 -23.256  0.00  0.00     0.123 A 
ATOM     22  C   UNL d   1      32.049  17.500 -23.689  0.00  0.00     0.029 A 
ATOM     23  C   UNL d   1      32.166  18.276 -23.943  0.00  0.00     0.028 A 
ENDBRANCH  18  19
ENDBRANCH   8  18
TORSDOF 2
ENDMDL
MODEL 2
REMARK VINA RESULT:      -2.2      2.017      3.896
REMARK  2 active torsions:
REMARK  status: ('A' for Active; 'I' for Inactive)
REMARK       I    between atoms: C_2  and  N_1 
REMARK       I    between atoms: N_8  and  C_2 
REMARK    1  A    between atoms: C_15  and  N_8 
REMARK    2  A    between atoms: C_9  and  C_15 
ROOT
ATOM      1  N   UNL d   1      33.200  22.055 -22.416  0.00  0.00    -0.258 N 
ATOM      2  C   UNL d   1      33.181  22.774 -22.011  0.00  0.00     0.354 C 
ATOM      3  S   UNL d   1      33.237  20.595 -23.198  0.00  0.00    -0.084 SA
ATOM      4  C   UNL d   1      33.210  21.344 -21.982  0.00  0.00     0.074 A 
ATOM      5  C   UNL d   1      33.208  22.043 -23.232  0.00  0.00     0.074 A 
ATOM      6  C   UNL d   1      33.229  20.609 -22.374  0.00  0.00     0.046 A 
ATOM      7  C   UNL d   1      33.227  21.308 -23.625  0.00  0.00     0.046 A 
ATOM      8  N   UNL d   1      33.172  22.782 -21.099  0.00  0.00    -0.189 NA
ATOM      9  O   UNL d   1      33.170  23.544 -22.489  0.00  0.00    -0.244 OA
ATOM     10  C   UNL d   1      33.198  22.740 -23.658  0.00  0.00     0.018 A 
ATOM     11  C   UNL d   1      33.202  21.361 -21.164  0.00  0.00     0.018 A 
ATOM     12  C   UNL d   1      33.239  19.916 -21.946  0.00  0.00     0.008 A 
ATOM     13  C   UNL d   1      33.235  21.289 -24.446  0.00  0.00     0.008 A 
ATOM     14  C   UNL d   1      33.212  20.662 -20.736  0.00  0.00     0.002 A 
ATOM     15  C   UNL d   1      33.206  22.723 -24.482  0.00  0.00     0.002 A 
ATOM     16  C   UNL d   1      33.225  21.992 -24.882  0.00  0.00     0.001 A 
ATOM     17  C   UNL d   1      33.231  19.924 -21.131  0.00  0.00     0.001 A 
ENDROOT
BRANCH   8  18
ATOM     18  C   UNL d   1      33.153  23.502 -20.699  0.00  0.00     0.128 C 
BRANCH  18  19
ATOM     19  C   UNL d   1      32.829  23.547 -19.938  0.00  0.00     0.119 A 
ATOM     20  O   UNL d   1      32.034  23.679 -19.754  0.00  0.00    -0.304 OA
ATOM     21  C   UNL d   1      31.958  23.681 -18.932  0.00  0.00     0.123 A 
ATOM     22  C   UNL d   1      32.704  23.549 -18.607  0.00  0.00     0.029 A 
ATOM     23  C   UNL d   1      33.241  23.467 -19.228  0.00  0.00     0.028 A 
ENDBRANCH  18  19
ENDBRANCH   8  18
TORSDOF 2
ENDMDL
MODEL 3
REMARK VINA RESULT:      -1.4      1.325      3.790
REMARK  2 active torsions:
REMARK  status: ('A' for Active; 'I' for Inactive)
REMARK       I    between atoms: C_2  and  N_1 
REMARK       I    between atoms: N_8  and  C_2 
REMARK    1  A    between atoms: C_15  and  N_8 
REMARK    2  A    between atoms: C_9  and  C_15 
ROOT
ATOM      1  N   UNL d   1      33.095  19.859 -23.553  0.00  0.00    -0.258 N 
ATOM      2  C   UNL d   1      33.090  20.278 -24.265  0.00  0.00     0.354 C 
ATOM      3  S   UNL d   1      33.108  19.050 -22.107  0.00  0.00    -0.084 SA
ATOM      4  C   UNL d   1      33.137  20.279 -22.835  0.00  0.00     0.074 A 
ATOM      5  C   UNL d   1      33.059  19.043 -23.555  0.00  0.00     0.074 A 
ATOM      6  C   UNL d   1      33.144  19.874 -22.107  0.00  0.00     0.046 A 
ATOM      7  C   UNL d   1      33.066  18.637 -22.827  0.00  0.00     0.046 A 
ATOM      8  N   UNL d   1      33.130  21.188 -24.257  0.00  0.00    -0.189 NA
ATOM      9  O   UNL d   1      33.043  19.814 -25.042  0.00  0.00    -0.244 OA
ATOM     10  C   UNL d   1      33.018  18.631 -24.259  0.00  0.00     0.018 A 
ATOM     11  C   UNL d   1      33.173  21.096 -22.838  0.00  0.00     0.018 A 
ATOM     12  C   UNL d   1      33.185  20.288 -21.407  0.00  0.00     0.008 A 
ATOM     13  C   UNL d   1      33.030  17.816 -22.823  0.00  0.00     0.008 A 
ATOM     14  C   UNL d   1      33.215  21.510 -22.132  0.00  0.00     0.002 A 
ATOM     15  C   UNL d   1      32.981  17.808 -24.257  0.00  0.00     0.002 A 
ATOM     16  C   UNL d   1      32.987  17.394 -23.533  0.00  0.00     0.001 A 
ATOM     17  C   UNL d   1      33.221  21.102 -21.401  0.00  0.00     0.001 A 
ENDROOT
BRANCH   8  18
ATOM     18  C   UNL d   1      33.124  21.602 -24.970  0.00  0.00     0.128 C 
BRANCH  18  19
ATOM     19  C   UNL d   1      32.811  22.368 -25.004  0.00  0.00     0.119 A 
ATOM     20  O   UNL d   1      32.013  22.565 -25.082  0.00  0.00    -0.304 OA
ATOM     21  C   UNL d   1      31.951  23.388 -25.092  0.00  0.00     0.123 A 
ATOM     22  C   UNL d   1      32.710  23.701 -25.020  0.00  0.00     0.029 A 
ATOM     23  C   UNL d   1      33.240  23.071 -24.966  0.00  0.00     0.028 A 
ENDBRANCH  18  19
ENDBRANCH   8  18
TORSDOF 2
ENDMDL
MODEL 4
REMARK VINA RESULT:      -0.3      1.393      3.774
REMARK  2 active torsions:
REMARK  status: ('A' for Active; 'I' for Inactive)
REMARK       I    between atoms: C_2  and  N_1 
REMARK       I    between atoms: N_8  and  C_2 
REMARK    1  A    between atoms: C_15  and  N_8 
REMARK    2  A    between atoms: C_9  and  C_15 
ROOT
ATOM      1  N   UNL d   1      33.137  19.921 -23.098  0.00  0.00    -0.258 N 
ATOM      2  C   UNL d   1      33.108  20.728 -23.276  0.00  0.00     0.354 C 
ATOM      3  S   UNL d   1      33.195  18.313 -22.707  0.00  0.00    -0.084 SA
ATOM      4  C   UNL d   1      33.163  19.682 -22.301  0.00  0.00     0.074 A 
ATOM      5  C   UNL d   1      33.140  19.368 -23.698  0.00  0.00     0.074 A 
ATOM      6  C   UNL d   1      33.192  18.874 -22.103  0.00  0.00     0.046 A 
ATOM      7  C   UNL d   1      33.170  18.559 -23.501  0.00  0.00     0.046 A 
ATOM      8  N   UNL d   1      33.105  21.342 -22.602  0.00  0.00    -0.189 NA
ATOM      9  O   UNL d   1      33.081  20.982 -24.145  0.00  0.00    -0.244 OA
ATOM     10  C   UNL d   1      33.115  19.604 -24.480  0.00  0.00     0.018 A 
ATOM     11  C   UNL d   1      33.160  20.240 -21.703  0.00  0.00     0.018 A 
ATOM     12  C   UNL d   1      33.217  18.643 -21.322  0.00  0.00     0.008 A 
ATOM     13  C   UNL d   1      33.173  17.997 -24.100  0.00  0.00     0.008 A 
ATOM     14  C   UNL d   1      33.185  20.005 -20.918  0.00  0.00     0.002 A 
ATOM     15  C   UNL d   1      33.118  19.041 -25.083  0.00  0.00     0.002 A 
ATOM     16  C   UNL d   1      33.148  18.230 -24.894  0.00  0.00     0.001 A 
ATOM     17  C   UNL d   1      33.214  19.192 -20.721  0.00  0.00     0.001 A 
ENDROOT
BRANCH   8  18
ATOM     18  C   UNL d   1      33.076  22.145 -22.784  0.00  0.00     0.128 C 
BRANCH  18  19
ATOM     19  C   UNL d   1      32.720  22.678 -22.259  0.00  0.00     0.119 A 
ATOM     20  O   UNL d   1      31.932  22.662 -22.010  0.00  0.00    -0.304 OA
ATOM     21  C   UNL d   1      31.815  23.293 -21.490  0.00  0.00     0.123 A 
ATOM     22  C   UNL d   1      32.529  23.699 -21.417  0.00  0.00     0.029 A 
ATOM     23  C   UNL d   1      33.087  23.319 -21.892  0.00  0.00     0.028 A 
ENDBRANCH  18  19
ENDBRANCH   8  18
TORSDOF 2
ENDMDL
