MODEL 1
REMARK VINA RESULT:      12.6      0.000      0.000
REMARK  1 active torsions:
REMARK  status: ('A' for Active; 'I' for Inactive)
REMARK    1  A    between atoms: C_2  and  C_1 
ROOT
ATOM      1  C   UNL d   1     -56.915 -98.792 -44.484  0.00  0.00     0.067 A 
ATOM      2  C   UNL d   1     -58.228 -98.790 -43.928  0.00  0.00     0.123 A 
ATOM      3  C   UNL d   1     -57.409 -98.802 -43.821  0.00  0.00     0.033 A 
ATOM      4  C   UNL d   1     -58.550 -98.769 -44.688  0.00  0.00     0.123 A 
ATOM      5  O   UNL d   1     -58.727 -98.799 -43.263  0.00  0.00    -0.301 OA
ATOM      6  O   UNL d   1     -59.372 -98.758 -44.788  0.00  0.00    -0.301 OA
ATOM      7  C   UNL d   1     -57.236 -98.772 -45.243  0.00  0.00     0.008 A 
ATOM      8  C   UNL d   1     -58.054 -98.760 -45.346  0.00  0.00     0.027 A 
ATOM      9  C   UNL d   1     -59.550 -98.787 -43.369  0.00  0.00     0.149 A 
ATOM     10  C   UNL d   1     -59.871 -98.767 -44.129  0.00  0.00     0.149 A 
ENDROOT
BRANCH   1  11
ATOM     11  C   UNL d   1     -56.096 -98.804 -44.377  0.00  0.00     0.211 C 
ATOM     12  O   UNL d   1     -55.732 -98.778 -43.637  0.00  0.00    -0.644 OA
ATOM     13  O   UNL d   1     -55.556 -98.843 -45.001  0.00  0.00    -0.644 OA
ENDBRANCH   1  11
TORSDOF 1
ENDMDL
MODEL 2
REMARK VINA RESULT:      14.7      0.789      3.072
REMARK  1 active torsions:
REMARK  status: ('A' for Active; 'I' for Inactive)
REMARK    1  A    between atoms: C_2  and  C_1 
ROOT
ATOM      1  C   UNL d   1     -58.477 -98.769 -44.668  0.00  0.00     0.067 A 
ATOM      2  C   UNL d   1     -57.070 -98.769 -44.896  0.00  0.00     0.123 A 
ATOM      3  C   UNL d   1     -57.840 -98.772 -45.195  0.00  0.00     0.033 A 
ATOM      4  C   UNL d   1     -56.938 -98.764 -44.082  0.00  0.00     0.123 A 
ATOM      5  O   UNL d   1     -56.428 -98.772 -45.424  0.00  0.00    -0.301 OA
ATOM      6  O   UNL d   1     -56.163 -98.761 -43.789  0.00  0.00    -0.301 OA
ATOM      7  C   UNL d   1     -58.345 -98.764 -43.854  0.00  0.00     0.008 A 
ATOM      8  C   UNL d   1     -57.575 -98.761 -43.560  0.00  0.00     0.027 A 
ATOM      9  C   UNL d   1     -55.653 -98.770 -45.126  0.00  0.00     0.149 A 
ATOM     10  C   UNL d   1     -55.521 -98.764 -44.312  0.00  0.00     0.149 A 
ENDROOT
BRANCH   1  11
ATOM     11  C   UNL d   1     -59.248 -98.771 -44.967  0.00  0.00     0.211 C 
ATOM     12  O   UNL d   1     -59.425 -98.759 -45.772  0.00  0.00    -0.644 OA
ATOM     13  O   UNL d   1     -59.921 -98.787 -44.488  0.00  0.00    -0.644 OA
ENDBRANCH   1  11
TORSDOF 1
ENDMDL
MODEL 3
REMARK VINA RESULT:      15.3      0.557      2.847
REMARK  1 active torsions:
REMARK  status: ('A' for Active; 'I' for Inactive)
REMARK    1  A    between atoms: C_2  and  C_1 
ROOT
ATOM      1  C   UNL d   1     -58.432 -98.831 -44.256  0.00  0.00     0.067 A 
ATOM      2  C   UNL d   1     -57.019 -98.867 -44.071  0.00  0.00     0.123 A 
ATOM      3  C   UNL d   1     -57.780 -98.880 -43.750  0.00  0.00     0.033 A 
ATOM      4  C   UNL d   1     -56.910 -98.805 -44.886  0.00  0.00     0.123 A 
ATOM      5  O   UNL d   1     -56.362 -98.916 -43.565  0.00  0.00    -0.301 OA
ATOM      6  O   UNL d   1     -56.144 -98.792 -45.201  0.00  0.00    -0.301 OA
ATOM      7  C   UNL d   1     -58.324 -98.768 -45.072  0.00  0.00     0.008 A 
ATOM      8  C   UNL d   1     -57.563 -98.755 -45.387  0.00  0.00     0.027 A 
ATOM      9  C   UNL d   1     -55.596 -98.903 -43.885  0.00  0.00     0.149 A 
ATOM     10  C   UNL d   1     -55.488 -98.841 -44.700  0.00  0.00     0.149 A 
ENDROOT
BRANCH   1  11
ATOM     11  C   UNL d   1     -59.194 -98.844 -43.936  0.00  0.00     0.211 C 
ATOM     12  O   UNL d   1     -59.877 -98.942 -44.387  0.00  0.00    -0.644 OA
ATOM     13  O   UNL d   1     -59.349 -98.760 -43.129  0.00  0.00    -0.644 OA
ENDBRANCH   1  11
TORSDOF 1
ENDMDL
