MODEL 1
REMARK VINA RESULT:      -7.5      0.000      0.000
REMARK  5 active torsions:
REMARK  status: ('A' for Active; 'I' for Inactive)
REMARK    1  A    between atoms: N_6  and  C_1 
REMARK    2  A    between atoms: C_8  and  C_2 
REMARK    3  A    between atoms: C_10  and  C_3 
REMARK       I    between atoms: C_7  and  N_6 
REMARK    4  A    between atoms: C_18  and  C_7 
REMARK    5  A    between atoms: C_17  and  C_10 
ROOT
ATOM      1  C   UNL d   1     -48.458  12.813  23.168  0.00  0.00     0.119 A 
ATOM      2  C   UNL d   1     -48.466  11.993  23.210  0.00  0.00     0.084 A 
ATOM      3  C   UNL d   1     -47.210  12.408  23.425  0.00  0.00     0.031 A 
ATOM      4  S   UNL d   1     -47.685  13.078  23.300  0.00  0.00    -0.068 SA
ATOM      5  C   UNL d   1     -47.692  11.742  23.369  0.00  0.00     0.013 A 
ATOM      6  C   UNL d   1     -47.438  10.959  23.459  0.00  0.00     0.001 C 
ENDROOT
BRANCH   3   7
ATOM      7  C   UNL d   1     -46.395  12.325  23.583  0.00  0.00     0.007 C 
BRANCH   7   8
ATOM      8  C   UNL d   1     -45.838  12.633  23.046  0.00  0.00     0.003 A 
ATOM      9  C   UNL d   1     -45.194  12.165  22.811  0.00  0.00     0.026 A 
ATOM     10  C   UNL d   1     -44.639  12.461  22.281  0.00  0.00     0.119 A 
ATOM     11  O   UNL d   1     -43.961  12.133  21.958  0.00  0.00    -0.300 OA
ATOM     12  C   UNL d   1     -44.721  13.225  21.980  0.00  0.00     0.119 A 
ATOM     13  C   UNL d   1     -43.622  12.688  21.458  0.00  0.00     0.304 A 
ATOM     14  O   UNL d   1     -44.094  13.363  21.474  0.00  0.00    -0.300 OA
ATOM     15  C   UNL d   1     -45.358  13.692  22.211  0.00  0.00     0.026 A 
ATOM     16  C   UNL d   1     -45.920  13.397  22.745  0.00  0.00     0.002 A 
ENDBRANCH   7   8
ENDBRANCH   3   7
BRANCH   1  17
ATOM     17  N   UNL d   1     -49.124  13.302  23.016  0.00  0.00    -0.201 NA
ATOM     18  C   UNL d   1     -49.083  14.121  23.166  0.00  0.00     0.280 C 
ATOM     19  O   UNL d   1     -48.390  14.457  23.463  0.00  0.00    -0.265 OA
BRANCH  18  20
ATOM     20  C   UNL d   1     -49.743  14.599  23.015  0.00  0.00     0.058 A 
ATOM     21  C   UNL d   1     -50.141  14.973  23.633  0.00  0.00     0.005 A 
ATOM     22  C   UNL d   1     -50.796  15.447  23.486  0.00  0.00     0.000 A 
ATOM     23  C   UNL d   1     -51.064  15.554  22.710  0.00  0.00     0.000 A 
ATOM     24  C   UNL d   1     -50.662  15.177  22.091  0.00  0.00     0.000 A 
ATOM     25  C   UNL d   1     -50.009  14.705  22.241  0.00  0.00     0.005 A 
ENDBRANCH  18  20
ENDBRANCH   1  17
BRANCH   2  26
ATOM     26  C   UNL d   1     -49.119  11.495  23.114  0.00  0.00     0.299 C 
ATOM     27  O   UNL d   1     -49.269  11.133  22.317  0.00  0.00    -0.264 OA
ATOM     28  N   UNL d   1     -49.592  11.344  23.697  0.00  0.00    -0.102 N 
ENDBRANCH   2  26
TORSDOF 5
ENDMDL
MODEL 2
REMARK VINA RESULT:      -6.5      1.974      5.290
REMARK  5 active torsions:
REMARK  status: ('A' for Active; 'I' for Inactive)
REMARK    1  A    between atoms: N_6  and  C_1 
REMARK    2  A    between atoms: C_8  and  C_2 
REMARK    3  A    between atoms: C_10  and  C_3 
REMARK       I    between atoms: C_7  and  N_6 
REMARK    4  A    between atoms: C_18  and  C_7 
REMARK    5  A    between atoms: C_17  and  C_10 
ROOT
ATOM      1  C   UNL d   1     -46.015  12.674  22.966  0.00  0.00     0.119 A 
ATOM      2  C   UNL d   1     -45.950  13.381  22.554  0.00  0.00     0.084 A 
ATOM      3  C   UNL d   1     -47.171  13.331  23.105  0.00  0.00     0.031 A 
ATOM      4  S   UNL d   1     -46.767  12.634  23.311  0.00  0.00    -0.068 SA
ATOM      5  C   UNL d   1     -46.667  13.788  22.640  0.00  0.00     0.013 A 
ATOM      6  C   UNL d   1     -46.854  14.528  22.318  0.00  0.00     0.001 C 
ENDROOT
BRANCH   3   7
ATOM      7  C   UNL d   1     -47.938  13.603  23.286  0.00  0.00     0.007 C 
BRANCH   7   8
ATOM      8  C   UNL d   1     -48.601  13.169  23.030  0.00  0.00     0.003 A 
ATOM      9  C   UNL d   1     -48.942  13.339  22.293  0.00  0.00     0.026 A 
ATOM     10  C   UNL d   1     -49.597  12.915  22.032  0.00  0.00     0.119 A 
ATOM     11  O   UNL d   1     -50.040  12.961  21.344  0.00  0.00    -0.300 OA
ATOM     12  C   UNL d   1     -49.917  12.317  22.503  0.00  0.00     0.119 A 
ATOM     13  C   UNL d   1     -50.633  12.396  21.385  0.00  0.00     0.304 A 
ATOM     14  O   UNL d   1     -50.555  11.998  22.103  0.00  0.00    -0.300 OA
ATOM     15  C   UNL d   1     -49.581  12.145  23.234  0.00  0.00     0.026 A 
ATOM     16  C   UNL d   1     -48.921  12.571  23.501  0.00  0.00     0.002 A 
ENDBRANCH   7   8
ENDBRANCH   3   7
BRANCH   1  17
ATOM     17  N   UNL d   1     -45.417  12.087  23.029  0.00  0.00    -0.201 NA
ATOM     18  C   UNL d   1     -45.586  11.357  23.395  0.00  0.00     0.280 C 
ATOM     19  O   UNL d   1     -46.339  11.205  23.697  0.00  0.00    -0.265 OA
BRANCH  18  20
ATOM     20  C   UNL d   1     -44.992  10.781  23.454  0.00  0.00     0.058 A 
ATOM     21  C   UNL d   1     -44.202  10.980  23.327  0.00  0.00     0.005 A 
ATOM     22  C   UNL d   1     -43.610  10.412  23.385  0.00  0.00     0.000 A 
ATOM     23  C   UNL d   1     -43.804   9.629  23.572  0.00  0.00     0.000 A 
ATOM     24  C   UNL d   1     -44.600   9.433  23.698  0.00  0.00     0.000 A 
ATOM     25  C   UNL d   1     -45.187  10.002  23.640  0.00  0.00     0.005 A 
ENDBRANCH  18  20
ENDBRANCH   1  17
BRANCH   2  26
ATOM     26  C   UNL d   1     -45.296  13.651  22.127  0.00  0.00     0.299 C 
ATOM     27  O   UNL d   1     -44.804  14.308  22.465  0.00  0.00    -0.264 OA
ATOM     28  N   UNL d   1     -45.111  13.344  21.449  0.00  0.00    -0.102 N 
ENDBRANCH   2  26
TORSDOF 5
ENDMDL
MODEL 3
REMARK VINA RESULT:      -5.9      1.356      4.727
REMARK  5 active torsions:
REMARK  status: ('A' for Active; 'I' for Inactive)
REMARK    1  A    between atoms: N_6  and  C_1 
REMARK    2  A    between atoms: C_8  and  C_2 
REMARK    3  A    between atoms: C_10  and  C_3 
REMARK       I    between atoms: C_7  and  N_6 
REMARK    4  A    between atoms: C_18  and  C_7 
REMARK    5  A    between atoms: C_17  and  C_10 
ROOT
ATOM      1  C   UNL d   1     -47.018  12.498  22.861  0.00  0.00     0.119 A 
ATOM      2  C   UNL d   1     -47.543  11.904  23.073  0.00  0.00     0.084 A 
ATOM      3  C   UNL d   1     -48.095  13.082  23.396  0.00  0.00     0.031 A 
ATOM      4  S   UNL d   1     -47.351  13.231  23.057  0.00  0.00    -0.068 SA
ATOM      5  C   UNL d   1     -48.211  12.266  23.405  0.00  0.00     0.013 A 
ATOM      6  C   UNL d   1     -48.883  11.882  23.698  0.00  0.00     0.001 C 
ENDROOT
BRANCH   3   7
ATOM      7  C   UNL d   1     -48.681  13.593  23.698  0.00  0.00     0.007 C 
BRANCH   7   8
ATOM      8  C   UNL d   1     -49.092  14.100  23.181  0.00  0.00     0.003 A 
ATOM      9  C   UNL d   1     -49.805  13.847  22.840  0.00  0.00     0.026 A 
ATOM     10  C   UNL d   1     -50.217  14.342  22.327  0.00  0.00     0.119 A 
ATOM     11  O   UNL d   1     -50.920  14.242  21.918  0.00  0.00    -0.300 OA
ATOM     12  C   UNL d   1     -49.922  15.092  22.151  0.00  0.00     0.119 A 
ATOM     13  C   UNL d   1     -51.063  14.926  21.488  0.00  0.00     0.304 A 
ATOM     14  O   UNL d   1     -50.445  15.450  21.633  0.00  0.00    -0.300 OA
ATOM     15  C   UNL d   1     -49.216  15.346  22.486  0.00  0.00     0.026 A 
ATOM     16  C   UNL d   1     -48.797  14.850  23.004  0.00  0.00     0.002 A 
ENDBRANCH   7   8
ENDBRANCH   3   7
BRANCH   1  17
ATOM     17  N   UNL d   1     -46.266  12.383  22.503  0.00  0.00    -0.201 NA
ATOM     18  C   UNL d   1     -45.668  12.956  22.597  0.00  0.00     0.280 C 
ATOM     19  O   UNL d   1     -45.808  13.639  23.039  0.00  0.00    -0.265 OA
BRANCH  18  20
ATOM     20  C   UNL d   1     -44.928  12.837  22.242  0.00  0.00     0.058 A 
ATOM     21  C   UNL d   1     -44.429  12.235  22.504  0.00  0.00     0.005 A 
ATOM     22  C   UNL d   1     -43.695  12.114  22.154  0.00  0.00     0.000 A 
ATOM     23  C   UNL d   1     -43.448  12.600  21.531  0.00  0.00     0.000 A 
ATOM     24  C   UNL d   1     -43.952  13.204  21.270  0.00  0.00     0.000 A 
ATOM     25  C   UNL d   1     -44.684  13.322  21.621  0.00  0.00     0.005 A 
ENDBRANCH  18  20
ENDBRANCH   1  17
BRANCH   2  26
ATOM     26  C   UNL d   1     -47.438  11.090  22.979  0.00  0.00     0.299 C 
ATOM     27  O   UNL d   1     -47.750  10.698  22.246  0.00  0.00    -0.264 OA
ATOM     28  N   UNL d   1     -47.079  10.672  23.513  0.00  0.00    -0.102 N 
ENDBRANCH   2  26
TORSDOF 5
ENDMDL
MODEL 4
REMARK VINA RESULT:      -5.6      1.425      2.712
REMARK  5 active torsions:
REMARK  status: ('A' for Active; 'I' for Inactive)
REMARK    1  A    between atoms: N_6  and  C_1 
REMARK    2  A    between atoms: C_8  and  C_2 
REMARK    3  A    between atoms: C_10  and  C_3 
REMARK       I    between atoms: C_7  and  N_6 
REMARK    4  A    between atoms: C_18  and  C_7 
REMARK    5  A    between atoms: C_17  and  C_10 
ROOT
ATOM      1  C   UNL d   1     -48.208  13.956  22.840  0.00  0.00     0.119 A 
ATOM      2  C   UNL d   1     -48.139  14.736  22.593  0.00  0.00     0.084 A 
ATOM      3  C   UNL d   1     -46.904  14.242  22.762  0.00  0.00     0.031 A 
ATOM      4  S   UNL d   1     -47.448  13.643  22.947  0.00  0.00    -0.068 SA
ATOM      5  C   UNL d   1     -47.330  14.913  22.545  0.00  0.00     0.013 A 
ATOM      6  C   UNL d   1     -46.999  15.638  22.318  0.00  0.00     0.001 C 
ENDROOT
BRANCH   3   7
ATOM      7  C   UNL d   1     -46.070  14.257  22.766  0.00  0.00     0.007 C 
BRANCH   7   8
ATOM      8  C   UNL d   1     -45.645  13.553  22.638  0.00  0.00     0.003 A 
ATOM      9  C   UNL d   1     -45.647  12.961  23.221  0.00  0.00     0.026 A 
ATOM     10  C   UNL d   1     -45.230  12.262  23.103  0.00  0.00     0.119 A 
ATOM     11  O   UNL d   1     -45.134  11.597  23.571  0.00  0.00    -0.300 OA
ATOM     12  C   UNL d   1     -44.808  12.146  22.404  0.00  0.00     0.119 A 
ATOM     13  C   UNL d   1     -44.655  11.068  23.167  0.00  0.00     0.304 A 
ATOM     14  O   UNL d   1     -44.454  11.410  22.445  0.00  0.00    -0.300 OA
ATOM     15  C   UNL d   1     -44.803  12.729  21.824  0.00  0.00     0.026 A 
ATOM     16  C   UNL d   1     -45.222  13.437  21.939  0.00  0.00     0.002 A 
ENDBRANCH   7   8
ENDBRANCH   3   7
BRANCH   1  17
ATOM     17  N   UNL d   1     -48.929  13.543  22.964  0.00  0.00    -0.201 NA
ATOM     18  C   UNL d   1     -48.918  12.764  23.260  0.00  0.00     0.280 C 
ATOM     19  O   UNL d   1     -48.202  12.393  23.434  0.00  0.00    -0.265 OA
BRANCH  18  20
ATOM     20  C   UNL d   1     -49.633  12.362  23.380  0.00  0.00     0.058 A 
ATOM     21  C   UNL d   1     -49.636  11.561  23.578  0.00  0.00     0.005 A 
ATOM     22  C   UNL d   1     -50.343  11.160  23.698  0.00  0.00     0.000 A 
ATOM     23  C   UNL d   1     -51.064  11.559  23.621  0.00  0.00     0.000 A 
ATOM     24  C   UNL d   1     -51.058  12.364  23.422  0.00  0.00     0.000 A 
ATOM     25  C   UNL d   1     -50.351  12.761  23.303  0.00  0.00     0.005 A 
ENDBRANCH  18  20
ENDBRANCH   1  17
BRANCH   2  26
ATOM     26  C   UNL d   1     -48.754  15.260  22.420  0.00  0.00     0.299 C 
ATOM     27  O   UNL d   1     -49.119  15.727  23.081  0.00  0.00    -0.264 OA
ATOM     28  N   UNL d   1     -49.010  15.348  21.703  0.00  0.00    -0.102 N 
ENDBRANCH   2  26
TORSDOF 5
ENDMDL
MODEL 5
REMARK VINA RESULT:      -4.7      5.741      9.401
REMARK  5 active torsions:
REMARK  status: ('A' for Active; 'I' for Inactive)
REMARK    1  A    between atoms: N_6  and  C_1 
REMARK    2  A    between atoms: C_8  and  C_2 
REMARK    3  A    between atoms: C_10  and  C_3 
REMARK       I    between atoms: C_7  and  N_6 
REMARK    4  A    between atoms: C_18  and  C_7 
REMARK    5  A    between atoms: C_17  and  C_10 
ROOT
ATOM      1  C   UNL d   1     -39.506  14.450  19.598  0.00  0.00     0.119 A 
ATOM      2  C   UNL d   1     -39.211  14.948  20.181  0.00  0.00     0.084 A 
ATOM      3  C   UNL d   1     -40.516  14.757  20.417  0.00  0.00     0.031 A 
ATOM      4  S   UNL d   1     -40.313  14.327  19.737  0.00  0.00    -0.068 SA
ATOM      5  C   UNL d   1     -39.838  15.138  20.689  0.00  0.00     0.013 A 
ATOM      6  C   UNL d   1     -39.798  15.627  21.356  0.00  0.00     0.001 C 
ENDROOT
BRANCH   3   7
ATOM      7  C   UNL d   1     -41.240  14.848  20.823  0.00  0.00     0.007 C 
BRANCH   7   8
ATOM      8  C   UNL d   1     -41.657  14.174  21.076  0.00  0.00     0.003 A 
ATOM      9  C   UNL d   1     -42.469  14.109  20.914  0.00  0.00     0.026 A 
ATOM     10  C   UNL d   1     -42.889  13.446  21.161  0.00  0.00     0.119 A 
ATOM     11  O   UNL d   1     -43.677  13.236  21.080  0.00  0.00    -0.300 OA
ATOM     12  C   UNL d   1     -42.504  12.843  21.571  0.00  0.00     0.119 A 
ATOM     13  C   UNL d   1     -43.784  12.506  21.438  0.00  0.00     0.304 A 
ATOM     14  O   UNL d   1     -43.057  12.264  21.742  0.00  0.00    -0.300 OA
ATOM     15  C   UNL d   1     -41.700  12.903  21.734  0.00  0.00     0.026 A 
ATOM     16  C   UNL d   1     -41.272  13.570  21.487  0.00  0.00     0.002 A 
ENDBRANCH   7   8
ENDBRANCH   3   7
BRANCH   1  17
ATOM     17  N   UNL d   1     -39.062  14.120  18.965  0.00  0.00    -0.201 NA
ATOM     18  C   UNL d   1     -39.444  13.907  18.255  0.00  0.00     0.280 C 
ATOM     19  O   UNL d   1     -40.257  14.018  18.168  0.00  0.00    -0.265 OA
BRANCH  18  20
ATOM     20  C   UNL d   1     -39.001  13.582  17.634  0.00  0.00     0.058 A 
ATOM     21  C   UNL d   1     -38.661  12.833  17.708  0.00  0.00     0.005 A 
ATOM     22  C   UNL d   1     -38.222  12.508  17.095  0.00  0.00     0.000 A 
ATOM     23  C   UNL d   1     -38.114  12.932  16.392  0.00  0.00     0.000 A 
ATOM     24  C   UNL d   1     -38.457  13.684  16.321  0.00  0.00     0.000 A 
ATOM     25  C   UNL d   1     -38.895  14.005  16.935  0.00  0.00     0.005 A 
ENDBRANCH  18  20
ENDBRANCH   1  17
BRANCH   2  26
ATOM     26  C   UNL d   1     -38.434  15.218  20.259  0.00  0.00     0.299 C 
ATOM     27  O   UNL d   1     -38.174  15.922  19.785  0.00  0.00    -0.264 OA
ATOM     28  N   UNL d   1     -37.940  14.872  20.732  0.00  0.00    -0.102 N 
ENDBRANCH   2  26
TORSDOF 5
ENDMDL
