MODEL 1
REMARK VINA RESULT:      -9.1      0.000      0.000
REMARK  1 active torsions:
REMARK  status: ('A' for Active; 'I' for Inactive)
REMARK    1  A    between atoms: C_7  and  C_1 
ROOT
ATOM      1  C   UNL d   1     -47.582  13.057  23.007  0.00  0.00     0.062 A 
ATOM      2  C   UNL d   1     -47.574  12.269  23.237  0.00  0.00     0.202 A 
ATOM      3  C   UNL d   1     -46.878  11.861  23.355  0.00  0.00     0.101 A 
ATOM      4  C   UNL d   1     -46.854  13.451  22.889  0.00  0.00     0.103 A 
ATOM      5  C   UNL d   1     -46.151  12.255  23.237  0.00  0.00     0.109 A 
ATOM      6  O   UNL d   1     -46.137  13.047  23.005  0.00  0.00    -0.307 OA
ATOM      7  C   UNL d   1     -46.882  11.093  23.579  0.00  0.00     0.204 A 
ATOM      8  C   UNL d   1     -45.445  11.871  23.347  0.00  0.00     0.067 A 
ATOM      9  C   UNL d   1     -46.185  10.682  23.697  0.00  0.00     0.084 A 
ATOM     10  O   UNL d   1     -48.298  11.877  23.354  0.00  0.00    -0.286 OA
ATOM     11  C   UNL d   1     -45.457  11.076  23.580  0.00  0.00     0.201 A 
ATOM     12  O   UNL d   1     -47.606  10.701  23.696  0.00  0.00    -0.286 OA
ATOM     13  C   UNL d   1     -46.843  14.247  22.656  0.00  0.00     0.027 C 
ATOM     14  O   UNL d   1     -44.743  10.678  23.694  0.00  0.00    -0.286 OA
ENDROOT
BRANCH   1  15
ATOM     15  C   UNL d   1     -48.298  13.459  22.891  0.00  0.00     0.007 A 
ATOM     16  C   UNL d   1     -48.754  13.268  22.250  0.00  0.00     0.027 A 
ATOM     17  C   UNL d   1     -49.465  13.669  22.137  0.00  0.00     0.123 A 
ATOM     18  O   UNL d   1     -49.842  13.398  21.464  0.00  0.00    -0.303 OA
ATOM     19  C   UNL d   1     -49.700  14.243  22.660  0.00  0.00     0.123 A 
ATOM     20  C   UNL d   1     -50.552  13.639  21.151  0.00  0.00     0.125 A 
ATOM     21  C   UNL d   1     -51.064  14.217  21.434  0.00  0.00     0.053 A 
ATOM     22  C   UNL d   1     -50.982  14.693  22.110  0.00  0.00     0.125 A 
ATOM     23  O   UNL d   1     -50.375  14.704  22.653  0.00  0.00    -0.303 OA
ATOM     24  C   UNL d   1     -49.230  14.433  23.311  0.00  0.00     0.027 A 
ATOM     25  C   UNL d   1     -48.514  14.030  23.425  0.00  0.00     0.002 A 
ENDBRANCH   1  15
TORSDOF 1
ENDMDL
MODEL 2
REMARK VINA RESULT:      -8.6      1.088      4.548
REMARK  1 active torsions:
REMARK  status: ('A' for Active; 'I' for Inactive)
REMARK    1  A    between atoms: C_7  and  C_1 
ROOT
ATOM      1  C   UNL d   1     -47.063  13.521  22.546  0.00  0.00     0.062 A 
ATOM      2  C   UNL d   1     -47.732  13.252  22.153  0.00  0.00     0.202 A 
ATOM      3  C   UNL d   1     -48.420  13.688  22.124  0.00  0.00     0.101 A 
ATOM      4  C   UNL d   1     -47.090  14.264  22.928  0.00  0.00     0.103 A 
ATOM      5  C   UNL d   1     -48.448  14.431  22.506  0.00  0.00     0.109 A 
ATOM      6  O   UNL d   1     -47.786  14.720  22.907  0.00  0.00    -0.307 OA
ATOM      7  C   UNL d   1     -49.067  13.416  21.738  0.00  0.00     0.204 A 
ATOM      8  C   UNL d   1     -49.120  14.884  22.492  0.00  0.00     0.067 A 
ATOM      9  C   UNL d   1     -49.758  13.852  21.708  0.00  0.00     0.084 A 
ATOM     10  O   UNL d   1     -47.705  12.513  21.773  0.00  0.00    -0.286 OA
ATOM     11  C   UNL d   1     -49.785  14.596  22.090  0.00  0.00     0.201 A 
ATOM     12  O   UNL d   1     -49.039  12.677  21.358  0.00  0.00    -0.286 OA
ATOM     13  C   UNL d   1     -46.425  14.552  23.330  0.00  0.00     0.027 C 
ATOM     14  O   UNL d   1     -50.474  15.050  22.071  0.00  0.00    -0.286 OA
ENDROOT
BRANCH   1  15
ATOM     15  C   UNL d   1     -46.371  13.067  22.567  0.00  0.00     0.007 A 
ATOM     16  C   UNL d   1     -46.357  12.395  23.019  0.00  0.00     0.027 A 
ATOM     17  C   UNL d   1     -45.667  11.944  23.038  0.00  0.00     0.123 A 
ATOM     18  O   UNL d   1     -45.765  11.294  23.523  0.00  0.00    -0.303 OA
ATOM     19  C   UNL d   1     -45.017  12.173  22.611  0.00  0.00     0.123 A 
ATOM     20  C   UNL d   1     -45.229  10.709  23.698  0.00  0.00     0.125 A 
ATOM     21  C   UNL d   1     -44.455  10.630  23.429  0.00  0.00     0.053 A 
ATOM     22  C   UNL d   1     -44.034  11.128  22.914  0.00  0.00     0.125 A 
ATOM     23  O   UNL d   1     -44.285  11.813  22.551  0.00  0.00    -0.303 OA
ATOM     24  C   UNL d   1     -45.037  12.858  22.153  0.00  0.00     0.027 A 
ATOM     25  C   UNL d   1     -45.730  13.312  22.133  0.00  0.00     0.002 A 
ENDBRANCH   1  15
TORSDOF 1
ENDMDL
MODEL 3
REMARK VINA RESULT:      -8.3      1.135      4.614
REMARK  1 active torsions:
REMARK  status: ('A' for Active; 'I' for Inactive)
REMARK    1  A    between atoms: C_7  and  C_1 
ROOT
ATOM      1  C   UNL d   1     -48.008  13.203  22.636  0.00  0.00     0.062 A 
ATOM      2  C   UNL d   1     -48.128  14.003  22.781  0.00  0.00     0.202 A 
ATOM      3  C   UNL d   1     -48.852  14.359  22.664  0.00  0.00     0.101 A 
ATOM      4  C   UNL d   1     -48.649  12.742  22.361  0.00  0.00     0.103 A 
ATOM      5  C   UNL d   1     -49.493  13.898  22.390  0.00  0.00     0.109 A 
ATOM      6  O   UNL d   1     -49.393  13.092  22.238  0.00  0.00    -0.307 OA
ATOM      7  C   UNL d   1     -48.957  15.139  22.809  0.00  0.00     0.204 A 
ATOM      8  C   UNL d   1     -50.223  14.229  22.266  0.00  0.00     0.067 A 
ATOM      9  C   UNL d   1     -49.683  15.498  22.692  0.00  0.00     0.084 A 
ATOM     10  O   UNL d   1     -47.490  14.461  23.054  0.00  0.00    -0.286 OA
ATOM     11  C   UNL d   1     -50.324  15.037  22.418  0.00  0.00     0.201 A 
ATOM     12  O   UNL d   1     -48.320  15.598  23.082  0.00  0.00    -0.286 OA
ATOM     13  C   UNL d   1     -48.548  11.934  22.210  0.00  0.00     0.027 C 
ATOM     14  O   UNL d   1     -51.064  15.381  22.295  0.00  0.00    -0.286 OA
ENDROOT
BRANCH   1  15
ATOM     15  C   UNL d   1     -47.266  12.855  22.759  0.00  0.00     0.007 A 
ATOM     16  C   UNL d   1     -46.656  13.050  22.262  0.00  0.00     0.027 A 
ATOM     17  C   UNL d   1     -45.919  12.702  22.386  0.00  0.00     0.123 A 
ATOM     18  O   UNL d   1     -45.382  12.969  21.831  0.00  0.00    -0.303 OA
ATOM     19  C   UNL d   1     -45.811  12.176  22.994  0.00  0.00     0.123 A 
ATOM     20  C   UNL d   1     -44.598  12.770  21.751  0.00  0.00     0.125 A 
ATOM     21  C   UNL d   1     -44.154  12.251  22.210  0.00  0.00     0.053 A 
ATOM     22  C   UNL d   1     -44.399  11.804  22.867  0.00  0.00     0.125 A 
ATOM     23  O   UNL d   1     -45.135  11.772  23.214  0.00  0.00    -0.303 OA
ATOM     24  C   UNL d   1     -46.436  11.983  23.495  0.00  0.00     0.027 A 
ATOM     25  C   UNL d   1     -47.178  12.332  23.372  0.00  0.00     0.002 A 
ENDBRANCH   1  15
TORSDOF 1
ENDMDL
MODEL 4
REMARK VINA RESULT:      -7.3      8.248      9.814
REMARK  1 active torsions:
REMARK  status: ('A' for Active; 'I' for Inactive)
REMARK    1  A    between atoms: C_7  and  C_1 
ROOT
ATOM      1  C   UNL d   1     -39.934  15.202  20.073  0.00  0.00     0.062 A 
ATOM      2  C   UNL d   1     -39.645  14.899  19.366  0.00  0.00     0.202 A 
ATOM      3  C   UNL d   1     -40.049  14.984  18.663  0.00  0.00     0.101 A 
ATOM      4  C   UNL d   1     -40.665  15.609  20.069  0.00  0.00     0.103 A 
ATOM      5  C   UNL d   1     -40.779  15.391  18.660  0.00  0.00     0.109 A 
ATOM      6  O   UNL d   1     -41.087  15.703  19.359  0.00  0.00    -0.307 OA
ATOM      7  C   UNL d   1     -39.758  14.684  17.980  0.00  0.00     0.204 A 
ATOM      8  C   UNL d   1     -41.200  15.488  17.973  0.00  0.00     0.067 A 
ATOM      9  C   UNL d   1     -40.162  14.768  17.274  0.00  0.00     0.084 A 
ATOM     10  O   UNL d   1     -38.919  14.495  19.370  0.00  0.00    -0.286 OA
ATOM     11  C   UNL d   1     -40.893  15.175  17.271  0.00  0.00     0.201 A 
ATOM     12  O   UNL d   1     -39.032  14.280  17.984  0.00  0.00    -0.286 OA
ATOM     13  C   UNL d   1     -40.972  15.922  20.773  0.00  0.00     0.027 C 
ATOM     14  O   UNL d   1     -41.315  15.270  16.568  0.00  0.00    -0.286 OA
ENDROOT
BRANCH   1  15
ATOM     15  C   UNL d   1     -39.512  15.109  20.780  0.00  0.00     0.007 A 
ATOM     16  C   UNL d   1     -39.606  14.424  21.203  0.00  0.00     0.027 A 
ATOM     17  C   UNL d   1     -39.185  14.333  21.906  0.00  0.00     0.123 A 
ATOM     18  O   UNL d   1     -39.355  13.610  22.247  0.00  0.00    -0.303 OA
ATOM     19  C   UNL d   1     -38.689  14.919  22.166  0.00  0.00     0.123 A 
ATOM     20  C   UNL d   1     -39.063  13.297  22.939  0.00  0.00     0.125 A 
ATOM     21  C   UNL d   1     -38.527  13.634  23.464  0.00  0.00     0.053 A 
ATOM     22  C   UNL d   1     -38.152  14.374  23.416  0.00  0.00     0.125 A 
ATOM     23  O   UNL d   1     -38.225  14.944  22.838  0.00  0.00    -0.303 OA
ATOM     24  C   UNL d   1     -38.599  15.614  21.730  0.00  0.00     0.027 A 
ATOM     25  C   UNL d   1     -39.021  15.707  21.023  0.00  0.00     0.002 A 
ENDBRANCH   1  15
TORSDOF 1
ENDMDL
MODEL 5
REMARK VINA RESULT:      -7.2      8.485      9.338
REMARK  1 active torsions:
REMARK  status: ('A' for Active; 'I' for Inactive)
REMARK    1  A    between atoms: C_7  and  C_1 
ROOT
ATOM      1  C   UNL d   1     -39.699  14.540  20.460  0.00  0.00     0.062 A 
ATOM      2  C   UNL d   1     -39.111  13.995  20.638  0.00  0.00     0.202 A 
ATOM      3  C   UNL d   1     -38.817  13.909  21.393  0.00  0.00     0.101 A 
ATOM      4  C   UNL d   1     -40.004  15.020  21.072  0.00  0.00     0.103 A 
ATOM      5  C   UNL d   1     -39.122  14.389  22.006  0.00  0.00     0.109 A 
ATOM      6  O   UNL d   1     -39.714  14.943  21.848  0.00  0.00    -0.307 OA
ATOM      7  C   UNL d   1     -38.243  13.375  21.556  0.00  0.00     0.204 A 
ATOM      8  C   UNL d   1     -38.846  14.323  22.766  0.00  0.00     0.067 A 
ATOM      9  C   UNL d   1     -37.947  13.288  22.313  0.00  0.00     0.084 A 
ATOM     10  O   UNL d   1     -38.807  13.518  20.029  0.00  0.00    -0.286 OA
ATOM     11  C   UNL d   1     -38.253  13.767  22.926  0.00  0.00     0.201 A 
ATOM     12  O   UNL d   1     -37.940  12.898  20.947  0.00  0.00    -0.286 OA
ATOM     13  C   UNL d   1     -40.598  15.575  20.912  0.00  0.00     0.027 C 
ATOM     14  O   UNL d   1     -37.966  13.693  23.697  0.00  0.00    -0.286 OA
ENDROOT
BRANCH   1  15
ATOM     15  C   UNL d   1     -39.988  14.616  19.687  0.00  0.00     0.007 A 
ATOM     16  C   UNL d   1     -39.598  15.104  19.170  0.00  0.00     0.027 A 
ATOM     17  C   UNL d   1     -39.888  15.178  18.402  0.00  0.00     0.123 A 
ATOM     18  O   UNL d   1     -39.421  15.691  17.970  0.00  0.00    -0.303 OA
ATOM     19  C   UNL d   1     -40.550  14.770  18.172  0.00  0.00     0.123 A 
ATOM     20  C   UNL d   1     -39.506  15.921  17.195  0.00  0.00     0.125 A 
ATOM     21  C   UNL d   1     -40.084  15.693  16.656  0.00  0.00     0.053 A 
ATOM     22  C   UNL d   1     -40.721  15.172  16.773  0.00  0.00     0.125 A 
ATOM     23  O   UNL d   1     -40.926  14.763  17.447  0.00  0.00    -0.303 OA
ATOM     24  C   UNL d   1     -40.942  14.276  18.703  0.00  0.00     0.027 A 
ATOM     25  C   UNL d   1     -40.652  14.200  19.476  0.00  0.00     0.002 A 
ENDBRANCH   1  15
TORSDOF 1
ENDMDL
MODEL 6
REMARK VINA RESULT:      -7.0      8.732     10.478
REMARK  1 active torsions:
REMARK  status: ('A' for Active; 'I' for Inactive)
REMARK    1  A    between atoms: C_7  and  C_1 
ROOT
ATOM      1  C   UNL d   1     -39.416  14.649  18.004  0.00  0.00     0.062 A 
ATOM      2  C   UNL d   1     -38.929  14.024  17.788  0.00  0.00     0.202 A 
ATOM      3  C   UNL d   1     -38.676  13.920  17.020  0.00  0.00     0.101 A 
ATOM      4  C   UNL d   1     -39.659  15.193  17.418  0.00  0.00     0.103 A 
ATOM      5  C   UNL d   1     -38.919  14.464  16.434  0.00  0.00     0.109 A 
ATOM      6  O   UNL d   1     -39.409  15.099  16.631  0.00  0.00    -0.307 OA
ATOM      7  C   UNL d   1     -38.201  13.307  16.820  0.00  0.00     0.204 A 
ATOM      8  C   UNL d   1     -38.681  14.382  15.663  0.00  0.00     0.067 A 
ATOM      9  C   UNL d   1     -37.947  13.201  16.050  0.00  0.00     0.084 A 
ATOM     10  O   UNL d   1     -38.687  13.483  18.370  0.00  0.00    -0.286 OA
ATOM     11  C   UNL d   1     -38.190  13.746  15.464  0.00  0.00     0.201 A 
ATOM     12  O   UNL d   1     -37.960  12.766  17.402  0.00  0.00    -0.286 OA
ATOM     13  C   UNL d   1     -40.151  15.830  17.618  0.00  0.00     0.027 C 
ATOM     14  O   UNL d   1     -37.943  13.656  14.681  0.00  0.00    -0.286 OA
ENDROOT
BRANCH   1  15
ATOM     15  C   UNL d   1     -39.665  14.742  18.789  0.00  0.00     0.007 A 
ATOM     16  C   UNL d   1     -39.199  15.166  19.299  0.00  0.00     0.027 A 
ATOM     17  C   UNL d   1     -39.449  15.258  20.079  0.00  0.00     0.123 A 
ATOM     18  O   UNL d   1     -38.907  15.700  20.501  0.00  0.00    -0.303 OA
ATOM     19  C   UNL d   1     -40.147  14.928  20.328  0.00  0.00     0.123 A 
ATOM     20  C   UNL d   1     -38.935  15.921  21.283  0.00  0.00     0.125 A 
ATOM     21  C   UNL d   1     -39.517  15.752  21.840  0.00  0.00     0.053 A 
ATOM     22  C   UNL d   1     -40.217  15.315  21.740  0.00  0.00     0.125 A 
ATOM     23  O   UNL d   1     -40.495  14.950  21.067  0.00  0.00    -0.303 OA
ATOM     24  C   UNL d   1     -40.616  14.497  19.803  0.00  0.00     0.027 A 
ATOM     25  C   UNL d   1     -40.366  14.404  19.018  0.00  0.00     0.002 A 
ENDBRANCH   1  15
TORSDOF 1
ENDMDL
MODEL 7
REMARK VINA RESULT:      -6.7      8.839     10.677
REMARK  1 active torsions:
REMARK  status: ('A' for Active; 'I' for Inactive)
REMARK    1  A    between atoms: C_7  and  C_1 
ROOT
ATOM      1  C   UNL d   1     -39.500  14.699  18.642  0.00  0.00     0.062 A 
ATOM      2  C   UNL d   1     -39.028  14.984  19.251  0.00  0.00     0.202 A 
ATOM      3  C   UNL d   1     -39.342  15.221  19.965  0.00  0.00     0.101 A 
ATOM      4  C   UNL d   1     -40.326  14.651  18.759  0.00  0.00     0.103 A 
ATOM      5  C   UNL d   1     -40.169  15.173  20.082  0.00  0.00     0.109 A 
ATOM      6  O   UNL d   1     -40.660  14.889  19.483  0.00  0.00    -0.307 OA
ATOM      7  C   UNL d   1     -38.873  15.497  20.552  0.00  0.00     0.204 A 
ATOM      8  C   UNL d   1     -40.505  15.402  20.784  0.00  0.00     0.067 A 
ATOM      9  C   UNL d   1     -39.187  15.734  21.269  0.00  0.00     0.084 A 
ATOM     10  O   UNL d   1     -38.207  15.032  19.134  0.00  0.00    -0.286 OA
ATOM     11  C   UNL d   1     -40.013  15.687  21.386  0.00  0.00     0.201 A 
ATOM     12  O   UNL d   1     -38.052  15.544  20.435  0.00  0.00    -0.286 OA
ATOM     13  C   UNL d   1     -40.818  14.367  18.156  0.00  0.00     0.027 C 
ATOM     14  O   UNL d   1     -40.348  15.922  22.103  0.00  0.00    -0.286 OA
ENDROOT
BRANCH   1  15
ATOM     15  C   UNL d   1     -39.167  14.462  17.921  0.00  0.00     0.007 A 
ATOM     16  C   UNL d   1     -38.992  15.027  17.367  0.00  0.00     0.027 A 
ATOM     17  C   UNL d   1     -38.661  14.789  16.651  0.00  0.00     0.123 A 
ATOM     18  O   UNL d   1     -38.527  15.436  16.170  0.00  0.00    -0.303 OA
ATOM     19  C   UNL d   1     -38.514  14.005  16.507  0.00  0.00     0.123 A 
ATOM     20  C   UNL d   1     -38.209  15.453  15.422  0.00  0.00     0.125 A 
ATOM     21  C   UNL d   1     -37.946  14.821  14.966  0.00  0.00     0.053 A 
ATOM     22  C   UNL d   1     -37.940  14.012  15.159  0.00  0.00     0.125 A 
ATOM     23  O   UNL d   1     -38.192  13.652  15.844  0.00  0.00    -0.303 OA
ATOM     24  C   UNL d   1     -38.694  13.435  17.076  0.00  0.00     0.027 A 
ATOM     25  C   UNL d   1     -39.027  13.673  17.797  0.00  0.00     0.002 A 
ENDBRANCH   1  15
TORSDOF 1
ENDMDL
