MODEL 1
REMARK VINA RESULT:       1.6      0.000      0.000
REMARK  5 active torsions:
REMARK  status: ('A' for Active; 'I' for Inactive)
REMARK    1  A    between atoms: C_14  and  N_4 
REMARK    2  A    between atoms: C_15  and  C_9 
REMARK    3  A    between atoms: O_20  and  C_12 
REMARK    4  A    between atoms: O_21  and  C_13 
REMARK    5  A    between atoms: C_18  and  C_14 
ROOT
ATOM      1  C   UNL d   1      32.826  20.334 -22.263  0.00  0.00     0.056 A 
ATOM      2  C   UNL d   1      32.782  19.505 -22.259  0.00  0.00     0.107 A 
ATOM      3  C   UNL d   1      32.888  19.081 -22.956  0.00  0.00     0.038 A 
ATOM      4  N   UNL d   1      33.083  20.297 -23.665  0.00  0.00    -0.304 N 
ATOM      5  N   UNL d   1      32.626  19.268 -21.482  0.00  0.00    -0.148 NA
ATOM      6  C   UNL d   1      32.978  20.732 -22.970  0.00  0.00     0.083 A 
ATOM      7  N   UNL d   1      32.575  19.943 -21.010  0.00  0.00    -0.148 NA
ATOM      8  C   UNL d   1      33.039  19.480 -23.663  0.00  0.00     0.068 A 
ATOM      9  C   UNL d   1      32.698  20.604 -21.487  0.00  0.00     0.106 A 
ATOM     10  C   UNL d   1      33.144  19.051 -24.354  0.00  0.00     0.044 A 
ATOM     11  C   UNL d   1      32.843  18.259 -22.948  0.00  0.00     0.029 A 
ATOM     12  C   UNL d   1      33.100  18.234 -24.352  0.00  0.00     0.118 A 
ATOM     13  C   UNL d   1      32.949  17.835 -23.645  0.00  0.00     0.116 A 
ENDROOT
BRANCH   4  14
ATOM     14  C   UNL d   1      33.235  20.699 -24.378  0.00  0.00     0.080 C 
BRANCH  14  15
ATOM     15  C   UNL d   1      32.881  21.428 -24.524  0.00  0.00     0.018 A 
ATOM     16  C   UNL d   1      32.171  21.464 -24.938  0.00  0.00     0.002 A 
ATOM     17  C   UNL d   1      31.811  22.197 -25.087  0.00  0.00     0.000 A 
ATOM     18  C   UNL d   1      32.170  22.895 -24.817  0.00  0.00     0.000 A 
ATOM     19  C   UNL d   1      32.887  22.854 -24.400  0.00  0.00     0.000 A 
ATOM     20  C   UNL d   1      31.816  23.633 -24.962  0.00  0.00     0.000 C 
ATOM     21  C   UNL d   1      33.240  22.126 -24.254  0.00  0.00     0.002 A 
ENDBRANCH  14  15
ENDBRANCH   4  14
BRANCH   9  22
ATOM     22  C   UNL d   1      32.676  21.358 -21.154  0.00  0.00     0.020 A 
ATOM     23  C   UNL d   1      32.121  21.905 -21.420  0.00  0.00     0.004 A 
ATOM     24  C   UNL d   1      32.093  22.666 -21.090  0.00  0.00     0.030 A 
ATOM     25  C   UNL d   1      32.634  22.872 -20.485  0.00  0.00     0.140 A 
ATOM     26  C   UNL d   1      33.189  22.317 -20.223  0.00  0.00     0.030 A 
ATOM     27  F   UNL d   1      32.622  23.627 -20.143  0.00  0.00    -0.204 F 
ATOM     28  C   UNL d   1      33.210  21.563 -20.556  0.00  0.00     0.004 A 
ENDBRANCH   9  22
BRANCH  12  29
ATOM     29  O   UNL d   1      33.208  17.801 -25.059  0.00  0.00    -0.326 OA
ATOM     30  C   UNL d   1      33.106  16.980 -25.065  0.00  0.00     0.181 C 
ENDBRANCH  12  29
BRANCH  13  31
ATOM     31  O   UNL d   1      32.905  17.002 -23.643  0.00  0.00    -0.326 OA
ATOM     32  C   UNL d   1      32.660  16.603 -22.962  0.00  0.00     0.181 C 
ENDBRANCH  13  31
TORSDOF 5
ENDMDL
MODEL 2
REMARK VINA RESULT:       3.0      1.747      2.684
REMARK  5 active torsions:
REMARK  status: ('A' for Active; 'I' for Inactive)
REMARK    1  A    between atoms: C_14  and  N_4 
REMARK    2  A    between atoms: C_15  and  C_9 
REMARK    3  A    between atoms: O_20  and  C_12 
REMARK    4  A    between atoms: O_21  and  C_13 
REMARK    5  A    between atoms: C_18  and  C_14 
ROOT
ATOM      1  C   UNL d   1      32.729  19.100 -22.688  0.00  0.00     0.056 A 
ATOM      2  C   UNL d   1      32.955  18.381 -22.340  0.00  0.00     0.107 A 
ATOM      3  C   UNL d   1      32.871  17.676 -22.756  0.00  0.00     0.038 A 
ATOM      4  N   UNL d   1      32.339  18.391 -23.862  0.00  0.00    -0.304 N 
ATOM      5  N   UNL d   1      33.241  18.549 -21.583  0.00  0.00    -0.148 NA
ATOM      6  C   UNL d   1      32.419  19.105 -23.454  0.00  0.00     0.083 A 
ATOM      7  N   UNL d   1      33.192  19.365 -21.463  0.00  0.00    -0.148 NA
ATOM      8  C   UNL d   1      32.562  17.681 -23.521  0.00  0.00     0.068 A 
ATOM      9  C   UNL d   1      32.877  19.710 -22.142  0.00  0.00     0.106 A 
ATOM     10  C   UNL d   1      32.481  16.975 -23.929  0.00  0.00     0.044 A 
ATOM     11  C   UNL d   1      33.097  16.964 -22.407  0.00  0.00     0.029 A 
ATOM     12  C   UNL d   1      32.704  16.265 -23.588  0.00  0.00     0.118 A 
ATOM     13  C   UNL d   1      33.013  16.259 -22.823  0.00  0.00     0.116 A 
ENDROOT
BRANCH   4  14
ATOM     14  C   UNL d   1      32.027  18.396 -24.635  0.00  0.00     0.080 C 
BRANCH  14  15
ATOM     15  C   UNL d   1      31.214  18.460 -24.750  0.00  0.00     0.018 A 
ATOM     16  C   UNL d   1      30.878  19.195 -24.906  0.00  0.00     0.002 A 
ATOM     17  C   UNL d   1      30.059  19.263 -25.022  0.00  0.00     0.000 A 
ATOM     18  C   UNL d   1      29.579  18.587 -24.981  0.00  0.00     0.000 A 
ATOM     19  C   UNL d   1      29.923  17.848 -24.824  0.00  0.00     0.000 A 
ATOM     20  C   UNL d   1      28.759  18.647 -25.097  0.00  0.00     0.000 C 
ATOM     21  C   UNL d   1      30.735  17.784 -24.709  0.00  0.00     0.002 A 
ENDBRANCH  14  15
ENDBRANCH   4  14
BRANCH   9  22
ATOM     22  C   UNL d   1      32.767  20.526 -22.173  0.00  0.00     0.020 A 
ATOM     23  C   UNL d   1      33.219  20.979 -22.692  0.00  0.00     0.004 A 
ATOM     24  C   UNL d   1      33.114  21.801 -22.729  0.00  0.00     0.030 A 
ATOM     25  C   UNL d   1      32.546  22.166 -22.234  0.00  0.00     0.140 A 
ATOM     26  C   UNL d   1      32.096  21.704 -21.715  0.00  0.00     0.030 A 
ATOM     27  F   UNL d   1      32.427  22.985 -22.257  0.00  0.00    -0.204 F 
ATOM     28  C   UNL d   1      32.206  20.889 -21.684  0.00  0.00     0.004 A 
ENDBRANCH   9  22
BRANCH  12  29
ATOM     29  O   UNL d   1      32.620  15.547 -24.008  0.00  0.00    -0.326 OA
ATOM     30  C   UNL d   1      32.942  15.466 -24.765  0.00  0.00     0.181 C 
ENDBRANCH  12  29
BRANCH  13  31
ATOM     31  O   UNL d   1      33.240  15.536 -22.475  0.00  0.00    -0.326 OA
ATOM     32  C   UNL d   1      33.239  15.454 -21.653  0.00  0.00     0.181 C 
ENDBRANCH  13  31
TORSDOF 5
ENDMDL
