MODEL 1
REMARK VINA RESULT:      -3.7      0.000      0.000
REMARK  5 active torsions:
REMARK  status: ('A' for Active; 'I' for Inactive)
REMARK    1  A    between atoms: N_5  and  C_3 
REMARK    2  A    between atoms: O_13  and  C_4 
REMARK       I    between atoms: C_6  and  N_5 
REMARK    3  A    between atoms: C_9  and  C_6 
REMARK    4  A    between atoms: O_14  and  C_7 
REMARK    5  A    between atoms: O_18  and  C_15 
ROOT
ATOM      1  N   UNL d   1     -42.101-122.518 -51.538  0.00  0.00    -0.189 NA
ATOM      2  C   UNL d   1     -41.742-123.018 -52.100  0.00  0.00     0.281 C 
ATOM      3  O   UNL d   1     -41.486-123.788 -51.876  0.00  0.00    -0.265 OA
ENDROOT
BRANCH   1   4
ATOM      4  C   UNL d   1     -42.203-122.782 -50.762  0.00  0.00     0.173 A 
ATOM      5  N   UNL d   1     -42.901-123.176 -50.540  0.00  0.00    -0.186 NA
ATOM      6  C   UNL d   1     -42.995-123.436 -49.766  0.00  0.00     0.273 A 
ATOM      7  N   UNL d   1     -42.382-123.296 -49.216  0.00  0.00    -0.181 NA
ATOM      8  C   UNL d   1     -41.716-122.919 -49.427  0.00  0.00     0.185 A 
ATOM      9  C   UNL d   1     -41.605-122.650 -50.208  0.00  0.00     0.083 A 
BRANCH   6  10
ATOM     10  O   UNL d   1     -43.670-123.817 -49.552  0.00  0.00    -0.297 OA
ATOM     11  C   UNL d   1     -43.941-123.787 -48.788  0.00  0.00     0.185 C 
ENDBRANCH   6  10
BRANCH   8  12
ATOM     12  O   UNL d   1     -41.123-122.795 -48.855  0.00  0.00    -0.312 OA
ATOM     13  C   UNL d   1     -41.201-123.173 -48.115  0.00  0.00     0.183 C 
ENDBRANCH   8  12
ENDBRANCH   1   4
BRANCH   2  14
ATOM     14  C   UNL d   1     -41.647-122.743 -52.872  0.00  0.00     0.058 A 
ATOM     15  C   UNL d   1     -41.364-123.240 -53.469  0.00  0.00     0.007 A 
ATOM     16  C   UNL d   1     -41.271-122.976 -54.212  0.00  0.00     0.024 A 
ATOM     17  C   UNL d   1     -41.457-122.186 -54.418  0.00  0.00     0.094 A 
ATOM     18  C   UNL d   1     -41.739-121.682 -53.829  0.00  0.00     0.024 A 
ATOM     19  C   UNL d   1     -41.828-121.977 -53.065  0.00  0.00     0.007 A 
BRANCH  17  20
ATOM     20  O   UNL d   1     -41.365-121.906 -55.177  0.00  0.00    -0.328 OA
ATOM     21  C   UNL d   1     -41.989-121.911 -55.691  0.00  0.00     0.181 C 
ENDBRANCH  17  20
ENDBRANCH   2  14
TORSDOF 5
ENDMDL
MODEL 2
REMARK VINA RESULT:      -3.4      1.239      4.745
REMARK  5 active torsions:
REMARK  status: ('A' for Active; 'I' for Inactive)
REMARK    1  A    between atoms: N_5  and  C_3 
REMARK    2  A    between atoms: O_13  and  C_4 
REMARK       I    between atoms: C_6  and  N_5 
REMARK    3  A    between atoms: C_9  and  C_6 
REMARK    4  A    between atoms: O_14  and  C_7 
REMARK    5  A    between atoms: O_18  and  C_15 
ROOT
ATOM      1  N   UNL d   1     -42.285-122.908 -51.772  0.00  0.00    -0.189 NA
ATOM      2  C   UNL d   1     -41.809-122.597 -51.163  0.00  0.00     0.281 C 
ATOM      3  O   UNL d   1     -41.123-122.147 -51.352  0.00  0.00    -0.265 OA
ENDROOT
BRANCH   1   4
ATOM      4  C   UNL d   1     -42.080-122.773 -52.561  0.00  0.00     0.173 A 
ATOM      5  N   UNL d   1     -42.250-122.042 -52.919  0.00  0.00    -0.186 NA
ATOM      6  C   UNL d   1     -42.043-121.914 -53.704  0.00  0.00     0.273 A 
ATOM      7  N   UNL d   1     -41.664-122.527 -54.127  0.00  0.00    -0.181 NA
ATOM      8  C   UNL d   1     -41.502-123.225 -53.785  0.00  0.00     0.185 A 
ATOM      9  C   UNL d   1     -41.705-123.371 -52.990  0.00  0.00     0.083 A 
BRANCH   6  10
ATOM     10  O   UNL d   1     -42.207-121.207 -54.050  0.00  0.00    -0.297 OA
ATOM     11  C   UNL d   1     -42.685-121.166 -54.705  0.00  0.00     0.185 C 
ENDBRANCH   6  10
BRANCH   8  12
ATOM     12  O   UNL d   1     -41.123-123.817 -54.233  0.00  0.00    -0.312 OA
ATOM     13  C   UNL d   1     -41.188-123.787 -55.065  0.00  0.00     0.183 C 
ENDBRANCH   8  12
ENDBRANCH   1   4
BRANCH   2  14
ATOM     14  C   UNL d   1     -42.025-122.739 -50.379  0.00  0.00     0.058 A 
ATOM     15  C   UNL d   1     -41.468-122.998 -49.825  0.00  0.00     0.007 A 
ATOM     16  C   UNL d   1     -41.675-123.135 -49.071  0.00  0.00     0.024 A 
ATOM     17  C   UNL d   1     -42.463-123.023 -48.809  0.00  0.00     0.094 A 
ATOM     18  C   UNL d   1     -43.025-122.766 -49.355  0.00  0.00     0.024 A 
ATOM     19  C   UNL d   1     -42.789-122.630 -50.132  0.00  0.00     0.007 A 
BRANCH  17  20
ATOM     20  O   UNL d   1     -42.684-123.162 -48.038  0.00  0.00    -0.328 OA
ATOM     21  C   UNL d   1     -42.389-123.799 -47.638  0.00  0.00     0.181 C 
ENDBRANCH  17  20
ENDBRANCH   2  14
TORSDOF 5
ENDMDL
MODEL 3
REMARK VINA RESULT:      -3.2      1.281      4.807
REMARK  5 active torsions:
REMARK  status: ('A' for Active; 'I' for Inactive)
REMARK    1  A    between atoms: N_5  and  C_3 
REMARK    2  A    between atoms: O_13  and  C_4 
REMARK       I    between atoms: C_6  and  N_5 
REMARK    3  A    between atoms: C_9  and  C_6 
REMARK    4  A    between atoms: O_14  and  C_7 
REMARK    5  A    between atoms: O_18  and  C_15 
ROOT
ATOM      1  N   UNL d   1     -42.170-123.117 -51.296  0.00  0.00    -0.189 NA
ATOM      2  C   UNL d   1     -41.806-122.727 -50.655  0.00  0.00     0.281 C 
ATOM      3  O   UNL d   1     -41.232-122.127 -50.798  0.00  0.00    -0.265 OA
ENDROOT
BRANCH   1   4
ATOM      4  C   UNL d   1     -41.966-122.912 -52.069  0.00  0.00     0.173 A 
ATOM      5  N   UNL d   1     -41.639-123.480 -52.582  0.00  0.00    -0.186 NA
ATOM      6  C   UNL d   1     -41.438-123.268 -53.350  0.00  0.00     0.273 A 
ATOM      7  N   UNL d   1     -41.568-122.482 -53.600  0.00  0.00    -0.181 NA
ATOM      8  C   UNL d   1     -41.879-121.940 -53.110  0.00  0.00     0.185 A 
ATOM      9  C   UNL d   1     -42.088-122.137 -52.328  0.00  0.00     0.083 A 
BRANCH   6  10
ATOM     10  O   UNL d   1     -41.123-123.817 -53.846  0.00  0.00    -0.297 OA
ATOM     11  C   UNL d   1     -41.305-123.817 -54.636  0.00  0.00     0.185 C 
ENDBRANCH   6  10
BRANCH   8  12
ATOM     12  O   UNL d   1     -41.996-121.162 -53.388  0.00  0.00    -0.312 OA
ATOM     13  C   UNL d   1     -42.240-121.058 -54.180  0.00  0.00     0.183 C 
ENDBRANCH   8  12
ENDBRANCH   1   4
BRANCH   2  14
ATOM     14  C   UNL d   1     -42.019-122.941 -49.887  0.00  0.00     0.058 A 
ATOM     15  C   UNL d   1     -42.722-122.668 -49.549  0.00  0.00     0.007 A 
ATOM     16  C   UNL d   1     -42.928-122.873 -48.810  0.00  0.00     0.024 A 
ATOM     17  C   UNL d   1     -42.440-123.374 -48.347  0.00  0.00     0.094 A 
ATOM     18  C   UNL d   1     -41.737-123.652 -48.677  0.00  0.00     0.024 A 
ATOM     19  C   UNL d   1     -41.543-123.426 -49.444  0.00  0.00     0.007 A 
BRANCH  17  20
ATOM     20  O   UNL d   1     -42.644-123.590 -47.589  0.00  0.00    -0.328 OA
ATOM     21  C   UNL d   1     -42.488-123.095 -46.969  0.00  0.00     0.181 C 
ENDBRANCH  17  20
ENDBRANCH   2  14
TORSDOF 5
ENDMDL
