MODEL 1
REMARK VINA RESULT:      -2.7      0.000      0.000
REMARK  3 active torsions:
REMARK  status: ('A' for Active; 'I' for Inactive)
REMARK    1  A    between atoms: C_10  and  C_5 
REMARK    2  A    between atoms: S_9  and  C_10 
REMARK    3  A    between atoms: C_11  and  S_9 
ROOT
ATOM      1  C   UNL d   1      32.515  21.522 -21.051  0.00  0.00     0.179 A 
ATOM      2  N   UNL d   1      32.897  21.806 -21.721  0.00  0.00    -0.283 N 
ATOM      3  N   UNL d   1      32.513  20.708 -21.094  0.00  0.00    -0.220 NA
ATOM      4  S   UNL d   1      32.286  22.166 -20.606  0.00  0.00    -0.048 SA
ATOM      5  C   UNL d   1      32.892  20.480 -21.785  0.00  0.00     0.107 A 
ATOM      6  C   UNL d   1      33.130  21.166 -22.173  0.00  0.00     0.102 A 
ATOM      7  C   UNL d   1      32.902  22.623 -21.685  0.00  0.00     0.073 A 
ATOM      8  C   UNL d   1      32.524  22.831 -20.997  0.00  0.00     0.056 A 
ATOM      9  C   UNL d   1      33.234  23.137 -22.251  0.00  0.00     0.020 C 
ENDROOT
BRANCH   5  10
ATOM     10  C   UNL d   1      33.007  19.693 -22.034  0.00  0.00     0.056 C 
BRANCH  10  11
ATOM     11  S   UNL d   1      33.076  19.543 -22.841  0.00  0.00    -0.085 SA
BRANCH  11  12
ATOM     12  C   UNL d   1      33.010  18.772 -23.116  0.00  0.00     0.030 A 
ATOM     13  C   UNL d   1      33.238  18.129 -22.638  0.00  0.00     0.007 A 
ATOM     14  C   UNL d   1      33.172  17.361 -22.912  0.00  0.00     0.012 A 
ATOM     15  C   UNL d   1      32.877  17.222 -23.670  0.00  0.00     0.058 A 
ATOM     16  C   UNL d   1      32.646  17.850 -24.156  0.00  0.00     0.012 A 
ATOM     17 CL   UNL d   1      32.806  16.464 -23.957  0.00  0.00    -0.082 Cl
ATOM     18  C   UNL d   1      32.713  18.638 -23.875  0.00  0.00     0.007 A 
ENDBRANCH  11  12
ENDBRANCH  10  11
ENDBRANCH   5  10
TORSDOF 3
ENDMDL
MODEL 2
REMARK VINA RESULT:      -2.6      2.244      4.642
REMARK  3 active torsions:
REMARK  status: ('A' for Active; 'I' for Inactive)
REMARK    1  A    between atoms: C_10  and  C_5 
REMARK    2  A    between atoms: S_9  and  C_10 
REMARK    3  A    between atoms: C_11  and  S_9 
ROOT
ATOM      1  C   UNL d   1      32.237  17.873 -23.850  0.00  0.00     0.179 A 
ATOM      2  N   UNL d   1      32.807  17.505 -23.385  0.00  0.00    -0.283 N 
ATOM      3  N   UNL d   1      32.288  18.675 -23.714  0.00  0.00    -0.220 NA
ATOM      4  S   UNL d   1      31.844  17.291 -24.265  0.00  0.00    -0.048 SA
ATOM      5  C   UNL d   1      32.884  18.812 -23.168  0.00  0.00     0.107 A 
ATOM      6  C   UNL d   1      33.205  18.082 -22.965  0.00  0.00     0.102 A 
ATOM      7  C   UNL d   1      32.761  16.699 -23.516  0.00  0.00     0.073 A 
ATOM      8  C   UNL d   1      32.168  16.581 -24.057  0.00  0.00     0.056 A 
ATOM      9  C   UNL d   1      33.238  16.117 -23.157  0.00  0.00     0.020 C 
ENDROOT
BRANCH   5  10
ATOM     10  C   UNL d   1      33.111  19.562 -22.881  0.00  0.00     0.056 C 
BRANCH  10  11
ATOM     11  S   UNL d   1      32.986  19.731 -22.085  0.00  0.00    -0.085 SA
BRANCH  11  12
ATOM     12  C   UNL d   1      32.930  20.514 -21.842  0.00  0.00     0.030 A 
ATOM     13  C   UNL d   1      32.566  20.709 -21.118  0.00  0.00     0.007 A 
ATOM     14  C   UNL d   1      32.511  21.488 -20.876  0.00  0.00     0.012 A 
ATOM     15  C   UNL d   1      32.819  22.087 -21.353  0.00  0.00     0.058 A 
ATOM     16  C   UNL d   1      33.184  21.909 -22.074  0.00  0.00     0.012 A 
ATOM     17 CL   UNL d   1      32.772  22.867 -21.125  0.00  0.00    -0.082 Cl
ATOM     18  C   UNL d   1      33.241  21.109 -22.322  0.00  0.00     0.007 A 
ENDBRANCH  11  12
ENDBRANCH  10  11
ENDBRANCH   5  10
TORSDOF 3
ENDMDL
