MODEL 1
REMARK VINA RESULT:      -6.3      0.000      0.000
REMARK  7 active torsions:
REMARK  status: ('A' for Active; 'I' for Inactive)
REMARK    1  A    between atoms: C_6  and  N_2 
REMARK    2  A    between atoms: C_7  and  C_3 
REMARK    3  A    between atoms: C_15  and  C_6 
REMARK    4  A    between atoms: C_21  and  C_7 
REMARK    5  A    between atoms: C_8  and  O_14 
REMARK    6  A    between atoms: O_14  and  C_15 
REMARK    7  A    between atoms: C_19  and  C_21 
ROOT
ATOM      1  N   UNL d   1     -46.448  12.024  23.278  0.00  0.00    -0.227 NA
ATOM      2  N   UNL d   1     -47.013  12.970  22.480  0.00  0.00    -0.287 N 
ATOM      3  C   UNL d   1     -47.169  12.387  23.058  0.00  0.00     0.148 A 
ATOM      4  C   UNL d   1     -46.187  12.965  22.341  0.00  0.00     0.083 A 
ATOM      5  C   UNL d   1     -45.846  12.390  22.827  0.00  0.00     0.099 A 
ATOM      6  C   UNL d   1     -45.705  13.412  21.835  0.00  0.00     0.019 A 
ATOM      7  C   UNL d   1     -45.031  12.259  22.811  0.00  0.00     0.021 A 
ATOM      8  C   UNL d   1     -44.891  13.281  21.818  0.00  0.00     0.002 A 
ATOM      9  C   UNL d   1     -44.554  12.705  22.306  0.00  0.00     0.002 A 
ENDROOT
BRANCH   2  10
ATOM     10  C   UNL d   1     -47.562  13.458  22.112  0.00  0.00     0.108 C 
BRANCH  10  11
ATOM     11  C   UNL d   1     -48.000  14.007  22.556  0.00  0.00     0.142 C 
BRANCH  11  12
ATOM     12  O   UNL d   1     -48.441  14.583  22.172  0.00  0.00    -0.304 OA
BRANCH  12  13
ATOM     13  C   UNL d   1     -49.095  14.916  22.543  0.00  0.00     0.100 A 
ATOM     14  C   UNL d   1     -49.856  14.702  22.301  0.00  0.00     0.025 A 
ATOM     15  C   UNL d   1     -50.510  15.036  22.672  0.00  0.00     0.002 A 
ATOM     16  C   UNL d   1     -50.407  15.586  23.288  0.00  0.00     0.000 A 
ATOM     17  C   UNL d   1     -49.640  15.795  23.524  0.00  0.00     0.002 A 
ATOM     18  C   UNL d   1     -51.064  15.916  23.655  0.00  0.00     0.000 C 
ATOM     19  C   UNL d   1     -48.985  15.458  23.150  0.00  0.00     0.025 A 
ENDBRANCH  12  13
ENDBRANCH  11  12
ENDBRANCH  10  11
ENDBRANCH   2  10
BRANCH   3  20
ATOM     20  C   UNL d   1     -47.646  11.941  23.563  0.00  0.00     0.041 C 
BRANCH  20  21
ATOM     21  C   UNL d   1     -48.258  11.484  23.251  0.00  0.00     0.049 C 
BRANCH  21  22
ATOM     22  C   UNL d   1     -48.944  11.361  23.692  0.00  0.00     0.234 C 
ATOM     23  O   UNL d   1     -49.616  11.049  23.332  0.00  0.00    -0.283 OA
ENDBRANCH  21  22
ENDBRANCH  20  21
ENDBRANCH   3  20
TORSDOF 7
ENDMDL
MODEL 2
REMARK VINA RESULT:      -5.9      1.245      4.309
REMARK  7 active torsions:
REMARK  status: ('A' for Active; 'I' for Inactive)
REMARK    1  A    between atoms: C_6  and  N_2 
REMARK    2  A    between atoms: C_7  and  C_3 
REMARK    3  A    between atoms: C_15  and  C_6 
REMARK    4  A    between atoms: C_21  and  C_7 
REMARK    5  A    between atoms: C_8  and  O_14 
REMARK    6  A    between atoms: O_14  and  C_15 
REMARK    7  A    between atoms: C_19  and  C_21 
ROOT
ATOM      1  N   UNL d   1     -50.294  13.439  22.527  0.00  0.00    -0.227 NA
ATOM      2  N   UNL d   1     -49.186  13.950  23.130  0.00  0.00    -0.287 N 
ATOM      3  C   UNL d   1     -49.533  13.255  22.823  0.00  0.00     0.148 A 
ATOM      4  C   UNL d   1     -49.740  14.570  23.023  0.00  0.00     0.083 A 
ATOM      5  C   UNL d   1     -50.412  14.257  22.657  0.00  0.00     0.099 A 
ATOM      6  C   UNL d   1     -49.716  15.376  23.213  0.00  0.00     0.019 A 
ATOM      7  C   UNL d   1     -51.056  14.742  22.479  0.00  0.00     0.021 A 
ATOM      8  C   UNL d   1     -50.359  15.862  23.036  0.00  0.00     0.002 A 
ATOM      9  C   UNL d   1     -51.029  15.545  22.670  0.00  0.00     0.002 A 
ENDROOT
BRANCH   2  10
ATOM     10  C   UNL d   1     -48.444  14.019  23.474  0.00  0.00     0.108 C 
BRANCH  10  11
ATOM     11  C   UNL d   1     -47.758  13.947  23.011  0.00  0.00     0.142 C 
BRANCH  11  12
ATOM     12  O   UNL d   1     -47.020  13.957  23.371  0.00  0.00    -0.304 OA
BRANCH  12  13
ATOM     13  C   UNL d   1     -46.367  13.647  22.979  0.00  0.00     0.100 A 
ATOM     14  C   UNL d   1     -46.165  12.852  23.086  0.00  0.00     0.025 A 
ATOM     15  C   UNL d   1     -45.511  12.542  22.694  0.00  0.00     0.002 A 
ATOM     16  C   UNL d   1     -45.057  13.024  22.191  0.00  0.00     0.000 A 
ATOM     17  C   UNL d   1     -45.267  13.820  22.089  0.00  0.00     0.002 A 
ATOM     18  C   UNL d   1     -44.405  12.709  21.801  0.00  0.00     0.000 C 
ATOM     19  C   UNL d   1     -45.923  14.128  22.484  0.00  0.00     0.025 A 
ENDBRANCH  12  13
ENDBRANCH  11  12
ENDBRANCH  10  11
ENDBRANCH   2  10
BRANCH   3  20
ATOM     20  C   UNL d   1     -49.560  12.452  22.632  0.00  0.00     0.041 C 
BRANCH  20  21
ATOM     21  C   UNL d   1     -49.719  11.896  23.222  0.00  0.00     0.049 C 
BRANCH  21  22
ATOM     22  C   UNL d   1     -49.510  11.106  23.107  0.00  0.00     0.234 C 
ATOM     23  O   UNL d   1     -49.111  10.695  23.698  0.00  0.00    -0.283 OA
ENDBRANCH  21  22
ENDBRANCH  20  21
ENDBRANCH   3  20
TORSDOF 7
ENDMDL
MODEL 3
REMARK VINA RESULT:      -5.4      8.997     10.170
REMARK  7 active torsions:
REMARK  status: ('A' for Active; 'I' for Inactive)
REMARK    1  A    between atoms: C_6  and  N_2 
REMARK    2  A    between atoms: C_7  and  C_3 
REMARK    3  A    between atoms: C_15  and  C_6 
REMARK    4  A    between atoms: C_21  and  C_7 
REMARK    5  A    between atoms: C_8  and  O_14 
REMARK    6  A    between atoms: O_14  and  C_15 
REMARK    7  A    between atoms: C_19  and  C_21 
ROOT
ATOM      1  N   UNL d   1     -39.452  14.215  17.070  0.00  0.00    -0.227 NA
ATOM      2  N   UNL d   1     -39.218  14.894  18.225  0.00  0.00    -0.287 N 
ATOM      3  C   UNL d   1     -38.926  14.301  17.715  0.00  0.00     0.148 A 
ATOM      4  C   UNL d   1     -39.931  15.178  17.891  0.00  0.00     0.083 A 
ATOM      5  C   UNL d   1     -40.072  14.764  17.189  0.00  0.00     0.099 A 
ATOM      6  C   UNL d   1     -40.469  15.759  18.138  0.00  0.00     0.019 A 
ATOM      7  C   UNL d   1     -40.742  14.926  16.735  0.00  0.00     0.021 A 
ATOM      8  C   UNL d   1     -41.139  15.922  17.684  0.00  0.00     0.002 A 
ATOM      9  C   UNL d   1     -41.275  15.505  16.983  0.00  0.00     0.002 A 
ENDROOT
BRANCH   2  10
ATOM     10  C   UNL d   1     -38.874  15.155  18.925  0.00  0.00     0.108 C 
BRANCH  10  11
ATOM     11  C   UNL d   1     -38.972  14.724  19.628  0.00  0.00     0.142 C 
BRANCH  11  12
ATOM     12  O   UNL d   1     -38.646  15.004  20.327  0.00  0.00    -0.304 OA
BRANCH  12  13
ATOM     13  C   UNL d   1     -38.675  14.543  21.007  0.00  0.00     0.100 A 
ATOM     14  C   UNL d   1     -38.029  14.067  21.206  0.00  0.00     0.025 A 
ATOM     15  C   UNL d   1     -38.057  13.606  21.887  0.00  0.00     0.002 A 
ATOM     16  C   UNL d   1     -38.732  13.618  22.374  0.00  0.00     0.000 A 
ATOM     17  C   UNL d   1     -39.375  14.099  22.167  0.00  0.00     0.002 A 
ATOM     18  C   UNL d   1     -38.755  13.156  23.053  0.00  0.00     0.000 C 
ATOM     19  C   UNL d   1     -39.344  14.561  21.483  0.00  0.00     0.025 A 
ENDBRANCH  12  13
ENDBRANCH  11  12
ENDBRANCH  10  11
ENDBRANCH   2  10
BRANCH   3  20
ATOM     20  C   UNL d   1     -38.393  13.721  17.467  0.00  0.00     0.041 C 
BRANCH  20  21
ATOM     21  C   UNL d   1     -38.536  12.929  17.646  0.00  0.00     0.049 C 
BRANCH  21  22
ATOM     22  C   UNL d   1     -37.955  12.362  17.493  0.00  0.00     0.234 C 
ATOM     23  O   UNL d   1     -38.072  11.580  17.721  0.00  0.00    -0.283 OA
ENDBRANCH  21  22
ENDBRANCH  20  21
ENDBRANCH   3  20
TORSDOF 7
ENDMDL
MODEL 4
REMARK VINA RESULT:      -5.3      1.369      4.566
REMARK  7 active torsions:
REMARK  status: ('A' for Active; 'I' for Inactive)
REMARK    1  A    between atoms: C_6  and  N_2 
REMARK    2  A    between atoms: C_7  and  C_3 
REMARK    3  A    between atoms: C_15  and  C_6 
REMARK    4  A    between atoms: C_21  and  C_7 
REMARK    5  A    between atoms: C_8  and  O_14 
REMARK    6  A    between atoms: O_14  and  C_15 
REMARK    7  A    between atoms: C_19  and  C_21 
ROOT
ATOM      1  N   UNL d   1     -49.617  13.417  22.779  0.00  0.00    -0.227 NA
ATOM      2  N   UNL d   1     -48.395  13.191  23.334  0.00  0.00    -0.287 N 
ATOM      3  C   UNL d   1     -48.876  13.762  22.959  0.00  0.00     0.148 A 
ATOM      4  C   UNL d   1     -48.844  12.486  23.386  0.00  0.00     0.083 A 
ATOM      5  C   UNL d   1     -49.586  12.625  23.048  0.00  0.00     0.099 A 
ATOM      6  C   UNL d   1     -48.671  11.737  23.698  0.00  0.00     0.019 A 
ATOM      7  C   UNL d   1     -50.152  12.025  23.020  0.00  0.00     0.021 A 
ATOM      8  C   UNL d   1     -49.236  11.137  23.670  0.00  0.00     0.002 A 
ATOM      9  C   UNL d   1     -49.977  11.281  23.331  0.00  0.00     0.002 A 
ENDROOT
BRANCH   2  10
ATOM     10  C   UNL d   1     -47.626  13.296  23.604  0.00  0.00     0.108 C 
BRANCH  10  11
ATOM     11  C   UNL d   1     -46.985  13.230  23.080  0.00  0.00     0.142 C 
BRANCH  11  12
ATOM     12  O   UNL d   1     -46.224  13.147  23.376  0.00  0.00    -0.304 OA
BRANCH  12  13
ATOM     13  C   UNL d   1     -45.594  13.022  22.862  0.00  0.00     0.100 A 
ATOM     14  C   UNL d   1     -45.415  13.591  22.288  0.00  0.00     0.025 A 
ATOM     15  C   UNL d   1     -44.785  13.466  21.774  0.00  0.00     0.002 A 
ATOM     16  C   UNL d   1     -44.330  12.772  21.830  0.00  0.00     0.000 A 
ATOM     17  C   UNL d   1     -44.516  12.207  22.407  0.00  0.00     0.002 A 
ATOM     18  C   UNL d   1     -43.701  12.653  21.313  0.00  0.00     0.000 C 
ATOM     19  C   UNL d   1     -45.149  12.335  22.922  0.00  0.00     0.025 A 
ENDBRANCH  12  13
ENDBRANCH  11  12
ENDBRANCH  10  11
ENDBRANCH   2  10
BRANCH   3  20
ATOM     20  C   UNL d   1     -49.052  14.506  22.648  0.00  0.00     0.041 C 
BRANCH  20  21
ATOM     21  C   UNL d   1     -49.375  15.089  23.136  0.00  0.00     0.049 C 
BRANCH  21  22
ATOM     22  C   UNL d   1     -49.812  15.705  22.804  0.00  0.00     0.234 C 
ATOM     23  O   UNL d   1     -50.535  15.922  23.133  0.00  0.00    -0.283 OA
ENDBRANCH  21  22
ENDBRANCH  20  21
ENDBRANCH   3  20
TORSDOF 7
ENDMDL
MODEL 5
REMARK VINA RESULT:      -4.9      8.933     10.030
REMARK  7 active torsions:
REMARK  status: ('A' for Active; 'I' for Inactive)
REMARK    1  A    between atoms: C_6  and  N_2 
REMARK    2  A    between atoms: C_7  and  C_3 
REMARK    3  A    between atoms: C_15  and  C_6 
REMARK    4  A    between atoms: C_21  and  C_7 
REMARK    5  A    between atoms: C_8  and  O_14 
REMARK    6  A    between atoms: O_14  and  C_15 
REMARK    7  A    between atoms: C_19  and  C_21 
ROOT
ATOM      1  N   UNL d   1     -39.508  14.279  16.906  0.00  0.00    -0.227 NA
ATOM      2  N   UNL d   1     -38.944  14.847  18.007  0.00  0.00    -0.287 N 
ATOM      3  C   UNL d   1     -39.468  14.975  17.369  0.00  0.00     0.148 A 
ATOM      4  C   UNL d   1     -38.656  14.063  17.936  0.00  0.00     0.083 A 
ATOM      5  C   UNL d   1     -39.000  13.720  17.267  0.00  0.00     0.099 A 
ATOM      6  C   UNL d   1     -38.127  13.621  18.396  0.00  0.00     0.019 A 
ATOM      7  C   UNL d   1     -38.820  12.943  17.056  0.00  0.00     0.021 A 
ATOM      8  C   UNL d   1     -37.945  12.844  18.186  0.00  0.00     0.002 A 
ATOM      9  C   UNL d   1     -38.292  12.505  17.516  0.00  0.00     0.002 A 
ENDROOT
BRANCH   2  10
ATOM     10  C   UNL d   1     -38.743  15.384  18.595  0.00  0.00     0.108 C 
BRANCH  10  11
ATOM     11  C   UNL d   1     -39.090  15.331  19.349  0.00  0.00     0.142 C 
BRANCH  11  12
ATOM     12  O   UNL d   1     -38.953  15.921  19.902  0.00  0.00    -0.304 OA
BRANCH  12  13
ATOM     13  C   UNL d   1     -38.975  15.744  20.705  0.00  0.00     0.100 A 
ATOM     14  C   UNL d   1     -39.653  15.401  21.031  0.00  0.00     0.025 A 
ATOM     15  C   UNL d   1     -39.674  15.225  21.834  0.00  0.00     0.002 A 
ATOM     16  C   UNL d   1     -39.018  15.390  22.317  0.00  0.00     0.000 A 
ATOM     17  C   UNL d   1     -38.341  15.734  21.983  0.00  0.00     0.002 A 
ATOM     18  C   UNL d   1     -39.044  15.212  23.119  0.00  0.00     0.000 C 
ATOM     19  C   UNL d   1     -38.323  15.910  21.176  0.00  0.00     0.025 A 
ENDBRANCH  12  13
ENDBRANCH  11  12
ENDBRANCH  10  11
ENDBRANCH   2  10
BRANCH   3  20
ATOM     20  C   UNL d   1     -39.996  15.412  16.910  0.00  0.00     0.041 C 
BRANCH  20  21
ATOM     21  C   UNL d   1     -40.796  15.432  17.111  0.00  0.00     0.049 C 
BRANCH  21  22
ATOM     22  C   UNL d   1     -41.312  15.921  16.692  0.00  0.00     0.234 C 
ATOM     23  O   UNL d   1     -42.125  15.801  16.742  0.00  0.00    -0.283 OA
ENDBRANCH  21  22
ENDBRANCH  20  21
ENDBRANCH   3  20
TORSDOF 7
ENDMDL
MODEL 6
REMARK VINA RESULT:      -3.9      1.874      2.672
REMARK  7 active torsions:
REMARK  status: ('A' for Active; 'I' for Inactive)
REMARK    1  A    between atoms: C_6  and  N_2 
REMARK    2  A    between atoms: C_7  and  C_3 
REMARK    3  A    between atoms: C_15  and  C_6 
REMARK    4  A    between atoms: C_21  and  C_7 
REMARK    5  A    between atoms: C_8  and  O_14 
REMARK    6  A    between atoms: O_14  and  C_15 
REMARK    7  A    between atoms: C_19  and  C_21 
ROOT
ATOM      1  N   UNL d   1     -45.386  12.140  23.184  0.00  0.00    -0.227 NA
ATOM      2  N   UNL d   1     -46.713  12.347  23.406  0.00  0.00    -0.287 N 
ATOM      3  C   UNL d   1     -46.088  11.797  23.484  0.00  0.00     0.148 A 
ATOM      4  C   UNL d   1     -46.393  13.036  23.054  0.00  0.00     0.083 A 
ATOM      5  C   UNL d   1     -45.587  12.908  22.920  0.00  0.00     0.099 A 
ATOM      6  C   UNL d   1     -46.733  13.761  22.839  0.00  0.00     0.019 A 
ATOM      7  C   UNL d   1     -45.121  13.496  22.575  0.00  0.00     0.021 A 
ATOM      8  C   UNL d   1     -46.268  14.350  22.494  0.00  0.00     0.002 A 
ATOM      9  C   UNL d   1     -45.463  14.217  22.362  0.00  0.00     0.002 A 
ENDROOT
BRANCH   2  10
ATOM     10  C   UNL d   1     -47.496  12.238  23.630  0.00  0.00     0.108 C 
BRANCH  10  11
ATOM     11  C   UNL d   1     -48.076  12.062  23.061  0.00  0.00     0.142 C 
BRANCH  11  12
ATOM     12  O   UNL d   1     -48.870  12.104  23.263  0.00  0.00    -0.304 OA
BRANCH  12  13
ATOM     13  C   UNL d   1     -49.417  12.395  22.721  0.00  0.00     0.100 A 
ATOM     14  C   UNL d   1     -50.094  12.784  22.993  0.00  0.00     0.025 A 
ATOM     15  C   UNL d   1     -50.641  13.075  22.452  0.00  0.00     0.002 A 
ATOM     16  C   UNL d   1     -50.515  12.978  21.635  0.00  0.00     0.000 A 
ATOM     17  C   UNL d   1     -49.833  12.587  21.371  0.00  0.00     0.002 A 
ATOM     18  C   UNL d   1     -51.064  13.271  21.098  0.00  0.00     0.000 C 
ATOM     19  C   UNL d   1     -49.285  12.296  21.917  0.00  0.00     0.025 A 
ENDBRANCH  12  13
ENDBRANCH  11  12
ENDBRANCH  10  11
ENDBRANCH   2  10
BRANCH   3  20
ATOM     20  C   UNL d   1     -45.747  11.077  23.697  0.00  0.00     0.041 C 
BRANCH  20  21
ATOM     21  C   UNL d   1     -44.998  10.878  23.413  0.00  0.00     0.049 C 
BRANCH  21  22
ATOM     22  C   UNL d   1     -44.687  10.129  23.565  0.00  0.00     0.234 C 
ATOM     23  O   UNL d   1     -43.883   9.988  23.461  0.00  0.00    -0.283 OA
ENDBRANCH  21  22
ENDBRANCH  20  21
ENDBRANCH   3  20
TORSDOF 7
ENDMDL
