MODEL 1
REMARK VINA RESULT:      -8.1      0.000      0.000
REMARK  3 active torsions:
REMARK  status: ('A' for Active; 'I' for Inactive)
REMARK    1  A    between atoms: C_4  and  C_1 
REMARK    2  A    between atoms: N_7  and  C_4 
REMARK    3  A    between atoms: C_9  and  N_7 
ROOT
ATOM      1  C   UNL d   1      53.394  32.596  53.478  0.00  0.00     0.159 C 
ATOM      2  S   UNL d   1      54.141  32.918  53.338  0.00  0.00    -0.055 SA
ENDROOT
BRANCH   1   3
ATOM      3  C   UNL d   1      53.301  31.777  53.519  0.00  0.00     0.139 A 
ATOM      4  N   UNL d   1      53.631  31.285  54.095  0.00  0.00    -0.236 NA
ATOM      5  C   UNL d   1      53.399  30.508  53.927  0.00  0.00     0.088 A 
ATOM      6  C   UNL d   1      53.553  29.787  54.299  0.00  0.00     0.020 A 
ATOM      7  C   UNL d   1      52.926  30.527  53.246  0.00  0.00     0.049 A 
ATOM      8  C   UNL d   1      53.240  29.093  53.998  0.00  0.00     0.002 A 
ATOM      9  C   UNL d   1      52.767  29.112  53.318  0.00  0.00     0.001 A 
ATOM     10  C   UNL d   1      52.611  29.825  52.945  0.00  0.00     0.008 A 
ATOM     11  S   UNL d   1      52.869  31.315  52.999  0.00  0.00    -0.064 SA
ENDBRANCH   1   3
BRANCH   1  12
ATOM     12  N   UNL d   1      52.741  33.087  53.575  0.00  0.00    -0.233 NA
BRANCH  12  13
ATOM     13  C   UNL d   1      52.846  33.866  53.841  0.00  0.00     0.082 A 
ATOM     14  C   UNL d   1      52.754  34.494  53.318  0.00  0.00     0.020 A 
ATOM     15  C   UNL d   1      52.857  35.268  53.573  0.00  0.00     0.013 A 
ATOM     16  C   UNL d   1      53.054  35.411  54.369  0.00  0.00     0.058 A 
ATOM     17  C   UNL d   1      53.147  34.781  54.896  0.00  0.00     0.013 A 
ATOM     18 CL   UNL d   1      53.158  36.181  54.632  0.00  0.00    -0.082 Cl
ATOM     19  C   UNL d   1      53.041  34.010  54.624  0.00  0.00     0.020 A 
ENDBRANCH  12  13
ENDBRANCH   1  12
TORSDOF 3
ENDMDL
MODEL 2
REMARK VINA RESULT:      -8.0      2.646      3.577
REMARK  3 active torsions:
REMARK  status: ('A' for Active; 'I' for Inactive)
REMARK    1  A    between atoms: C_4  and  C_1 
REMARK    2  A    between atoms: N_7  and  C_4 
REMARK    3  A    between atoms: C_9  and  N_7 
ROOT
ATOM      1  C   UNL d   1      51.790  33.621  53.285  0.00  0.00     0.159 C 
ATOM      2  S   UNL d   1      51.290  32.965  53.242  0.00  0.00    -0.055 SA
ENDROOT
BRANCH   1   3
ATOM      3  C   UNL d   1      52.526  33.552  53.652  0.00  0.00     0.139 A 
ATOM      4  N   UNL d   1      52.747  33.918  54.359  0.00  0.00    -0.236 NA
ATOM      5  C   UNL d   1      53.527  33.698  54.525  0.00  0.00     0.088 A 
ATOM      6  C   UNL d   1      54.040  33.886  55.144  0.00  0.00     0.020 A 
ATOM      7  C   UNL d   1      53.783  33.196  53.917  0.00  0.00     0.049 A 
ATOM      8  C   UNL d   1      54.799  33.578  55.159  0.00  0.00     0.002 A 
ATOM      9  C   UNL d   1      55.055  33.076  54.551  0.00  0.00     0.001 A 
ATOM     10  C   UNL d   1      54.550  32.887  53.934  0.00  0.00     0.008 A 
ATOM     11  S   UNL d   1      53.159  33.109  53.380  0.00  0.00    -0.064 SA
ENDBRANCH   1   3
BRANCH   1  12
ATOM     12  N   UNL d   1      51.558  34.342  52.965  0.00  0.00    -0.233 NA
BRANCH  12  13
ATOM     13  C   UNL d   1      50.845  34.398  52.545  0.00  0.00     0.082 A 
ATOM     14  C   UNL d   1      50.154  34.611  52.937  0.00  0.00     0.020 A 
ATOM     15  C   UNL d   1      49.443  34.669  52.530  0.00  0.00     0.013 A 
ATOM     16  C   UNL d   1      49.430  34.509  51.713  0.00  0.00     0.058 A 
ATOM     17  C   UNL d   1      50.123  34.296  51.317  0.00  0.00     0.013 A 
ATOM     18 CL   UNL d   1      48.724  34.565  51.298  0.00  0.00    -0.082 Cl
ATOM     19  C   UNL d   1      50.828  34.242  51.741  0.00  0.00     0.020 A 
ENDBRANCH  12  13
ENDBRANCH   1  12
TORSDOF 3
ENDMDL
MODEL 3
REMARK VINA RESULT:      -7.9      2.318      4.381
REMARK  3 active torsions:
REMARK  status: ('A' for Active; 'I' for Inactive)
REMARK    1  A    between atoms: C_4  and  C_1 
REMARK    2  A    between atoms: N_7  and  C_4 
REMARK    3  A    between atoms: C_9  and  N_7 
ROOT
ATOM      1  C   UNL d   1      52.835  32.517  53.109  0.00  0.00     0.159 C 
ATOM      2  S   UNL d   1      53.375  32.729  53.697  0.00  0.00    -0.055 SA
ENDROOT
BRANCH   1   3
ATOM      3  C   UNL d   1      52.194  33.009  52.944  0.00  0.00     0.139 A 
ATOM      4  N   UNL d   1      51.979  33.284  52.196  0.00  0.00    -0.236 NA
ATOM      5  C   UNL d   1      51.307  33.759  52.284  0.00  0.00     0.088 A 
ATOM      6  C   UNL d   1      50.846  34.180  51.743  0.00  0.00     0.020 A 
ATOM      7  C   UNL d   1      51.111  33.774  53.089  0.00  0.00     0.049 A 
ATOM      8  C   UNL d   1      50.199  34.610  51.999  0.00  0.00     0.002 A 
ATOM      9  C   UNL d   1      50.003  34.625  52.805  0.00  0.00     0.001 A 
ATOM     10  C   UNL d   1      50.457  34.209  53.346  0.00  0.00     0.008 A 
ATOM     11  S   UNL d   1      51.664  33.308  53.493  0.00  0.00    -0.064 SA
ENDBRANCH   1   3
BRANCH   1  12
ATOM     12  N   UNL d   1      52.934  31.818  52.688  0.00  0.00    -0.233 NA
BRANCH  12  13
ATOM     13  C   UNL d   1      53.061  31.105  53.093  0.00  0.00     0.082 A 
ATOM     14  C   UNL d   1      52.551  30.470  52.975  0.00  0.00     0.020 A 
ATOM     15  C   UNL d   1      52.670  29.761  53.372  0.00  0.00     0.013 A 
ATOM     16  C   UNL d   1      53.312  29.691  53.897  0.00  0.00     0.058 A 
ATOM     17  C   UNL d   1      53.825  30.328  54.016  0.00  0.00     0.013 A 
ATOM     18 CL   UNL d   1      53.438  28.986  54.298  0.00  0.00    -0.082 Cl
ATOM     19  C   UNL d   1      53.692  31.033  53.610  0.00  0.00     0.020 A 
ENDBRANCH  12  13
ENDBRANCH   1  12
TORSDOF 3
ENDMDL
MODEL 4
REMARK VINA RESULT:      -7.3      2.462      4.036
REMARK  3 active torsions:
REMARK  status: ('A' for Active; 'I' for Inactive)
REMARK    1  A    between atoms: C_4  and  C_1 
REMARK    2  A    between atoms: N_7  and  C_4 
REMARK    3  A    between atoms: C_9  and  N_7 
ROOT
ATOM      1  C   UNL d   1      52.189  34.183  53.186  0.00  0.00     0.159 C 
ATOM      2  S   UNL d   1      52.818  34.645  52.916  0.00  0.00    -0.055 SA
ENDROOT
BRANCH   1   3
ATOM      3  C   UNL d   1      51.434  34.294  52.871  0.00  0.00     0.139 A 
ATOM      4  N   UNL d   1      50.801  34.660  53.256  0.00  0.00    -0.236 NA
ATOM      5  C   UNL d   1      50.153  34.652  52.741  0.00  0.00     0.088 A 
ATOM      6  C   UNL d   1      49.380  34.932  52.814  0.00  0.00     0.020 A 
ATOM      7  C   UNL d   1      50.392  34.280  52.039  0.00  0.00     0.049 A 
ATOM      8  C   UNL d   1      48.849  34.843  52.196  0.00  0.00     0.002 A 
ATOM      9  C   UNL d   1      49.088  34.471  51.495  0.00  0.00     0.001 A 
ATOM     10  C   UNL d   1      49.855  34.192  51.418  0.00  0.00     0.008 A 
ATOM     11  S   UNL d   1      51.185  34.061  52.126  0.00  0.00    -0.064 SA
ENDBRANCH   1   3
BRANCH   1  12
ATOM     12  N   UNL d   1      52.311  33.614  53.767  0.00  0.00    -0.233 NA
BRANCH  12  13
ATOM     13  C   UNL d   1      53.040  33.574  54.160  0.00  0.00     0.082 A 
ATOM     14  C   UNL d   1      53.571  32.972  53.981  0.00  0.00     0.020 A 
ATOM     15  C   UNL d   1      54.295  32.925  54.365  0.00  0.00     0.013 A 
ATOM     16  C   UNL d   1      54.487  33.496  54.940  0.00  0.00     0.058 A 
ATOM     17  C   UNL d   1      53.956  34.101  55.122  0.00  0.00     0.013 A 
ATOM     18 CL   UNL d   1      55.209  33.456  55.329  0.00  0.00    -0.082 Cl
ATOM     19  C   UNL d   1      53.232  34.134  54.727  0.00  0.00     0.020 A 
ENDBRANCH  12  13
ENDBRANCH   1  12
TORSDOF 3
ENDMDL
