MODEL 1
REMARK VINA RESULT:      -1.1      0.000      0.000
REMARK  6 active torsions:
REMARK  status: ('A' for Active; 'I' for Inactive)
REMARK    1  A    between atoms: C_14  and  N_1 
REMARK    2  A    between atoms: S_12  and  C_3 
REMARK    3  A    between atoms: C_5  and  N_11 
REMARK    4  A    between atoms: C_15  and  C_8 
REMARK       I    between atoms: N_11  and  C_13 
REMARK    5  A    between atoms: C_17  and  S_12 
REMARK    6  A    between atoms: C_13  and  C_17 
ROOT
ATOM      1  N   UNL d   1      57.292  -0.520  30.528  0.00  0.00    -0.181 NA
ATOM      2  C   UNL d   1      57.467   0.121  31.034  0.00  0.00     0.288 C 
ATOM      3  O   UNL d   1      58.210   0.453  31.022  0.00  0.00    -0.265 OA
ENDROOT
BRANCH   2   4
ATOM      4  C   UNL d   1      56.881   0.406  31.538  0.00  0.00     0.101 C 
BRANCH   4   5
ATOM      5  S   UNL d   1      56.867   0.153  32.321  0.00  0.00    -0.041 SA
BRANCH   5   6
ATOM      6  C   UNL d   1      56.155   0.135  32.724  0.00  0.00     0.219 A 
ATOM      7  N   UNL d   1      56.131   0.251  33.541  0.00  0.00    -0.186 N 
ATOM      8  N   UNL d   1      55.350   0.202  33.786  0.00  0.00    -0.038 NA
ATOM      9  N   UNL d   1      54.887   0.056  33.134  0.00  0.00    -0.022 NA
ATOM     10  N   UNL d   1      55.377   0.013  32.466  0.00  0.00    -0.101 NA
BRANCH   7  11
ATOM     11  C   UNL d   1      56.756   0.393  34.054  0.00  0.00     0.087 A 
ATOM     12  C   UNL d   1      56.618   0.434  34.875  0.00  0.00     0.019 A 
ATOM     13  C   UNL d   1      57.243   0.576  35.387  0.00  0.00     0.002 A 
ATOM     14  C   UNL d   1      58.007   0.680  35.099  0.00  0.00     0.000 A 
ATOM     15  C   UNL d   1      58.145   0.640  34.282  0.00  0.00     0.002 A 
ATOM     16  C   UNL d   1      57.519   0.496  33.757  0.00  0.00     0.019 A 
ENDBRANCH   7  11
ENDBRANCH   5   6
ENDBRANCH   4   5
ENDBRANCH   2   4
BRANCH   1  17
ATOM     17  C   UNL d   1      57.878  -0.817  30.015  0.00  0.00     0.216 A 
ATOM     18  N   UNL d   1      58.301  -1.523  30.097  0.00  0.00    -0.200 NA
ATOM     19  C   UNL d   1      58.814  -1.582  29.461  0.00  0.00     0.172 A 
ATOM     20  N   UNL d   1      58.714  -0.924  28.988  0.00  0.00    -0.187 NA
ATOM     21  S   UNL d   1      58.127  -0.448  29.339  0.00  0.00     0.054 SA
BRANCH  19  22
ATOM     22  C   UNL d   1      59.369  -2.160  29.249  0.00  0.00     0.036 A 
ATOM     23  C   UNL d   1      60.167  -1.974  29.239  0.00  0.00     0.003 A 
ATOM     24  C   UNL d   1      60.726  -2.552  29.026  0.00  0.00     0.000 A 
ATOM     25  C   UNL d   1      60.478  -3.305  28.827  0.00  0.00     0.000 A 
ATOM     26  C   UNL d   1      59.666  -3.491  28.838  0.00  0.00     0.000 A 
ATOM     27  C   UNL d   1      59.111  -2.924  29.048  0.00  0.00     0.003 A 
ENDBRANCH  19  22
ENDBRANCH   1  17
TORSDOF 6
ENDMDL
MODEL 2
REMARK VINA RESULT:       0.0      5.077      7.822
REMARK  6 active torsions:
REMARK  status: ('A' for Active; 'I' for Inactive)
REMARK    1  A    between atoms: C_14  and  N_1 
REMARK    2  A    between atoms: S_12  and  C_3 
REMARK    3  A    between atoms: C_5  and  N_11 
REMARK    4  A    between atoms: C_15  and  C_8 
REMARK       I    between atoms: N_11  and  C_13 
REMARK    5  A    between atoms: C_17  and  S_12 
REMARK    6  A    between atoms: C_13  and  C_17 
ROOT
ATOM      1  N   UNL d   1      57.704  -5.508  28.595  0.00  0.00    -0.181 NA
ATOM      2  C   UNL d   1      58.016  -6.277  28.503  0.00  0.00     0.288 C 
ATOM      3  O   UNL d   1      58.822  -6.383  28.459  0.00  0.00    -0.265 OA
ENDROOT
BRANCH   2   4
ATOM      4  C   UNL d   1      57.501  -6.918  28.457  0.00  0.00     0.101 C 
BRANCH   4   5
ATOM      5  S   UNL d   1      57.702  -7.622  28.832  0.00  0.00    -0.041 SA
BRANCH   5   6
ATOM      6  C   UNL d   1      57.167  -8.243  28.834  0.00  0.00     0.219 A 
ATOM      7  N   UNL d   1      57.421  -9.016  28.975  0.00  0.00    -0.186 N 
ATOM      8  N   UNL d   1      56.769  -9.511  28.943  0.00  0.00    -0.038 NA
ATOM      9  N   UNL d   1      56.112  -9.059  28.784  0.00  0.00    -0.022 NA
ATOM     10  N   UNL d   1      56.348  -8.266  28.714  0.00  0.00    -0.101 NA
BRANCH   7  11
ATOM     11  C   UNL d   1      58.182  -9.282  29.125  0.00  0.00     0.087 A 
ATOM     12  C   UNL d   1      58.750  -9.284  28.514  0.00  0.00     0.019 A 
ATOM     13  C   UNL d   1      59.511  -9.550  28.665  0.00  0.00     0.002 A 
ATOM     14  C   UNL d   1      59.722  -9.818  29.413  0.00  0.00     0.000 A 
ATOM     15  C   UNL d   1      59.158  -9.817  30.022  0.00  0.00     0.002 A 
ATOM     16  C   UNL d   1      58.387  -9.549  29.879  0.00  0.00     0.019 A 
ENDBRANCH   7  11
ENDBRANCH   5   6
ENDBRANCH   4   5
ENDBRANCH   2   4
BRANCH   1  17
ATOM     17  C   UNL d   1      58.217  -4.853  28.643  0.00  0.00     0.216 A 
ATOM     18  N   UNL d   1      58.005  -4.062  28.757  0.00  0.00    -0.200 NA
ATOM     19  C   UNL d   1      58.693  -3.618  28.766  0.00  0.00     0.172 A 
ATOM     20  N   UNL d   1      59.327  -4.123  28.659  0.00  0.00    -0.187 NA
ATOM     21  S   UNL d   1      59.023  -4.895  28.583  0.00  0.00     0.054 SA
BRANCH  19  22
ATOM     22  C   UNL d   1      58.827  -2.805  28.859  0.00  0.00     0.036 A 
ATOM     23  C   UNL d   1      59.455  -2.449  28.470  0.00  0.00     0.003 A 
ATOM     24  C   UNL d   1      59.592  -1.634  28.562  0.00  0.00     0.000 A 
ATOM     25  C   UNL d   1      59.100  -1.189  29.039  0.00  0.00     0.000 A 
ATOM     26  C   UNL d   1      58.462  -1.554  29.432  0.00  0.00     0.000 A 
ATOM     27  C   UNL d   1      58.322  -2.358  29.345  0.00  0.00     0.003 A 
ENDBRANCH  19  22
ENDBRANCH   1  17
TORSDOF 6
ENDMDL
MODEL 3
REMARK VINA RESULT:       1.0      3.467      5.104
REMARK  6 active torsions:
REMARK  status: ('A' for Active; 'I' for Inactive)
REMARK    1  A    between atoms: C_14  and  N_1 
REMARK    2  A    between atoms: S_12  and  C_3 
REMARK    3  A    between atoms: C_5  and  N_11 
REMARK    4  A    between atoms: C_15  and  C_8 
REMARK       I    between atoms: N_11  and  C_13 
REMARK    5  A    between atoms: C_17  and  S_12 
REMARK    6  A    between atoms: C_13  and  C_17 
ROOT
ATOM      1  N   UNL d   1      58.785  -4.278  28.485  0.00  0.00    -0.181 NA
ATOM      2  C   UNL d   1      59.079  -3.567  28.811  0.00  0.00     0.288 C 
ATOM      3  O   UNL d   1      59.831  -3.546  29.121  0.00  0.00    -0.265 OA
ENDROOT
BRANCH   2   4
ATOM      4  C   UNL d   1      58.599  -2.898  28.815  0.00  0.00     0.101 C 
BRANCH   4   5
ATOM      5  S   UNL d   1      58.905  -2.186  29.093  0.00  0.00    -0.041 SA
BRANCH   5   6
ATOM      6  C   UNL d   1      58.431  -1.694  29.543  0.00  0.00     0.219 A 
ATOM      7  N   UNL d   1      58.668  -0.921  29.712  0.00  0.00    -0.186 N 
ATOM      8  N   UNL d   1      58.086  -0.567  30.168  0.00  0.00    -0.038 NA
ATOM      9  N   UNL d   1      57.490  -1.107  30.286  0.00  0.00    -0.022 NA
ATOM     10  N   UNL d   1      57.694  -1.813  29.901  0.00  0.00    -0.101 NA
BRANCH   7  11
ATOM     11  C   UNL d   1      59.356  -0.538  29.483  0.00  0.00     0.087 A 
ATOM     12  C   UNL d   1      59.921  -0.320  30.056  0.00  0.00     0.019 A 
ATOM     13  C   UNL d   1      60.609   0.063  29.826  0.00  0.00     0.002 A 
ATOM     14  C   UNL d   1      60.749   0.236  29.034  0.00  0.00     0.000 A 
ATOM     15  C   UNL d   1      60.188   0.019  28.463  0.00  0.00     0.002 A 
ATOM     16  C   UNL d   1      59.490  -0.368  28.686  0.00  0.00     0.019 A 
ENDBRANCH   7  11
ENDBRANCH   5   6
ENDBRANCH   4   5
ENDBRANCH   2   4
BRANCH   1  17
ATOM     17  C   UNL d   1      59.262  -4.961  28.476  0.00  0.00     0.216 A 
ATOM     18  N   UNL d   1      59.006  -5.747  28.477  0.00  0.00    -0.200 NA
ATOM     19  C   UNL d   1      59.670  -6.226  28.467  0.00  0.00     0.172 A 
ATOM     20  N   UNL d   1      60.332  -5.748  28.460  0.00  0.00    -0.187 NA
ATOM     21  S   UNL d   1      60.071  -4.957  28.466  0.00  0.00     0.054 SA
BRANCH  19  22
ATOM     22  C   UNL d   1      59.759  -7.050  28.463  0.00  0.00     0.036 A 
ATOM     23  C   UNL d   1      59.094  -7.531  28.460  0.00  0.00     0.003 A 
ATOM     24  C   UNL d   1      59.181  -8.358  28.456  0.00  0.00     0.000 A 
ATOM     25  C   UNL d   1      59.927  -8.691  28.455  0.00  0.00     0.000 A 
ATOM     26  C   UNL d   1      60.600  -8.199  28.458  0.00  0.00     0.000 A 
ATOM     27  C   UNL d   1      60.521  -7.383  28.462  0.00  0.00     0.003 A 
ENDBRANCH  19  22
ENDBRANCH   1  17
TORSDOF 6
ENDMDL
