MODEL 1
REMARK VINA RESULT:      51.3      0.000      0.000
REMARK  7 active torsions:
REMARK  status: ('A' for Active; 'I' for Inactive)
REMARK    1  A    between atoms: C_3  and  C_1 
REMARK    2  A    between atoms: C_4  and  C_1 
REMARK    3  A    between atoms: C_2  and  C_5 
REMARK    4  A    between atoms: O_14  and  C_2 
REMARK    5  A    between atoms: C_6  and  C_3 
REMARK    6  A    between atoms: C_13  and  C_4 
REMARK    7  A    between atoms: O_20  and  C_15 
ROOT
ATOM      1  C   UNL d   1      60.303  49.007  50.642  0.00  0.00     0.042 C 
ENDROOT
BRANCH   1   2
ATOM      2  C   UNL d   1      59.721  49.396  51.080  0.00  0.00     0.196 C 
ATOM      3  O   UNL d   1      59.893  49.706  51.824  0.00  0.00    -0.287 OA
BRANCH   2   4
ATOM      4  C   UNL d   1      58.964  49.472  50.767  0.00  0.00     0.039 A 
ATOM      5  C   UNL d   1      58.300  49.424  51.266  0.00  0.00     0.005 A 
ATOM      6  C   UNL d   1      57.540  49.500  50.950  0.00  0.00     0.024 A 
ATOM      7  C   UNL d   1      57.447  49.624  50.138  0.00  0.00     0.094 A 
ATOM      8  C   UNL d   1      58.105  49.672  49.644  0.00  0.00     0.024 A 
ATOM      9  C   UNL d   1      58.862  49.596  49.957  0.00  0.00     0.005 A 
BRANCH   7  10
ATOM     10  O   UNL d   1      56.691  49.700  49.826  0.00  0.00    -0.328 OA
ATOM     11  C   UNL d   1      56.405  49.139  49.285  0.00  0.00     0.181 C 
ENDBRANCH   7  10
ENDBRANCH   2   4
ENDBRANCH   1   2
BRANCH   1  12
ATOM     12  C   UNL d   1      60.803  48.462  51.017  0.00  0.00     0.003 C 
BRANCH  12  13
ATOM     13  C   UNL d   1      61.113  47.827  50.596  0.00  0.00     0.000 A 
ATOM     14  C   UNL d   1      61.161  47.094  50.951  0.00  0.00     0.000 A 
ATOM     15  C   UNL d   1      61.471  46.453  50.534  0.00  0.00     0.005 A 
ATOM     16  C   UNL d   1      61.733  46.556  49.750  0.00  0.00     0.063 A 
ATOM     17  C   UNL d   1      61.681  47.299  49.398  0.00  0.00     0.005 A 
ATOM     18  C   UNL d   1      61.372  47.934  49.818  0.00  0.00     0.000 A 
BRANCH  16  19
ATOM     19  C   UNL d   1      62.043  45.921  49.329  0.00  0.00     0.296 C 
ATOM     20  O   UNL d   1      62.773  45.992  48.953  0.00  0.00    -0.259 OA
BRANCH  19  21
ATOM     21  O   UNL d   1      61.622  45.216  49.283  0.00  0.00    -0.296 OA
ATOM     22  C   UNL d   1      61.954  44.552  48.923  0.00  0.00     0.185 C 
ENDBRANCH  19  21
ENDBRANCH  16  19
ENDBRANCH  12  13
ENDBRANCH   1  12
TORSDOF 7
ENDMDL
