MODEL 1
REMARK VINA RESULT:      15.9      0.000      0.000
REMARK  3 active torsions:
REMARK  status: ('A' for Active; 'I' for Inactive)
REMARK       I    between atoms: N_5  and  C_1 
REMARK       I    between atoms: N_6  and  C_1 
REMARK    1  A    between atoms: C_2  and  N_7 
REMARK    2  A    between atoms: C_9  and  N_5 
REMARK    3  A    between atoms: N_7  and  N_6 
ROOT
ATOM      1  C   UNL d   1      45.205 -14.812  44.607  0.00  0.00     0.070 A 
ATOM      2  C   UNL d   1      44.539 -14.377  44.378  0.00  0.00     0.032 A 
ATOM      3  C   UNL d   1      44.578 -13.578  44.266  0.00  0.00     0.087 A 
ATOM      4  C   UNL d   1      45.912 -14.397  44.716  0.00  0.00     0.068 A 
ATOM      5  C   UNL d   1      45.952 -13.581  44.601  0.00  0.00     0.014 A 
ATOM      6 CL   UNL d   1      45.181 -15.632  44.727  0.00  0.00    -0.081 Cl
ATOM      7  C   UNL d   1      45.285 -13.172  44.376  0.00  0.00     0.020 A 
ATOM      8 CL   UNL d   1      46.614 -14.832  44.954  0.00  0.00    -0.082 Cl
ENDROOT
BRANCH   3   9
ATOM      9  N   UNL d   1      43.868 -13.151  44.027  0.00  0.00    -0.190 NA
ATOM     10  C   UNL d   1      43.913 -12.598  43.389  0.00  0.00     0.387 C 
ATOM     11  N   UNL d   1      44.624 -12.475  43.011  0.00  0.00    -0.086 NA
ATOM     12  O   UNL d   1      43.230 -12.188  43.160  0.00  0.00    -0.241 OA
BRANCH  11  13
ATOM     13  N   UNL d   1      45.291 -12.882  43.241  0.00  0.00    -0.111 NA
BRANCH  13  14
ATOM     14  C   UNL d   1      46.039 -12.696  42.929  0.00  0.00     0.260 C 
ATOM     15  S   UNL d   1      46.492 -12.097  43.266  0.00  0.00    -0.034 SA
ATOM     16  N   UNL d   1      46.320 -13.122  42.275  0.00  0.00    -0.113 N 
ENDBRANCH  13  14
ENDBRANCH  11  13
ENDBRANCH   3   9
TORSDOF 3
ENDMDL
