MODEL 1
REMARK VINA RESULT:      -8.9      0.000      0.000
REMARK  3 active torsions:
REMARK  status: ('A' for Active; 'I' for Inactive)
REMARK    1  A    between atoms: C_11  and  N_3 
REMARK    2  A    between atoms: C_10  and  N_6 
REMARK    3  A    between atoms: C_9  and  C_7 
ROOT
ATOM      1  C   UNL d   1     -47.617  12.397  23.118  0.00  0.00     0.106 A 
ATOM      2  C   UNL d   1     -47.058  13.026  23.128  0.00  0.00     0.186 A 
ATOM      3  N   UNL d   1     -46.376  11.857  23.203  0.00  0.00    -0.240 N 
ATOM      4  C   UNL d   1     -46.307  12.664  23.181  0.00  0.00     0.292 A 
ATOM      5  C   UNL d   1     -47.206  11.691  23.163  0.00  0.00     0.271 A 
ATOM      6  N   UNL d   1     -48.262  13.576  23.045  0.00  0.00    -0.211 N 
ATOM      7  C   UNL d   1     -48.357  12.749  23.066  0.00  0.00     0.117 A 
ATOM      8  O   UNL d   1     -47.452  13.724  23.085  0.00  0.00    -0.223 OA
ATOM      9  O   UNL d   1     -47.524  10.929  23.169  0.00  0.00    -0.266 OA
ATOM     10  O   UNL d   1     -45.578  13.086  23.208  0.00  0.00    -0.264 OA
ENDROOT
BRANCH   6  11
ATOM     11  C   UNL d   1     -48.863  14.139  22.994  0.00  0.00     0.088 A 
ATOM     12  C   UNL d   1     -49.182  14.454  23.698  0.00  0.00     0.021 A 
ATOM     13  C   UNL d   1     -49.785  15.019  23.668  0.00  0.00     0.013 A 
ATOM     14  C   UNL d   1     -50.079  15.280  22.920  0.00  0.00     0.058 A 
ATOM     15  C   UNL d   1     -49.752  14.958  22.219  0.00  0.00     0.013 A 
ATOM     16 CL   UNL d   1     -50.667  15.831  22.872  0.00  0.00    -0.082 Cl
ATOM     17  C   UNL d   1     -49.151  14.395  22.268  0.00  0.00     0.021 A 
ENDBRANCH   6  11
BRANCH   7  18
ATOM     18  C   UNL d   1     -49.075  12.349  23.039  0.00  0.00     0.118 A 
ATOM     19  O   UNL d   1     -49.529  12.150  22.377  0.00  0.00    -0.304 OA
ATOM     20  C   UNL d   1     -50.207  11.749  22.630  0.00  0.00     0.123 A 
ATOM     21  C   UNL d   1     -50.152  11.709  23.466  0.00  0.00     0.029 A 
ATOM     22  C   UNL d   1     -49.471  12.071  23.693  0.00  0.00     0.028 A 
ENDBRANCH   7  18
BRANCH   3  23
ATOM     23  C   UNL d   1     -45.685  11.417  23.255  0.00  0.00     0.070 A 
ATOM     24  C   UNL d   1     -45.664  10.691  23.655  0.00  0.00     0.018 A 
ATOM     25  C   UNL d   1     -44.963  10.261  23.698  0.00  0.00     0.002 A 
ATOM     26  C   UNL d   1     -44.286  10.528  23.358  0.00  0.00     0.000 A 
ATOM     27  C   UNL d   1     -44.299  11.268  22.948  0.00  0.00     0.002 A 
ATOM     28  C   UNL d   1     -44.984  11.706  22.896  0.00  0.00     0.018 A 
ENDBRANCH   3  23
TORSDOF 3
ENDMDL
MODEL 2
REMARK VINA RESULT:      -8.4      1.260      1.596
REMARK  3 active torsions:
REMARK  status: ('A' for Active; 'I' for Inactive)
REMARK    1  A    between atoms: C_11  and  N_3 
REMARK    2  A    between atoms: C_10  and  N_6 
REMARK    3  A    between atoms: C_9  and  C_7 
ROOT
ATOM      1  C   UNL d   1     -47.292  13.335  22.275  0.00  0.00     0.106 A 
ATOM      2  C   UNL d   1     -46.897  13.960  22.677  0.00  0.00     0.186 A 
ATOM      3  N   UNL d   1     -45.960  13.088  22.235  0.00  0.00    -0.240 N 
ATOM      4  C   UNL d   1     -46.082  13.781  22.636  0.00  0.00     0.292 A 
ATOM      5  C   UNL d   1     -46.727  12.808  22.007  0.00  0.00     0.271 A 
ATOM      6  N   UNL d   1     -48.196  14.223  22.728  0.00  0.00    -0.211 N 
ATOM      7  C   UNL d   1     -48.094  13.508  22.313  0.00  0.00     0.117 A 
ATOM      8  O   UNL d   1     -47.444  14.484  22.944  0.00  0.00    -0.223 OA
ATOM      9  O   UNL d   1     -46.855  12.112  21.584  0.00  0.00    -0.266 OA
ATOM     10  O   UNL d   1     -45.474  14.259  22.969  0.00  0.00    -0.264 OA
ENDROOT
BRANCH   6  11
ATOM     11  C   UNL d   1     -48.912  14.598  22.893  0.00  0.00     0.088 A 
ATOM     12  C   UNL d   1     -49.168  15.217  22.396  0.00  0.00     0.021 A 
ATOM     13  C   UNL d   1     -49.883  15.605  22.544  0.00  0.00     0.013 A 
ATOM     14  C   UNL d   1     -50.357  15.374  23.204  0.00  0.00     0.058 A 
ATOM     15  C   UNL d   1     -50.092  14.751  23.698  0.00  0.00     0.013 A 
ATOM     16 CL   UNL d   1     -51.059  15.741  23.364  0.00  0.00    -0.082 Cl
ATOM     17  C   UNL d   1     -49.376  14.375  23.534  0.00  0.00     0.021 A 
ENDBRANCH   6  11
BRANCH   7  18
ATOM     18  C   UNL d   1     -48.696  13.050  21.993  0.00  0.00     0.118 A 
ATOM     19  O   UNL d   1     -49.146  12.462  22.361  0.00  0.00    -0.304 OA
ATOM     20  C   UNL d   1     -49.686  12.158  21.813  0.00  0.00     0.123 A 
ATOM     21  C   UNL d   1     -49.551  12.579  21.099  0.00  0.00     0.029 A 
ATOM     22  C   UNL d   1     -48.958  13.106  21.225  0.00  0.00     0.028 A 
ENDBRANCH   7  18
BRANCH   3  23
ATOM     23  C   UNL d   1     -45.185  12.832  22.145  0.00  0.00     0.070 A 
ATOM     24  C   UNL d   1     -44.864  12.245  22.636  0.00  0.00     0.018 A 
ATOM     25  C   UNL d   1     -44.084  11.999  22.534  0.00  0.00     0.002 A 
ATOM     26  C   UNL d   1     -43.617  12.316  21.963  0.00  0.00     0.000 A 
ATOM     27  C   UNL d   1     -43.936  12.915  21.458  0.00  0.00     0.002 A 
ATOM     28  C   UNL d   1     -44.705  13.170  21.545  0.00  0.00     0.018 A 
ENDBRANCH   3  23
TORSDOF 3
ENDMDL
MODEL 3
REMARK VINA RESULT:      -8.0      8.909      9.679
REMARK  3 active torsions:
REMARK  status: ('A' for Active; 'I' for Inactive)
REMARK    1  A    between atoms: C_11  and  N_3 
REMARK    2  A    between atoms: C_10  and  N_6 
REMARK    3  A    between atoms: C_9  and  C_7 
ROOT
ATOM      1  C   UNL d   1     -39.155  14.256  19.894  0.00  0.00     0.106 A 
ATOM      2  C   UNL d   1     -39.639  14.830  20.274  0.00  0.00     0.186 A 
ATOM      3  N   UNL d   1     -38.921  14.191  21.228  0.00  0.00    -0.240 N 
ATOM      4  C   UNL d   1     -39.474  14.767  21.090  0.00  0.00     0.292 A 
ATOM      5  C   UNL d   1     -38.721  13.869  20.470  0.00  0.00     0.271 A 
ATOM      6  N   UNL d   1     -39.885  14.911  18.973  0.00  0.00    -0.211 N 
ATOM      7  C   UNL d   1     -39.315  14.315  19.091  0.00  0.00     0.117 A 
ATOM      8  O   UNL d   1     -40.070  15.216  19.716  0.00  0.00    -0.223 OA
ATOM      9  O   UNL d   1     -38.173  13.263  20.358  0.00  0.00    -0.266 OA
ATOM     10  O   UNL d   1     -39.836  15.241  21.685  0.00  0.00    -0.264 OA
ENDROOT
BRANCH   6  11
ATOM     11  C   UNL d   1     -40.202  15.151  18.250  0.00  0.00     0.088 A 
ATOM     12  C   UNL d   1     -40.942  14.846  18.012  0.00  0.00     0.021 A 
ATOM     13  C   UNL d   1     -41.277  15.075  17.291  0.00  0.00     0.013 A 
ATOM     14  C   UNL d   1     -40.868  15.620  16.793  0.00  0.00     0.058 A 
ATOM     15  C   UNL d   1     -40.126  15.921  17.040  0.00  0.00     0.013 A 
ATOM     16 CL   UNL d   1     -41.180  15.855  16.086  0.00  0.00    -0.082 Cl
ATOM     17  C   UNL d   1     -39.807  15.682  17.762  0.00  0.00     0.021 A 
ENDBRANCH   6  11
BRANCH   7  18
ATOM     18  C   UNL d   1     -38.970  13.859  18.501  0.00  0.00     0.118 A 
ATOM     19  O   UNL d   1     -39.262  13.172  18.144  0.00  0.00    -0.304 OA
ATOM     20  C   UNL d   1     -38.715  12.913  17.579  0.00  0.00     0.123 A 
ATOM     21  C   UNL d   1     -38.081  13.463  17.603  0.00  0.00     0.029 A 
ATOM     22  C   UNL d   1     -38.250  14.020  18.158  0.00  0.00     0.028 A 
ENDBRANCH   7  18
BRANCH   3  23
ATOM     23  C   UNL d   1     -38.696  14.059  22.006  0.00  0.00     0.070 A 
ATOM     24  C   UNL d   1     -38.162  14.562  22.393  0.00  0.00     0.018 A 
ATOM     25  C   UNL d   1     -37.946  14.416  23.175  0.00  0.00     0.002 A 
ATOM     26  C   UNL d   1     -38.242  13.790  23.581  0.00  0.00     0.000 A 
ATOM     27  C   UNL d   1     -38.788  13.272  23.193  0.00  0.00     0.002 A 
ATOM     28  C   UNL d   1     -39.012  13.402  22.421  0.00  0.00     0.018 A 
ENDBRANCH   3  23
TORSDOF 3
ENDMDL
MODEL 4
REMARK VINA RESULT:      -7.7      8.992     10.586
REMARK  3 active torsions:
REMARK  status: ('A' for Active; 'I' for Inactive)
REMARK    1  A    between atoms: C_11  and  N_3 
REMARK    2  A    between atoms: C_10  and  N_6 
REMARK    3  A    between atoms: C_9  and  C_7 
ROOT
ATOM      1  C   UNL d   1     -39.406  14.756  18.627  0.00  0.00     0.106 A 
ATOM      2  C   UNL d   1     -38.645  14.448  18.810  0.00  0.00     0.186 A 
ATOM      3  N   UNL d   1     -39.302  14.662  19.975  0.00  0.00    -0.240 N 
ATOM      4  C   UNL d   1     -38.610  14.402  19.643  0.00  0.00     0.292 A 
ATOM      5  C   UNL d   1     -39.804  14.885  19.330  0.00  0.00     0.271 A 
ATOM      6  N   UNL d   1     -38.724  14.531  17.489  0.00  0.00    -0.211 N 
ATOM      7  C   UNL d   1     -39.444  14.802  17.808  0.00  0.00     0.117 A 
ATOM      8  O   UNL d   1     -38.246  14.317  18.125  0.00  0.00    -0.223 OA
ATOM      9  O   UNL d   1     -40.568  15.183  19.423  0.00  0.00    -0.266 OA
ATOM     10  O   UNL d   1     -37.943  14.122  20.075  0.00  0.00    -0.264 OA
ENDROOT
BRANCH   6  11
ATOM     11  C   UNL d   1     -38.528  14.484  16.689  0.00  0.00     0.088 A 
ATOM     12  C   UNL d   1     -38.673  13.773  16.277  0.00  0.00     0.021 A 
ATOM     13  C   UNL d   1     -38.483  13.706  15.475  0.00  0.00     0.013 A 
ATOM     14  C   UNL d   1     -38.139  14.363  15.070  0.00  0.00     0.058 A 
ATOM     15  C   UNL d   1     -37.997  15.073  15.491  0.00  0.00     0.013 A 
ATOM     16 CL   UNL d   1     -37.947  14.316  14.286  0.00  0.00    -0.082 Cl
ATOM     17  C   UNL d   1     -38.193  15.121  16.290  0.00  0.00     0.021 A 
ENDBRANCH   6  11
BRANCH   7  18
ATOM     18  C   UNL d   1     -40.088  15.073  17.374  0.00  0.00     0.118 A 
ATOM     19  O   UNL d   1     -40.705  14.635  17.041  0.00  0.00    -0.304 OA
ATOM     20  C   UNL d   1     -41.223  15.153  16.657  0.00  0.00     0.123 A 
ATOM     21  C   UNL d   1     -40.903  15.921  16.767  0.00  0.00     0.029 A 
ATOM     22  C   UNL d   1     -40.227  15.855  17.197  0.00  0.00     0.028 A 
ENDBRANCH   7  18
BRANCH   3  23
ATOM     23  C   UNL d   1     -39.358  14.652  20.794  0.00  0.00     0.070 A 
ATOM     24  C   UNL d   1     -39.213  15.334  21.245  0.00  0.00     0.018 A 
ATOM     25  C   UNL d   1     -39.274  15.308  22.066  0.00  0.00     0.002 A 
ATOM     26  C   UNL d   1     -39.472  14.631  22.451  0.00  0.00     0.000 A 
ATOM     27  C   UNL d   1     -39.621  13.932  21.998  0.00  0.00     0.002 A 
ATOM     28  C   UNL d   1     -39.565  13.940  21.185  0.00  0.00     0.018 A 
ENDBRANCH   3  23
TORSDOF 3
ENDMDL
MODEL 5
REMARK VINA RESULT:      -7.5      2.087      4.678
REMARK  3 active torsions:
REMARK  status: ('A' for Active; 'I' for Inactive)
REMARK    1  A    between atoms: C_11  and  N_3 
REMARK    2  A    between atoms: C_10  and  N_6 
REMARK    3  A    between atoms: C_9  and  C_7 
ROOT
ATOM      1  C   UNL d   1     -47.865  13.630  22.818  0.00  0.00     0.106 A 
ATOM      2  C   UNL d   1     -47.646  14.374  22.492  0.00  0.00     0.186 A 
ATOM      3  N   UNL d   1     -48.928  14.465  22.920  0.00  0.00    -0.240 N 
ATOM      4  C   UNL d   1     -48.317  14.864  22.568  0.00  0.00     0.292 A 
ATOM      5  C   UNL d   1     -48.639  13.684  23.077  0.00  0.00     0.271 A 
ATOM      6  N   UNL d   1     -46.593  13.575  22.381  0.00  0.00    -0.211 N 
ATOM      7  C   UNL d   1     -47.207  13.144  22.744  0.00  0.00     0.117 A 
ATOM      8  O   UNL d   1     -46.887  14.331  22.234  0.00  0.00    -0.223 OA
ATOM      9  O   UNL d   1     -49.087  13.091  23.436  0.00  0.00    -0.266 OA
ATOM     10  O   UNL d   1     -48.351  15.667  22.313  0.00  0.00    -0.264 OA
ENDROOT
BRANCH   6  11
ATOM     11  C   UNL d   1     -45.837  13.298  22.203  0.00  0.00     0.088 A 
ATOM     12  C   UNL d   1     -45.690  12.983  21.444  0.00  0.00     0.021 A 
ATOM     13  C   UNL d   1     -44.939  12.700  21.246  0.00  0.00     0.013 A 
ATOM     14  C   UNL d   1     -44.316  12.730  21.815  0.00  0.00     0.058 A 
ATOM     15  C   UNL d   1     -44.472  13.048  22.575  0.00  0.00     0.013 A 
ATOM     16 CL   UNL d   1     -43.575  12.459  21.639  0.00  0.00    -0.082 Cl
ATOM     17  C   UNL d   1     -45.228  13.325  22.754  0.00  0.00     0.021 A 
ENDBRANCH   6  11
BRANCH   7  18
ATOM     18  C   UNL d   1     -47.162  12.361  22.990  0.00  0.00     0.118 A 
ATOM     19  O   UNL d   1     -46.853  12.060  23.695  0.00  0.00    -0.304 OA
ATOM     20  C   UNL d   1     -46.931  11.236  23.690  0.00  0.00     0.123 A 
ATOM     21  C   UNL d   1     -47.297  11.045  22.959  0.00  0.00     0.029 A 
ATOM     22  C   UNL d   1     -47.428  11.726  22.555  0.00  0.00     0.028 A 
ENDBRANCH   7  18
BRANCH   3  23
ATOM     23  C   UNL d   1     -49.631  14.871  23.037  0.00  0.00     0.070 A 
ATOM     24  C   UNL d   1     -50.325  14.660  22.632  0.00  0.00     0.018 A 
ATOM     25  C   UNL d   1     -51.023  15.078  22.760  0.00  0.00     0.002 A 
ATOM     26  C   UNL d   1     -51.055  15.694  23.274  0.00  0.00     0.000 A 
ATOM     27  C   UNL d   1     -50.352  15.915  23.690  0.00  0.00     0.002 A 
ATOM     28  C   UNL d   1     -49.653  15.513  23.576  0.00  0.00     0.018 A 
ENDBRANCH   3  23
TORSDOF 3
ENDMDL
