MODEL 1
REMARK VINA RESULT:      -9.5      0.000      0.000
REMARK  5 active torsions:
REMARK  status: ('A' for Active; 'I' for Inactive)
REMARK    1  A    between atoms: C_12  and  C_1 
REMARK    2  A    between atoms: N_7  and  C_2 
REMARK    3  A    between atoms: C_3  and  C_6 
REMARK       I    between atoms: C_6  and  N_7 
REMARK    4  A    between atoms: O_18  and  C_12 
REMARK    5  A    between atoms: C_23  and  O_18 
ROOT
ATOM      1  C   UNL d   1      53.402  32.289  53.548  0.00  0.00     0.111 A 
ATOM      2  C   UNL d   1      53.052  32.955  53.797  0.00  0.00     0.096 A 
ATOM      3  S   UNL d   1      54.179  32.280  53.877  0.00  0.00    -0.080 SA
ATOM      4  C   UNL d   1      53.560  33.384  54.274  0.00  0.00     0.024 A 
ATOM      5  C   UNL d   1      54.265  32.961  54.323  0.00  0.00     0.031 A 
ATOM      6  C   UNL d   1      53.474  34.106  54.670  0.00  0.00     0.002 A 
ATOM      7  C   UNL d   1      54.896  33.249  54.768  0.00  0.00     0.006 A 
ATOM      8  C   UNL d   1      54.107  34.398  55.118  0.00  0.00     0.000 A 
ATOM      9  C   UNL d   1      54.812  33.974  55.167  0.00  0.00     0.001 A 
ENDROOT
BRANCH   2  10
ATOM     10  N   UNL d   1      52.263  33.162  53.582  0.00  0.00    -0.207 NA
ATOM     11  C   UNL d   1      52.133  33.816  53.095  0.00  0.00     0.284 C 
ATOM     12  O   UNL d   1      52.834  34.261  52.828  0.00  0.00    -0.265 OA
BRANCH  11  13
ATOM     13  C   UNL d   1      51.350  33.977  52.914  0.00  0.00     0.121 A 
ATOM     14  C   UNL d   1      51.160  34.140  52.129  0.00  0.00     0.204 A 
ATOM     15  C   UNL d   1      50.378  34.309  51.904  0.00  0.00     0.062 A 
ATOM     16  O   UNL d   1      51.776  34.134  51.544  0.00  0.00    -0.286 OA
ATOM     17  C   UNL d   1      50.205  34.468  51.121  0.00  0.00     0.005 A 
ATOM     18  C   UNL d   1      49.781  34.313  52.482  0.00  0.00     0.103 A 
ATOM     19  C   UNL d   1      49.420  34.634  50.916  0.00  0.00     0.000 A 
ATOM     20  C   UNL d   1      48.820  34.642  51.476  0.00  0.00     0.002 A 
ATOM     21  C   UNL d   1      49.002  34.483  52.249  0.00  0.00     0.025 A 
ATOM     22  O   UNL d   1      49.962  34.152  53.268  0.00  0.00    -0.305 OA
ATOM     23  C   UNL d   1      50.745  33.983  53.490  0.00  0.00     0.131 A 
ENDBRANCH  11  13
ENDBRANCH   2  10
BRANCH   1  24
ATOM     24  C   UNL d   1      53.051  31.722  53.056  0.00  0.00     0.308 C 
ATOM     25  O   UNL d   1      53.032  31.818  52.247  0.00  0.00    -0.258 OA
BRANCH  24  26
ATOM     26  O   UNL d   1      52.739  31.090  53.422  0.00  0.00    -0.271 OA
BRANCH  26  27
ATOM     27  C   UNL d   1      52.609  30.287  53.048  0.00  0.00     0.126 C 
ATOM     28  C   UNL d   1      52.561  29.629  53.505  0.00  0.00     0.029 C 
ENDBRANCH  26  27
ENDBRANCH  24  26
ENDBRANCH   1  24
TORSDOF 5
ENDMDL
MODEL 2
REMARK VINA RESULT:      -8.4      1.351      2.745
REMARK  5 active torsions:
REMARK  status: ('A' for Active; 'I' for Inactive)
REMARK    1  A    between atoms: C_12  and  C_1 
REMARK    2  A    between atoms: N_7  and  C_2 
REMARK    3  A    between atoms: C_3  and  C_6 
REMARK       I    between atoms: C_6  and  N_7 
REMARK    4  A    between atoms: O_18  and  C_12 
REMARK    5  A    between atoms: C_23  and  O_18 
ROOT
ATOM      1  C   UNL d   1      53.020  33.777  53.372  0.00  0.00     0.111 A 
ATOM      2  C   UNL d   1      52.471  33.348  52.993  0.00  0.00     0.096 A 
ATOM      3  S   UNL d   1      53.573  33.233  53.704  0.00  0.00    -0.080 SA
ATOM      4  C   UNL d   1      52.636  32.549  53.060  0.00  0.00     0.024 A 
ATOM      5  C   UNL d   1      53.325  32.479  53.505  0.00  0.00     0.031 A 
ATOM      6  C   UNL d   1      52.249  31.875  52.775  0.00  0.00     0.002 A 
ATOM      7  C   UNL d   1      53.641  31.736  53.673  0.00  0.00     0.006 A 
ATOM      8  C   UNL d   1      52.564  31.127  52.942  0.00  0.00     0.000 A 
ATOM      9  C   UNL d   1      53.254  31.057  53.387  0.00  0.00     0.001 A 
ENDROOT
BRANCH   2  10
ATOM     10  N   UNL d   1      51.820  33.698  52.588  0.00  0.00    -0.207 NA
ATOM     11  C   UNL d   1      51.062  33.638  52.907  0.00  0.00     0.284 C 
ATOM     12  O   UNL d   1      50.979  33.206  53.661  0.00  0.00    -0.265 OA
BRANCH  11  13
ATOM     13  C   UNL d   1      50.462  33.994  52.477  0.00  0.00     0.121 A 
ATOM     14  C   UNL d   1      49.899  34.434  52.887  0.00  0.00     0.204 A 
ATOM     15  C   UNL d   1      49.275  34.810  52.487  0.00  0.00     0.062 A 
ATOM     16  O   UNL d   1      49.962  34.501  53.732  0.00  0.00    -0.286 OA
ATOM     17  C   UNL d   1      48.724  35.244  52.909  0.00  0.00     0.005 A 
ATOM     18  C   UNL d   1      49.221  34.740  51.662  0.00  0.00     0.103 A 
ATOM     19  C   UNL d   1      48.110  35.612  52.494  0.00  0.00     0.000 A 
ATOM     20  C   UNL d   1      48.044  35.551  51.678  0.00  0.00     0.002 A 
ATOM     21  C   UNL d   1      48.594  35.120  51.270  0.00  0.00     0.025 A 
ATOM     22  O   UNL d   1      49.778  34.303  51.244  0.00  0.00    -0.305 OA
ATOM     23  C   UNL d   1      50.401  33.927  51.646  0.00  0.00     0.131 A 
ENDBRANCH  11  13
ENDBRANCH   2  10
BRANCH   1  24
ATOM     24  C   UNL d   1      53.028  34.604  53.419  0.00  0.00     0.308 C 
ATOM     25  O   UNL d   1      53.103  35.065  52.751  0.00  0.00    -0.258 OA
BRANCH  24  26
ATOM     26  O   UNL d   1      52.958  34.911  54.148  0.00  0.00    -0.271 OA
BRANCH  26  27
ATOM     27  C   UNL d   1      53.179  35.746  54.381  0.00  0.00     0.126 C 
ATOM     28  C   UNL d   1      52.938  36.049  55.084  0.00  0.00     0.029 C 
ENDBRANCH  26  27
ENDBRANCH  24  26
ENDBRANCH   1  24
TORSDOF 5
ENDMDL
MODEL 3
REMARK VINA RESULT:      -7.5      1.121      4.000
REMARK  5 active torsions:
REMARK  status: ('A' for Active; 'I' for Inactive)
REMARK    1  A    between atoms: C_12  and  C_1 
REMARK    2  A    between atoms: N_7  and  C_2 
REMARK    3  A    between atoms: C_3  and  C_6 
REMARK       I    between atoms: C_6  and  N_7 
REMARK    4  A    between atoms: O_18  and  C_12 
REMARK    5  A    between atoms: C_23  and  O_18 
ROOT
ATOM      1  C   UNL d   1      52.124  34.383  53.097  0.00  0.00     0.111 A 
ATOM      2  C   UNL d   1      52.470  33.889  53.612  0.00  0.00     0.096 A 
ATOM      3  S   UNL d   1      52.345  35.167  53.318  0.00  0.00    -0.080 SA
ATOM      4  C   UNL d   1      52.907  34.310  54.161  0.00  0.00     0.024 A 
ATOM      5  C   UNL d   1      52.828  35.109  53.976  0.00  0.00     0.031 A 
ATOM      6  C   UNL d   1      53.368  34.071  54.807  0.00  0.00     0.002 A 
ATOM      7  C   UNL d   1      53.206  35.683  54.431  0.00  0.00     0.006 A 
ATOM      8  C   UNL d   1      53.749  34.646  55.265  0.00  0.00     0.000 A 
ATOM      9  C   UNL d   1      53.670  35.445  55.080  0.00  0.00     0.001 A 
ENDROOT
BRANCH   2  10
ATOM     10  N   UNL d   1      52.379  33.052  53.571  0.00  0.00    -0.207 NA
ATOM     11  C   UNL d   1      53.014  32.585  53.326  0.00  0.00     0.284 C 
ATOM     12  O   UNL d   1      53.756  32.996  53.120  0.00  0.00    -0.265 OA
BRANCH  11  13
ATOM     13  C   UNL d   1      52.878  31.777  53.303  0.00  0.00     0.121 A 
ATOM     14  C   UNL d   1      53.384  31.287  53.729  0.00  0.00     0.204 A 
ATOM     15  C   UNL d   1      53.280  30.462  53.731  0.00  0.00     0.062 A 
ATOM     16  O   UNL d   1      54.021  31.634  54.172  0.00  0.00    -0.286 OA
ATOM     17  C   UNL d   1      53.791  29.988  54.159  0.00  0.00     0.005 A 
ATOM     18  C   UNL d   1      52.655  30.131  53.295  0.00  0.00     0.103 A 
ATOM     19  C   UNL d   1      53.671  29.169  54.149  0.00  0.00     0.000 A 
ATOM     20  C   UNL d   1      53.058  28.828  53.723  0.00  0.00     0.002 A 
ATOM     21  C   UNL d   1      52.558  29.306  53.303  0.00  0.00     0.025 A 
ATOM     22  O   UNL d   1      52.145  30.613  52.867  0.00  0.00    -0.305 OA
ATOM     23  C   UNL d   1      52.251  31.438  52.867  0.00  0.00     0.131 A 
ENDBRANCH  11  13
ENDBRANCH   2  10
BRANCH   1  24
ATOM     24  C   UNL d   1      51.640  34.148  52.466  0.00  0.00     0.308 C 
ATOM     25  O   UNL d   1      51.958  33.934  51.747  0.00  0.00    -0.258 OA
BRANCH  24  26
ATOM     26  O   UNL d   1      50.859  34.148  52.610  0.00  0.00    -0.271 OA
BRANCH  26  27
ATOM     27  C   UNL d   1      50.220  34.249  51.992  0.00  0.00     0.126 C 
ATOM     28  C   UNL d   1      49.464  34.406  52.212  0.00  0.00     0.029 C 
ENDBRANCH  26  27
ENDBRANCH  24  26
ENDBRANCH   1  24
TORSDOF 5
ENDMDL
MODEL 4
REMARK VINA RESULT:      -7.3      1.446      4.493
REMARK  5 active torsions:
REMARK  status: ('A' for Active; 'I' for Inactive)
REMARK    1  A    between atoms: C_12  and  C_1 
REMARK    2  A    between atoms: N_7  and  C_2 
REMARK    3  A    between atoms: C_3  and  C_6 
REMARK       I    between atoms: C_6  and  N_7 
REMARK    4  A    between atoms: O_18  and  C_12 
REMARK    5  A    between atoms: C_23  and  O_18 
ROOT
ATOM      1  C   UNL d   1      53.230  33.844  53.504  0.00  0.00     0.111 A 
ATOM      2  C   UNL d   1      52.664  33.298  53.599  0.00  0.00     0.096 A 
ATOM      3  S   UNL d   1      52.867  34.519  53.151  0.00  0.00    -0.080 SA
ATOM      4  C   UNL d   1      51.946  33.580  53.325  0.00  0.00     0.024 A 
ATOM      5  C   UNL d   1      52.075  34.344  53.046  0.00  0.00     0.031 A 
ATOM      6  C   UNL d   1      51.190  33.243  53.293  0.00  0.00     0.002 A 
ATOM      7  C   UNL d   1      51.454  34.785  52.730  0.00  0.00     0.006 A 
ATOM      8  C   UNL d   1      50.564  33.683  52.977  0.00  0.00     0.000 A 
ATOM      9  C   UNL d   1      50.693  34.447  52.697  0.00  0.00     0.001 A 
ENDROOT
BRANCH   2  10
ATOM     10  N   UNL d   1      52.814  32.540  53.937  0.00  0.00    -0.207 NA
ATOM     11  C   UNL d   1      52.885  31.881  53.445  0.00  0.00     0.284 C 
ATOM     12  O   UNL d   1      52.799  32.013  52.587  0.00  0.00    -0.265 OA
BRANCH  11  13
ATOM     13  C   UNL d   1      53.030  31.167  53.821  0.00  0.00     0.121 A 
ATOM     14  C   UNL d   1      52.976  30.477  53.375  0.00  0.00     0.204 A 
ATOM     15  C   UNL d   1      53.116  29.733  53.718  0.00  0.00     0.062 A 
ATOM     16  O   UNL d   1      52.773  30.532  52.551  0.00  0.00    -0.286 OA
ATOM     17  C   UNL d   1      53.058  29.057  53.262  0.00  0.00     0.005 A 
ATOM     18  C   UNL d   1      53.313  29.689  54.524  0.00  0.00     0.103 A 
ATOM     19  C   UNL d   1      53.201  28.325  53.621  0.00  0.00     0.000 A 
ATOM     20  C   UNL d   1      53.397  28.266  54.416  0.00  0.00     0.002 A 
ATOM     21  C   UNL d   1      53.452  28.941  54.859  0.00  0.00     0.025 A 
ATOM     22  O   UNL d   1      53.370  30.373  54.977  0.00  0.00    -0.305 OA
ATOM     23  C   UNL d   1      53.229  31.115  54.631  0.00  0.00     0.131 A 
ENDBRANCH  11  13
ENDBRANCH   2  10
BRANCH   1  24
ATOM     24  C   UNL d   1      54.025  33.747  53.720  0.00  0.00     0.308 C 
ATOM     25  O   UNL d   1      54.579  33.483  53.184  0.00  0.00    -0.258 OA
BRANCH  24  26
ATOM     26  O   UNL d   1      54.204  33.926  54.473  0.00  0.00    -0.271 OA
BRANCH  26  27
ATOM     27  C   UNL d   1      55.032  34.025  54.797  0.00  0.00     0.126 C 
ATOM     28  C   UNL d   1      55.165  33.987  55.588  0.00  0.00     0.029 C 
ENDBRANCH  26  27
ENDBRANCH  24  26
ENDBRANCH   1  24
TORSDOF 5
ENDMDL
