MODEL 1
REMARK VINA RESULT:      67.7      0.000      0.000
REMARK  5 active torsions:
REMARK  status: ('A' for Active; 'I' for Inactive)
REMARK    1  A    between atoms: C_2  and  S_1 
REMARK    2  A    between atoms: N_4  and  S_1 
REMARK    3  A    between atoms: C_10  and  C_9 
REMARK       I    between atoms: N_15  and  C_10 
REMARK    4  A    between atoms: C_24  and  N_15 
REMARK    5  A    between atoms: C_16  and  C_24 
ROOT
ATOM      1  N   UNL d   1      60.791  48.865  50.789  0.00  0.00    -0.229 N 
ATOM      2  C   UNL d   1      59.587  49.318  51.402  0.00  0.00     0.076 A 
ATOM      3  C   UNL d   1      59.967  48.957  50.784  0.00  0.00     0.096 A 
ATOM      4  C   UNL d   1      61.218  49.142  51.425  0.00  0.00     0.092 A 
ATOM      5  C   UNL d   1      60.035  49.605  52.064  0.00  0.00     0.008 A 
ATOM      6  C   UNL d   1      60.855  49.507  52.057  0.00  0.00     0.020 A 
ENDROOT
BRANCH   1   7
ATOM      7  S   UNL d   1      61.168  48.493  50.147  0.00  0.00     0.273 S 
ATOM      8  O   UNL d   1      61.541  48.122  49.512  0.00  0.00    -0.200 OA
ATOM      9  O   UNL d   1      61.276  49.225  49.777  0.00  0.00    -0.200 OA
BRANCH   7  10
ATOM     10  C   UNL d   1      61.063  47.756  50.513  0.00  0.00     0.125 A 
ATOM     11  C   UNL d   1      61.412  47.080  50.207  0.00  0.00     0.142 A 
ATOM     12  C   UNL d   1      61.302  46.348  50.578  0.00  0.00     0.131 A 
ATOM     13  N   UNL d   1      61.894  46.971  49.545  0.00  0.00    -0.101 NA
ATOM     14  N   UNL d   1      61.719  45.784  50.142  0.00  0.00    -0.102 NA
ATOM     15  C   UNL d   1      60.849  46.292  51.248  0.00  0.00     0.023 A 
ATOM     16  O   UNL d   1      62.080  46.165  49.511  0.00  0.00    -0.106 OA
ATOM     17  C   UNL d   1      60.491  46.964  51.567  0.00  0.00     0.002 A 
ATOM     18  C   UNL d   1      60.600  47.700  51.196  0.00  0.00     0.015 A 
ENDBRANCH   7  10
ENDBRANCH   1   7
BRANCH   2  19
ATOM     19  C   UNL d   1      58.773  49.415  51.410  0.00  0.00     0.281 C 
ATOM     20  N   UNL d   1      58.336  49.381  50.714  0.00  0.00    -0.204 NA
ATOM     21  O   UNL d   1      58.394  49.549  52.135  0.00  0.00    -0.265 OA
BRANCH  20  22
ATOM     22  C   UNL d   1      57.495  49.484  50.736  0.00  0.00     0.127 C 
BRANCH  22  23
ATOM     23  C   UNL d   1      57.022  49.195  50.095  0.00  0.00     0.119 A 
ATOM     24  O   UNL d   1      56.784  48.413  49.986  0.00  0.00    -0.304 OA
ATOM     25  C   UNL d   1      56.332  48.376  49.294  0.00  0.00     0.123 A 
ATOM     26  C   UNL d   1      56.293  49.135  48.978  0.00  0.00     0.029 A 
ATOM     27  C   UNL d   1      56.721  49.642  49.476  0.00  0.00     0.028 A 
ENDBRANCH  22  23
ENDBRANCH  20  22
ENDBRANCH   2  19
TORSDOF 5
ENDMDL
