MODEL 1
REMARK VINA RESULT:      -3.0      0.000      0.000
REMARK  4 active torsions:
REMARK  status: ('A' for Active; 'I' for Inactive)
REMARK    1  A    between atoms: C_9  and  N_2 
REMARK    2  A    between atoms: C_7  and  O_10 
REMARK    3  A    between atoms: C_11  and  C_9 
REMARK    4  A    between atoms: O_10  and  C_11 
ROOT
ATOM      1  C   UNL d   1      32.503  21.144 -20.941  0.00  0.00     0.378 A 
ATOM      2  N   UNL d   1      32.814  21.337 -21.690  0.00  0.00    -0.249 N 
ATOM      3  O   UNL d   1      32.120  21.816 -20.640  0.00  0.00    -0.258 OA
ATOM      4  C   UNL d   1      32.621  22.126 -21.846  0.00  0.00     0.092 A 
ATOM      5  C   UNL d   1      32.193  22.420 -21.197  0.00  0.00     0.121 A 
ATOM      6  O   UNL d   1      32.571  20.411 -20.575  0.00  0.00    -0.237 OA
ATOM      7  C   UNL d   1      32.779  22.615 -22.495  0.00  0.00     0.020 A 
ATOM      8  C   UNL d   1      31.927  23.209 -21.208  0.00  0.00     0.026 A 
ATOM      9  C   UNL d   1      32.510  23.395 -22.494  0.00  0.00     0.002 A 
ATOM     10  C   UNL d   1      32.087  23.690 -21.854  0.00  0.00     0.002 A 
ENDROOT
BRANCH   2  11
ATOM     11  C   UNL d   1      33.240  20.863 -22.214  0.00  0.00     0.112 C 
BRANCH  11  12
ATOM     12  C   UNL d   1      32.901  20.184 -22.518  0.00  0.00     0.142 C 
BRANCH  12  13
ATOM     13  O   UNL d   1      33.241  19.812 -23.171  0.00  0.00    -0.304 OA
BRANCH  13  14
ATOM     14  C   UNL d   1      32.925  19.102 -23.453  0.00  0.00     0.100 A 
ATOM     15  C   UNL d   1      32.812  19.007 -24.258  0.00  0.00     0.023 A 
ATOM     16  C   UNL d   1      33.009  19.609 -24.781  0.00  0.00     0.002 C 
ATOM     17  C   UNL d   1      32.495  18.298 -24.548  0.00  0.00     0.002 A 
ATOM     18  C   UNL d   1      32.298  17.694 -24.016  0.00  0.00     0.000 A 
ATOM     19  C   UNL d   1      32.417  17.801 -23.207  0.00  0.00     0.002 A 
ATOM     20  C   UNL d   1      32.729  18.503 -22.930  0.00  0.00     0.025 A 
ENDBRANCH  13  14
ENDBRANCH  12  13
ENDBRANCH  11  12
ENDBRANCH   2  11
TORSDOF 4
ENDMDL
MODEL 2
REMARK VINA RESULT:      -2.9      1.932      3.269
REMARK  4 active torsions:
REMARK  status: ('A' for Active; 'I' for Inactive)
REMARK    1  A    between atoms: C_9  and  N_2 
REMARK    2  A    between atoms: C_7  and  O_10 
REMARK    3  A    between atoms: C_11  and  C_9 
REMARK    4  A    between atoms: O_10  and  C_11 
ROOT
ATOM      1  C   UNL d   1      33.136  19.700 -24.208  0.00  0.00     0.378 A 
ATOM      2  N   UNL d   1      33.149  19.116 -23.615  0.00  0.00    -0.249 N 
ATOM      3  O   UNL d   1      33.160  20.443 -23.839  0.00  0.00    -0.258 OA
ATOM      4  C   UNL d   1      33.180  19.501 -22.883  0.00  0.00     0.092 A 
ATOM      5  C   UNL d   1      33.187  20.320 -23.024  0.00  0.00     0.121 A 
ATOM      6  O   UNL d   1      33.105  19.554 -25.017  0.00  0.00    -0.237 OA
ATOM      7  C   UNL d   1      33.204  19.212 -22.108  0.00  0.00     0.020 A 
ATOM      8  C   UNL d   1      33.218  20.844 -22.378  0.00  0.00     0.026 A 
ATOM      9  C   UNL d   1      33.234  19.742 -21.476  0.00  0.00     0.002 A 
ATOM     10  C   UNL d   1      33.241  20.553 -21.610  0.00  0.00     0.002 A 
ENDROOT
BRANCH   2  11
ATOM     11  C   UNL d   1      33.134  18.294 -23.694  0.00  0.00     0.112 C 
BRANCH  11  12
ATOM     12  C   UNL d   1      32.435  17.916 -23.888  0.00  0.00     0.142 C 
BRANCH  12  13
ATOM     13  O   UNL d   1      32.419  17.094 -23.956  0.00  0.00    -0.304 OA
BRANCH  13  14
ATOM     14  C   UNL d   1      31.695  16.695 -23.973  0.00  0.00     0.100 A 
ATOM     15  C   UNL d   1      31.649  15.937 -23.667  0.00  0.00     0.023 A 
ATOM     16  C   UNL d   1      32.314  15.575 -23.347  0.00  0.00     0.002 C 
ATOM     17  C   UNL d   1      30.927  15.532 -23.680  0.00  0.00     0.002 A 
ATOM     18  C   UNL d   1      30.259  15.901 -24.004  0.00  0.00     0.000 A 
ATOM     19  C   UNL d   1      30.317  16.665 -24.309  0.00  0.00     0.002 A 
ATOM     20  C   UNL d   1      31.033  17.058 -24.292  0.00  0.00     0.025 A 
ENDBRANCH  13  14
ENDBRANCH  12  13
ENDBRANCH  11  12
ENDBRANCH   2  11
TORSDOF 4
ENDMDL
MODEL 3
REMARK VINA RESULT:      -2.1      1.324      1.947
REMARK  4 active torsions:
REMARK  status: ('A' for Active; 'I' for Inactive)
REMARK    1  A    between atoms: C_9  and  N_2 
REMARK    2  A    between atoms: C_7  and  O_10 
REMARK    3  A    between atoms: C_11  and  C_9 
REMARK    4  A    between atoms: O_10  and  C_11 
ROOT
ATOM      1  C   UNL d   1      32.195  23.069 -21.485  0.00  0.00     0.378 A 
ATOM      2  N   UNL d   1      32.764  22.523 -21.217  0.00  0.00    -0.249 N 
ATOM      3  O   UNL d   1      31.871  23.449 -20.823  0.00  0.00    -0.258 OA
ATOM      4  C   UNL d   1      32.788  22.570 -20.391  0.00  0.00     0.092 A 
ATOM      5  C   UNL d   1      32.236  23.142 -20.150  0.00  0.00     0.121 A 
ATOM      6  O   UNL d   1      31.997  23.198 -22.273  0.00  0.00    -0.237 OA
ATOM      7  C   UNL d   1      33.241  22.166 -19.829  0.00  0.00     0.020 A 
ATOM      8  C   UNL d   1      32.144  23.304 -19.339  0.00  0.00     0.026 A 
ATOM      9  C   UNL d   1      33.141  22.335 -19.026  0.00  0.00     0.002 A 
ATOM     10  C   UNL d   1      32.596  22.900 -18.783  0.00  0.00     0.002 A 
ENDROOT
BRANCH   2  11
ATOM     11  C   UNL d   1      33.240  22.010 -21.655  0.00  0.00     0.112 C 
BRANCH  11  12
ATOM     12  C   UNL d   1      32.942  21.290 -21.904  0.00  0.00     0.142 C 
BRANCH  12  13
ATOM     13  O   UNL d   1      33.206  20.959 -22.612  0.00  0.00    -0.304 OA
BRANCH  13  14
ATOM     14  C   UNL d   1      33.143  20.145 -22.736  0.00  0.00     0.100 A 
ATOM     15  C   UNL d   1      33.161  19.854 -23.501  0.00  0.00     0.023 A 
ATOM     16  C   UNL d   1      33.241  20.365 -24.140  0.00  0.00     0.002 C 
ATOM     17  C   UNL d   1      33.099  19.038 -23.633  0.00  0.00     0.002 A 
ATOM     18  C   UNL d   1      33.018  18.527 -22.985  0.00  0.00     0.000 A 
ATOM     19  C   UNL d   1      33.001  18.831 -22.218  0.00  0.00     0.002 A 
ATOM     20  C   UNL d   1      33.063  19.637 -22.097  0.00  0.00     0.025 A 
ENDBRANCH  13  14
ENDBRANCH  12  13
ENDBRANCH  11  12
ENDBRANCH   2  11
TORSDOF 4
ENDMDL
MODEL 4
REMARK VINA RESULT:      -0.3      5.206      5.557
REMARK  4 active torsions:
REMARK  status: ('A' for Active; 'I' for Inactive)
REMARK    1  A    between atoms: C_9  and  N_2 
REMARK    2  A    between atoms: C_7  and  O_10 
REMARK    3  A    between atoms: C_11  and  C_9 
REMARK    4  A    between atoms: O_10  and  C_11 
ROOT
ATOM      1  C   UNL d   1      28.552  16.224 -23.283  0.00  0.00     0.378 A 
ATOM      2  N   UNL d   1      29.115  16.344 -23.885  0.00  0.00    -0.249 N 
ATOM      3  O   UNL d   1      28.046  16.881 -23.269  0.00  0.00    -0.258 OA
ATOM      4  C   UNL d   1      28.953  17.073 -24.239  0.00  0.00     0.092 A 
ATOM      5  C   UNL d   1      28.292  17.404 -23.858  0.00  0.00     0.121 A 
ATOM      6  O   UNL d   1      28.515  15.564 -22.793  0.00  0.00    -0.237 OA
ATOM      7  C   UNL d   1      29.320  17.479 -24.860  0.00  0.00     0.020 A 
ATOM      8  C   UNL d   1      28.007  18.145 -24.106  0.00  0.00     0.026 A 
ATOM      9  C   UNL d   1      29.028  18.214 -25.097  0.00  0.00     0.002 A 
ATOM     10  C   UNL d   1      28.375  18.545 -24.722  0.00  0.00     0.002 A 
ENDROOT
BRANCH   2  11
ATOM     11  C   UNL d   1      29.737  15.854 -24.121  0.00  0.00     0.112 C 
BRANCH  11  12
ATOM     12  C   UNL d   1      30.398  15.777 -23.645  0.00  0.00     0.142 C 
BRANCH  12  13
ATOM     13  O   UNL d   1      31.098  15.478 -23.962  0.00  0.00    -0.304 OA
BRANCH  13  14
ATOM     14  C   UNL d   1      31.815  15.607 -23.572  0.00  0.00     0.100 A 
ATOM     15  C   UNL d   1      32.456  15.890 -23.996  0.00  0.00     0.023 A 
ATOM     16  C   UNL d   1      32.389  16.044 -24.800  0.00  0.00     0.002 C 
ATOM     17  C   UNL d   1      33.178  16.022 -23.611  0.00  0.00     0.002 A 
ATOM     18  C   UNL d   1      33.241  15.864 -22.800  0.00  0.00     0.000 A 
ATOM     19  C   UNL d   1      32.589  15.580 -22.382  0.00  0.00     0.002 A 
ATOM     20  C   UNL d   1      31.881  15.453 -22.769  0.00  0.00     0.025 A 
ENDBRANCH  13  14
ENDBRANCH  12  13
ENDBRANCH  11  12
ENDBRANCH   2  11
TORSDOF 4
ENDMDL
