MODEL 1
REMARK VINA RESULT:      -3.3      0.000      0.000
REMARK  2 active torsions:
REMARK  status: ('A' for Active; 'I' for Inactive)
REMARK       I    between atoms: N_2  and  C_1 
REMARK    1  A    between atoms: C_5  and  C_1 
REMARK    2  A    between atoms: C_7  and  N_2 
ROOT
ATOM      1  C   UNL d   1      29.853  16.051 -23.716  0.00  0.00     0.125 A 
ATOM      2  C   UNL d   1      30.635  16.285 -23.599  0.00  0.00     0.059 A 
ATOM      3  C   UNL d   1      29.482  16.168 -24.443  0.00  0.00     0.123 A 
ATOM      4  C   UNL d   1      31.050  16.638 -24.216  0.00  0.00     0.137 A 
ATOM      5  O   UNL d   1      29.436  15.695 -23.093  0.00  0.00    -0.301 OA
ATOM      6  O   UNL d   1      28.698  15.935 -24.564  0.00  0.00    -0.301 OA
ATOM      7  C   UNL d   1      29.901  16.524 -25.061  0.00  0.00     0.029 A 
ATOM      8  C   UNL d   1      30.682  16.758 -24.949  0.00  0.00     0.034 A 
ATOM      9  C   UNL d   1      28.654  15.460 -23.206  0.00  0.00     0.149 A 
ATOM     10  C   UNL d   1      28.286  15.580 -23.939  0.00  0.00     0.149 A 
ENDROOT
BRANCH   4  11
ATOM     11  N   UNL d   1      31.838  16.876 -24.106  0.00  0.00    -0.365 NA
ATOM     12  C   UNL d   1      32.610  17.113 -23.996  0.00  0.00     0.328 C 
ATOM     13  O   UNL d   1      33.223  16.629 -24.237  0.00  0.00    -0.251 OA
BRANCH  12  14
ATOM     14  C   UNL d   1      32.767  17.834 -23.646  0.00  0.00     0.070 A 
ATOM     15  C   UNL d   1      32.937  17.878 -22.842  0.00  0.00     0.006 A 
ATOM     16  C   UNL d   1      33.095  18.608 -22.492  0.00  0.00     0.000 A 
ATOM     17  C   UNL d   1      33.083  19.302 -22.943  0.00  0.00     0.000 A 
ATOM     18  C   UNL d   1      32.914  19.262 -23.746  0.00  0.00     0.000 A 
ATOM     19  C   UNL d   1      33.241  20.032 -22.593  0.00  0.00     0.000 C 
ATOM     20  C   UNL d   1      32.755  18.527 -24.097  0.00  0.00     0.006 A 
ENDBRANCH  12  14
ENDBRANCH   4  11
TORSDOF 2
ENDMDL
MODEL 2
REMARK VINA RESULT:      -3.0      1.306      4.336
REMARK  2 active torsions:
REMARK  status: ('A' for Active; 'I' for Inactive)
REMARK       I    between atoms: N_2  and  C_1 
REMARK    1  A    between atoms: C_5  and  C_1 
REMARK    2  A    between atoms: C_7  and  N_2 
ROOT
ATOM      1  C   UNL d   1      32.773  19.042 -22.864  0.00  0.00     0.125 A 
ATOM      2  C   UNL d   1      32.539  18.254 -22.940  0.00  0.00     0.059 A 
ATOM      3  C   UNL d   1      33.002  19.479 -23.525  0.00  0.00     0.123 A 
ATOM      4  C   UNL d   1      32.533  17.903 -23.685  0.00  0.00     0.137 A 
ATOM      5  O   UNL d   1      32.778  19.395 -22.114  0.00  0.00    -0.301 OA
ATOM      6  O   UNL d   1      33.238  20.268 -23.452  0.00  0.00    -0.301 OA
ATOM      7  C   UNL d   1      32.995  19.123 -24.272  0.00  0.00     0.029 A 
ATOM      8  C   UNL d   1      32.762  18.338 -24.352  0.00  0.00     0.034 A 
ATOM      9  C   UNL d   1      33.012  20.181 -22.034  0.00  0.00     0.149 A 
ATOM     10  C   UNL d   1      33.241  20.617 -22.701  0.00  0.00     0.149 A 
ENDROOT
BRANCH   4  11
ATOM     11  N   UNL d   1      32.298  17.110 -23.769  0.00  0.00    -0.365 NA
ATOM     12  C   UNL d   1      32.064  16.335 -23.852  0.00  0.00     0.328 C 
ATOM     13  O   UNL d   1      32.622  15.738 -23.854  0.00  0.00    -0.251 OA
BRANCH  12  14
ATOM     14  C   UNL d   1      31.271  16.157 -23.934  0.00  0.00     0.070 A 
ATOM     15  C   UNL d   1      30.930  16.106 -24.681  0.00  0.00     0.006 A 
ATOM     16  C   UNL d   1      30.129  15.926 -24.758  0.00  0.00     0.000 A 
ATOM     17  C   UNL d   1      29.660  15.797 -24.088  0.00  0.00     0.000 A 
ATOM     18  C   UNL d   1      29.997  15.848 -23.341  0.00  0.00     0.000 A 
ATOM     19  C   UNL d   1      28.858  15.618 -24.165  0.00  0.00     0.000 C 
ATOM     20  C   UNL d   1      30.803  16.028 -23.263  0.00  0.00     0.006 A 
ENDBRANCH  12  14
ENDBRANCH   4  11
TORSDOF 2
ENDMDL
MODEL 3
REMARK VINA RESULT:      -2.6      0.768      1.035
REMARK  2 active torsions:
REMARK  status: ('A' for Active; 'I' for Inactive)
REMARK       I    between atoms: N_2  and  C_1 
REMARK    1  A    between atoms: C_5  and  C_1 
REMARK    2  A    between atoms: C_7  and  N_2 
ROOT
ATOM      1  C   UNL d   1      29.289  16.216 -23.664  0.00  0.00     0.125 A 
ATOM      2  C   UNL d   1      30.097  16.360 -23.750  0.00  0.00     0.059 A 
ATOM      3  C   UNL d   1      28.735  16.669 -24.074  0.00  0.00     0.123 A 
ATOM      4  C   UNL d   1      30.351  16.963 -24.250  0.00  0.00     0.137 A 
ATOM      5  O   UNL d   1      29.034  15.609 -23.160  0.00  0.00    -0.301 OA
ATOM      6  O   UNL d   1      27.924  16.528 -23.990  0.00  0.00    -0.301 OA
ATOM      7  C   UNL d   1      28.993  17.274 -24.575  0.00  0.00     0.029 A 
ATOM      8  C   UNL d   1      29.798  17.421 -24.664  0.00  0.00     0.034 A 
ATOM      9  C   UNL d   1      28.228  15.462 -23.072  0.00  0.00     0.149 A 
ATOM     10  C   UNL d   1      27.675  15.920 -23.486  0.00  0.00     0.149 A 
ENDROOT
BRANCH   4  11
ATOM     11  N   UNL d   1      31.163  17.113 -24.341  0.00  0.00    -0.365 NA
ATOM     12  C   UNL d   1      31.958  17.265 -24.429  0.00  0.00     0.328 C 
ATOM     13  O   UNL d   1      32.445  16.706 -24.775  0.00  0.00    -0.251 OA
BRANCH  12  14
ATOM     14  C   UNL d   1      32.266  17.976 -24.171  0.00  0.00     0.070 A 
ATOM     15  C   UNL d   1      32.417  18.583 -24.706  0.00  0.00     0.006 A 
ATOM     16  C   UNL d   1      32.729  19.299 -24.441  0.00  0.00     0.000 A 
ATOM     17  C   UNL d   1      32.892  19.416 -23.638  0.00  0.00     0.000 A 
ATOM     18  C   UNL d   1      32.742  18.812 -23.101  0.00  0.00     0.000 A 
ATOM     19  C   UNL d   1      33.203  20.133 -23.373  0.00  0.00     0.000 C 
ATOM     20  C   UNL d   1      32.429  18.092 -23.368  0.00  0.00     0.006 A 
ENDBRANCH  12  14
ENDBRANCH   4  11
TORSDOF 2
ENDMDL
MODEL 4
REMARK VINA RESULT:      -0.7      2.547      3.891
REMARK  2 active torsions:
REMARK  status: ('A' for Active; 'I' for Inactive)
REMARK       I    between atoms: N_2  and  C_1 
REMARK    1  A    between atoms: C_5  and  C_1 
REMARK    2  A    between atoms: C_7  and  N_2 
ROOT
ATOM      1  C   UNL d   1      32.773  17.947 -23.424  0.00  0.00     0.125 A 
ATOM      2  C   UNL d   1      32.746  18.441 -22.764  0.00  0.00     0.059 A 
ATOM      3  C   UNL d   1      32.839  18.263 -24.183  0.00  0.00     0.123 A 
ATOM      4  C   UNL d   1      32.784  19.257 -22.865  0.00  0.00     0.137 A 
ATOM      5  O   UNL d   1      32.734  17.125 -23.320  0.00  0.00    -0.301 OA
ATOM      6  O   UNL d   1      32.867  17.770 -24.847  0.00  0.00    -0.301 OA
ATOM      7  C   UNL d   1      32.878  19.083 -24.282  0.00  0.00     0.029 A 
ATOM      8  C   UNL d   1      32.851  19.579 -23.627  0.00  0.00     0.034 A 
ATOM      9  C   UNL d   1      32.761  16.629 -23.977  0.00  0.00     0.149 A 
ATOM     10  C   UNL d   1      32.828  16.950 -24.739  0.00  0.00     0.149 A 
ENDROOT
BRANCH   4  11
ATOM     11  N   UNL d   1      32.757  19.761 -22.205  0.00  0.00    -0.365 NA
ATOM     12  C   UNL d   1      32.731  20.258 -21.560  0.00  0.00     0.328 C 
ATOM     13  O   UNL d   1      32.702  19.946 -20.806  0.00  0.00    -0.251 OA
BRANCH  12  14
ATOM     14  C   UNL d   1      32.733  21.067 -21.672  0.00  0.00     0.070 A 
ATOM     15  C   UNL d   1      32.244  21.551 -21.221  0.00  0.00     0.006 A 
ATOM     16  C   UNL d   1      32.250  22.368 -21.337  0.00  0.00     0.000 A 
ATOM     17  C   UNL d   1      32.744  22.708 -21.907  0.00  0.00     0.000 A 
ATOM     18  C   UNL d   1      33.233  22.228 -22.360  0.00  0.00     0.000 A 
ATOM     19  C   UNL d   1      32.749  23.525 -22.023  0.00  0.00     0.000 C 
ATOM     20  C   UNL d   1      33.227  21.407 -22.242  0.00  0.00     0.006 A 
ENDBRANCH  12  14
ENDBRANCH   4  11
TORSDOF 2
ENDMDL
