MODEL 1
REMARK VINA RESULT:      -4.2      0.000      0.000
REMARK  3 active torsions:
REMARK  status: ('A' for Active; 'I' for Inactive)
REMARK    1  A    between atoms: C_8  and  N_1 
REMARK    2  A    between atoms: C_9  and  C_14 
REMARK       I    between atoms: N_10  and  C_9 
REMARK    3  A    between atoms: C_16  and  N_12 
ROOT
ATOM      1  C   UNL d   1     -46.486  13.414  22.352  0.00  0.00     0.066 A 
ATOM      2  C   UNL d   1     -45.084  13.188  22.195  0.00  0.00     0.058 A 
ATOM      3  C   UNL d   1     -45.862  12.912  22.171  0.00  0.00     0.022 A 
ATOM      4  C   UNL d   1     -46.339  14.203  22.561  0.00  0.00     0.017 A 
ATOM      5  C   UNL d   1     -44.937  13.978  22.404  0.00  0.00     0.005 A 
ATOM      6  C   UNL d   1     -45.565  14.480  22.585  0.00  0.00     0.002 A 
ENDROOT
BRANCH   1   7
ATOM      7  N   UNL d   1     -47.260  13.137  22.328  0.00  0.00    -0.261 N 
ATOM      8  C   UNL d   1     -47.493  12.784  23.035  0.00  0.00     0.174 A 
ATOM      9  O   UNL d   1     -48.191  12.424  23.306  0.00  0.00    -0.316 OA
ATOM     10  C   UNL d   1     -48.117  12.960  21.963  0.00  0.00     0.079 A 
ATOM     11  C   UNL d   1     -47.013  12.709  23.698  0.00  0.00     0.055 C 
ATOM     12  C   UNL d   1     -48.934  12.271  22.986  0.00  0.00     0.094 A 
ATOM     13  C   UNL d   1     -49.365  11.886  23.584  0.00  0.00     0.024 A 
ATOM     14  C   UNL d   1     -49.296  12.414  22.256  0.00  0.00     0.022 A 
ATOM     15  C   UNL d   1     -50.144  11.650  23.448  0.00  0.00     0.002 A 
ATOM     16  C   UNL d   1     -50.499  11.797  22.715  0.00  0.00    -0.000 A 
ATOM     17  C   UNL d   1     -50.075  12.179  22.120  0.00  0.00    -0.001 A 
ATOM     18  C   UNL d   1     -49.064  12.768  21.549  0.00  0.00     0.137 A 
ATOM     19  N   UNL d   1     -48.366  13.131  21.269  0.00  0.00    -0.216 NA
ATOM     20  C   UNL d   1     -47.622  13.284  21.590  0.00  0.00     0.348 A 
ATOM     21  O   UNL d   1     -47.127  13.668  21.058  0.00  0.00    -0.245 OA
ENDBRANCH   1   7
BRANCH   2  22
ATOM     22  C   UNL d   1     -44.460  12.678  22.012  0.00  0.00     0.265 C 
ATOM     23  N   UNL d   1     -43.769  12.977  21.680  0.00  0.00    -0.269 N 
ATOM     24  C   UNL d   1     -43.690  13.785  21.525  0.00  0.00     0.102 A 
ATOM     25  C   UNL d   1     -43.143  12.464  21.497  0.00  0.00     0.102 A 
ATOM     26  C   UNL d   1     -42.996  14.075  21.193  0.00  0.00     0.100 A 
ATOM     27  N   UNL d   1     -42.372  13.562  21.010  0.00  0.00    -0.299 N 
ATOM     28  C   UNL d   1     -42.450  12.755  21.164  0.00  0.00     0.100 A 
ATOM     29  O   UNL d   1     -44.534  11.867  22.165  0.00  0.00    -0.267 OA
BRANCH  27  30
ATOM     30  C   UNL d   1     -41.680  13.858  20.678  0.00  0.00     0.092 A 
ATOM     31  C   UNL d   1     -41.026  14.002  21.158  0.00  0.00     0.156 A 
ATOM     32  F   UNL d   1     -41.070  13.850  21.968  0.00  0.00    -0.203 F 
ATOM     33  C   UNL d   1     -40.325  14.300  20.828  0.00  0.00     0.031 A 
ATOM     34  C   UNL d   1     -40.292  14.450  20.011  0.00  0.00     0.002 A 
ATOM     35  C   UNL d   1     -40.953  14.302  19.533  0.00  0.00     0.002 A 
ATOM     36  C   UNL d   1     -41.644  14.007  19.869  0.00  0.00     0.020 A 
ENDBRANCH  27  30
ENDBRANCH   2  22
TORSDOF 3
ENDMDL
MODEL 2
REMARK VINA RESULT:      -3.5      3.892      8.608
REMARK  3 active torsions:
REMARK  status: ('A' for Active; 'I' for Inactive)
REMARK    1  A    between atoms: C_8  and  N_1 
REMARK    2  A    between atoms: C_9  and  C_14 
REMARK       I    between atoms: N_10  and  C_9 
REMARK    3  A    between atoms: C_16  and  N_12 
ROOT
ATOM      1  C   UNL d   1     -38.774  14.563  19.112  0.00  0.00     0.066 A 
ATOM      2  C   UNL d   1     -39.625  14.770  20.241  0.00  0.00     0.058 A 
ATOM      3  C   UNL d   1     -39.450  14.892  19.444  0.00  0.00     0.022 A 
ATOM      4  C   UNL d   1     -38.262  14.106  19.577  0.00  0.00     0.017 A 
ATOM      5  C   UNL d   1     -39.112  14.312  20.707  0.00  0.00     0.005 A 
ATOM      6  C   UNL d   1     -38.435  13.983  20.372  0.00  0.00     0.002 A 
ENDROOT
BRANCH   1   7
ATOM      7  N   UNL d   1     -38.601  14.686  18.317  0.00  0.00    -0.261 N 
ATOM      8  C   UNL d   1     -38.743  14.018  17.856  0.00  0.00     0.174 A 
ATOM      9  O   UNL d   1     -38.666  13.840  17.048  0.00  0.00    -0.316 OA
ATOM     10  C   UNL d   1     -38.318  15.155  17.543  0.00  0.00     0.079 A 
ATOM     11  C   UNL d   1     -39.026  13.303  18.145  0.00  0.00     0.055 C 
ATOM     12  C   UNL d   1     -38.420  14.250  16.378  0.00  0.00     0.094 A 
ATOM     13  C   UNL d   1     -38.489  13.715  15.745  0.00  0.00     0.024 A 
ATOM     14  C   UNL d   1     -38.144  15.016  16.231  0.00  0.00     0.022 A 
ATOM     15  C   UNL d   1     -38.285  13.948  14.980  0.00  0.00     0.002 A 
ATOM     16  C   UNL d   1     -38.010  14.716  14.841  0.00  0.00    -0.000 A 
ATOM     17  C   UNL d   1     -37.940  15.249  15.466  0.00  0.00    -0.001 A 
ATOM     18  C   UNL d   1     -38.002  15.684  16.692  0.00  0.00     0.137 A 
ATOM     19  N   UNL d   1     -38.076  15.870  17.503  0.00  0.00    -0.216 NA
ATOM     20  C   UNL d   1     -38.323  15.460  18.173  0.00  0.00     0.348 A 
ATOM     21  O   UNL d   1     -38.286  15.921  18.853  0.00  0.00    -0.245 OA
ENDBRANCH   1   7
BRANCH   2  22
ATOM     22  C   UNL d   1     -40.306  15.103  20.569  0.00  0.00     0.265 C 
ATOM     23  N   UNL d   1     -40.940  14.621  20.776  0.00  0.00    -0.269 N 
ATOM     24  C   UNL d   1     -40.905  13.804  20.660  0.00  0.00     0.102 A 
ATOM     25  C   UNL d   1     -41.624  14.958  21.106  0.00  0.00     0.102 A 
ATOM     26  C   UNL d   1     -41.544  13.330  20.870  0.00  0.00     0.100 A 
ATOM     27  N   UNL d   1     -42.226  13.666  21.199  0.00  0.00    -0.299 N 
ATOM     28  C   UNL d   1     -42.261  14.483  21.315  0.00  0.00     0.100 A 
ATOM     29  O   UNL d   1     -40.347  15.922  20.688  0.00  0.00    -0.267 OA
BRANCH  27  30
ATOM     30  C   UNL d   1     -42.862  13.188  21.407  0.00  0.00     0.092 A 
ATOM     31  C   UNL d   1     -42.740  12.539  21.902  0.00  0.00     0.156 A 
ATOM     32  F   UNL d   1     -41.982  12.375  22.184  0.00  0.00    -0.203 F 
ATOM     33  C   UNL d   1     -43.378  12.053  22.115  0.00  0.00     0.031 A 
ATOM     34  C   UNL d   1     -44.137  12.228  21.824  0.00  0.00     0.002 A 
ATOM     35  C   UNL d   1     -44.253  12.881  21.327  0.00  0.00     0.002 A 
ATOM     36  C   UNL d   1     -43.615  13.358  21.121  0.00  0.00     0.020 A 
ENDBRANCH  27  30
ENDBRANCH   2  22
TORSDOF 3
ENDMDL
MODEL 3
REMARK VINA RESULT:      -3.1      2.514      7.477
REMARK  3 active torsions:
REMARK  status: ('A' for Active; 'I' for Inactive)
REMARK    1  A    between atoms: C_8  and  N_1 
REMARK    2  A    between atoms: C_9  and  C_14 
REMARK       I    between atoms: N_10  and  C_9 
REMARK    3  A    between atoms: C_16  and  N_12 
ROOT
ATOM      1  C   UNL d   1     -40.845  14.531  19.835  0.00  0.00     0.066 A 
ATOM      2  C   UNL d   1     -41.579  13.920  20.898  0.00  0.00     0.058 A 
ATOM      3  C   UNL d   1     -41.204  13.870  20.164  0.00  0.00     0.022 A 
ATOM      4  C   UNL d   1     -40.857  15.256  20.238  0.00  0.00     0.017 A 
ATOM      5  C   UNL d   1     -41.591  14.646  21.302  0.00  0.00     0.005 A 
ATOM      6  C   UNL d   1     -41.231  15.308  20.969  0.00  0.00     0.002 A 
ENDROOT
BRANCH   1   7
ATOM      7  N   UNL d   1     -40.472  14.479  19.104  0.00  0.00    -0.261 N 
ATOM      8  C   UNL d   1     -39.687  14.237  19.166  0.00  0.00     0.174 A 
ATOM      9  O   UNL d   1     -39.074  14.097  18.622  0.00  0.00    -0.316 OA
ATOM     10  C   UNL d   1     -40.378  14.529  18.161  0.00  0.00     0.079 A 
ATOM     11  C   UNL d   1     -39.307  14.063  19.873  0.00  0.00     0.055 C 
ATOM     12  C   UNL d   1     -38.996  14.142  17.803  0.00  0.00     0.094 A 
ATOM     13  C   UNL d   1     -38.212  13.919  17.637  0.00  0.00     0.024 A 
ATOM     14  C   UNL d   1     -39.498  14.346  17.178  0.00  0.00     0.022 A 
ATOM     15  C   UNL d   1     -37.942  13.903  16.858  0.00  0.00     0.002 A 
ATOM     16  C   UNL d   1     -38.450  14.108  16.238  0.00  0.00    -0.000 A 
ATOM     17  C   UNL d   1     -39.228  14.329  16.399  0.00  0.00    -0.001 A 
ATOM     18  C   UNL d   1     -40.284  14.588  17.116  0.00  0.00     0.137 A 
ATOM     19  N   UNL d   1     -40.904  14.730  17.657  0.00  0.00    -0.216 NA
ATOM     20  C   UNL d   1     -40.982  14.686  18.476  0.00  0.00     0.348 A 
ATOM     21  O   UNL d   1     -41.737  14.892  18.729  0.00  0.00    -0.245 OA
ENDBRANCH   1   7
BRANCH   2  22
ATOM     22  C   UNL d   1     -41.938  13.251  21.224  0.00  0.00     0.265 C 
ATOM     23  N   UNL d   1     -42.738  13.267  21.415  0.00  0.00    -0.269 N 
ATOM     24  C   UNL d   1     -43.190  13.945  21.285  0.00  0.00     0.102 A 
ATOM     25  C   UNL d   1     -43.097  12.593  21.743  0.00  0.00     0.102 A 
ATOM     26  C   UNL d   1     -43.990  13.952  21.479  0.00  0.00     0.100 A 
ATOM     27  N   UNL d   1     -44.348  13.280  21.806  0.00  0.00    -0.299 N 
ATOM     28  C   UNL d   1     -43.896  12.601  21.937  0.00  0.00     0.100 A 
ATOM     29  O   UNL d   1     -41.489  12.568  21.357  0.00  0.00    -0.267 OA
BRANCH  27  30
ATOM     30  C   UNL d   1     -45.147  13.291  21.998  0.00  0.00     0.092 A 
ATOM     31  C   UNL d   1     -45.689  12.903  21.513  0.00  0.00     0.156 A 
ATOM     32  F   UNL d   1     -45.426  12.507  20.838  0.00  0.00    -0.203 F 
ATOM     33  C   UNL d   1     -46.497  12.912  21.702  0.00  0.00     0.031 A 
ATOM     34  C   UNL d   1     -46.751  13.314  22.384  0.00  0.00     0.002 A 
ATOM     35  C   UNL d   1     -46.201  13.702  22.868  0.00  0.00     0.002 A 
ATOM     36  C   UNL d   1     -45.402  13.688  22.672  0.00  0.00     0.020 A 
ENDBRANCH  27  30
ENDBRANCH   2  22
TORSDOF 3
ENDMDL
MODEL 4
REMARK VINA RESULT:      -3.0      6.596      9.403
REMARK  3 active torsions:
REMARK  status: ('A' for Active; 'I' for Inactive)
REMARK    1  A    between atoms: C_8  and  N_1 
REMARK    2  A    between atoms: C_9  and  C_14 
REMARK       I    between atoms: N_10  and  C_9 
REMARK    3  A    between atoms: C_16  and  N_12 
ROOT
ATOM      1  C   UNL d   1     -38.446  14.876  17.366  0.00  0.00     0.066 A 
ATOM      2  C   UNL d   1     -39.156  15.080  18.589  0.00  0.00     0.058 A 
ATOM      3  C   UNL d   1     -39.048  14.667  17.883  0.00  0.00     0.022 A 
ATOM      4  C   UNL d   1     -37.940  15.507  17.550  0.00  0.00     0.017 A 
ATOM      5  C   UNL d   1     -38.649  15.712  18.774  0.00  0.00     0.005 A 
ATOM      6  C   UNL d   1     -38.045  15.920  18.253  0.00  0.00     0.002 A 
ENDROOT
BRANCH   1   7
ATOM      7  N   UNL d   1     -38.341  14.463  16.662  0.00  0.00    -0.261 N 
ATOM      8  C   UNL d   1     -38.406  14.946  15.998  0.00  0.00     0.174 A 
ATOM      9  O   UNL d   1     -38.351  14.822  15.178  0.00  0.00    -0.316 OA
ATOM     10  C   UNL d   1     -38.178  13.717  16.099  0.00  0.00     0.079 A 
ATOM     11  C   UNL d   1     -38.559  15.752  16.022  0.00  0.00     0.055 C 
ATOM     12  C   UNL d   1     -38.209  14.172  14.692  0.00  0.00     0.094 A 
ATOM     13  C   UNL d   1     -38.234  14.462  13.913  0.00  0.00     0.024 A 
ATOM     14  C   UNL d   1     -38.063  13.368  14.819  0.00  0.00     0.022 A 
ATOM     15  C   UNL d   1     -38.113  13.952  13.276  0.00  0.00     0.002 A 
ATOM     16  C   UNL d   1     -37.967  13.149  13.411  0.00  0.00    -0.000 A 
ATOM     17  C   UNL d   1     -37.942  12.858  14.183  0.00  0.00    -0.001 A 
ATOM     18  C   UNL d   1     -37.998  12.885  15.483  0.00  0.00     0.137 A 
ATOM     19  N   UNL d   1     -38.052  13.002  16.308  0.00  0.00    -0.216 NA
ATOM     20  C   UNL d   1     -38.193  13.652  16.795  0.00  0.00     0.348 A 
ATOM     21  O   UNL d   1     -38.187  13.451  17.592  0.00  0.00    -0.245 OA
ENDBRANCH   1   7
BRANCH   2  22
ATOM     22  C   UNL d   1     -39.763  14.865  19.105  0.00  0.00     0.265 C 
ATOM     23  N   UNL d   1     -39.583  14.586  19.858  0.00  0.00    -0.269 N 
ATOM     24  C   UNL d   1     -38.799  14.518  20.107  0.00  0.00     0.102 A 
ATOM     25  C   UNL d   1     -40.196  14.370  20.376  0.00  0.00     0.102 A 
ATOM     26  C   UNL d   1     -38.628  14.239  20.861  0.00  0.00     0.100 A 
ATOM     27  N   UNL d   1     -39.239  14.023  21.378  0.00  0.00    -0.299 N 
ATOM     28  C   UNL d   1     -40.024  14.091  21.129  0.00  0.00     0.100 A 
ATOM     29  O   UNL d   1     -40.552  14.931  18.861  0.00  0.00    -0.267 OA
BRANCH  27  30
ATOM     30  C   UNL d   1     -39.063  13.744  22.131  0.00  0.00     0.092 A 
ATOM     31  C   UNL d   1     -39.658  13.405  22.590  0.00  0.00     0.156 A 
ATOM     32  F   UNL d   1     -40.426  13.348  22.291  0.00  0.00    -0.203 F 
ATOM     33  C   UNL d   1     -39.486  13.122  23.351  0.00  0.00     0.031 A 
ATOM     34  C   UNL d   1     -38.711  13.185  23.642  0.00  0.00     0.002 A 
ATOM     35  C   UNL d   1     -38.116  13.527  23.176  0.00  0.00     0.002 A 
ATOM     36  C   UNL d   1     -38.296  13.805  22.422  0.00  0.00     0.020 A 
ENDBRANCH  27  30
ENDBRANCH   2  22
TORSDOF 3
ENDMDL
