MODEL 1
REMARK VINA RESULT:      -5.7      0.000      0.000
REMARK  10 active torsions:
REMARK  status: ('A' for Active; 'I' for Inactive)
REMARK    1  A    between atoms: C_11  and  S_1 
REMARK    2  A    between atoms: N_12  and  S_1 
REMARK    3  A    between atoms: C_2  and  O_7 
REMARK    4  A    between atoms: C_3  and  S_18 
REMARK    5  A    between atoms: C_6  and  C_17 
REMARK    6  A    between atoms: O_7  and  C_6 
REMARK    7  A    between atoms: C_29  and  N_12 
REMARK    8  A    between atoms: C_30  and  N_12 
REMARK    9  A    between atoms: C_28  and  C_14 
REMARK   10  A    between atoms: S_18  and  C_28 
ROOT
ATOM      1  C   UNL d   1     -44.374  12.606  21.920  0.00  0.00     0.167 A 
ATOM      2  C   UNL d   1     -43.756  12.131  22.208  0.00  0.00     0.222 A 
ATOM      3  C   UNL d   1     -42.986  12.276  21.933  0.00  0.00     0.069 A 
ATOM      4  C   UNL d   1     -44.226  13.207  21.373  0.00  0.00     0.151 A 
ATOM      5  O   UNL d   1     -43.458  13.339  21.109  0.00  0.00    -0.302 OA
ATOM      6  C   UNL d   1     -42.838  12.877  21.386  0.00  0.00     0.110 A 
ATOM      7  O   UNL d   1     -43.903  11.535  22.750  0.00  0.00    -0.284 OA
ENDROOT
BRANCH   1   8
ATOM      8  O   UNL d   1     -45.193  12.633  22.056  0.00  0.00    -0.268 OA
BRANCH   8   9
ATOM      9  C   UNL d   1     -45.533  13.303  22.397  0.00  0.00     0.300 C 
ATOM     10  O   UNL d   1     -45.058  13.950  22.570  0.00  0.00    -0.259 OA
BRANCH   9  11
ATOM     11  C   UNL d   1     -46.338  13.317  22.559  0.00  0.00     0.064 A 
ATOM     12  C   UNL d   1     -46.895  13.405  21.951  0.00  0.00     0.006 A 
ATOM     13  C   UNL d   1     -47.679  13.417  22.118  0.00  0.00     0.013 A 
ATOM     14  C   UNL d   1     -47.943  13.344  22.880  0.00  0.00     0.104 A 
ATOM     15  C   UNL d   1     -47.403  13.257  23.487  0.00  0.00     0.013 A 
ATOM     16  C   UNL d   1     -46.603  13.242  23.337  0.00  0.00     0.006 A 
BRANCH  14  17
ATOM     17  S   UNL d   1     -48.757  13.357  23.053  0.00  0.00     0.271 S 
ATOM     18  O   UNL d   1     -48.492  14.143  23.154  0.00  0.00    -0.200 OA
ATOM     19  O   UNL d   1     -49.518  13.601  23.262  0.00  0.00    -0.200 OA
BRANCH  17  20
ATOM     20  N   UNL d   1     -49.205  12.675  23.012  0.00  0.00    -0.229 N 
BRANCH  20  21
ATOM     21  C   UNL d   1     -49.482  12.415  22.291  0.00  0.00     0.092 C 
ATOM     22  C   UNL d   1     -50.269  12.173  22.208  0.00  0.00     0.021 C 
ENDBRANCH  20  21
BRANCH  20  23
ATOM     23  C   UNL d   1     -49.375  12.250  23.698  0.00  0.00     0.092 C 
ATOM     24  C   UNL d   1     -49.590  11.462  23.653  0.00  0.00     0.021 C 
ENDBRANCH  20  23
ENDBRANCH  17  20
ENDBRANCH  14  17
ENDBRANCH   9  11
ENDBRANCH   8   9
ENDBRANCH   1   8
BRANCH   6  25
ATOM     25  C   UNL d   1     -42.070  13.012  21.119  0.00  0.00     0.063 C 
BRANCH  25  26
ATOM     26  S   UNL d   1     -42.033  13.829  20.987  0.00  0.00    -0.046 SA
BRANCH  26  27
ATOM     27  C   UNL d   1     -41.336  14.173  20.725  0.00  0.00     0.194 A 
ATOM     28  N   UNL d   1     -40.850  14.568  21.259  0.00  0.00    -0.221 NA
ATOM     29  C   UNL d   1     -40.157  14.910  21.002  0.00  0.00     0.085 A 
ATOM     30  C   UNL d   1     -39.672  15.304  21.536  0.00  0.00     0.021 C 
ATOM     31  C   UNL d   1     -39.939  14.862  20.205  0.00  0.00     0.038 A 
ATOM     32  C   UNL d   1     -40.435  14.463  19.678  0.00  0.00     0.085 A 
ATOM     33  N   UNL d   1     -41.129  14.122  19.944  0.00  0.00    -0.221 NA
ATOM     34  C   UNL d   1     -40.217  14.415  18.881  0.00  0.00     0.021 C 
ENDBRANCH  26  27
ENDBRANCH  25  26
ENDBRANCH   6  25
TORSDOF 10
ENDMDL
MODEL 2
REMARK VINA RESULT:      -4.7      1.430      7.099
REMARK  10 active torsions:
REMARK  status: ('A' for Active; 'I' for Inactive)
REMARK    1  A    between atoms: C_11  and  S_1 
REMARK    2  A    between atoms: N_12  and  S_1 
REMARK    3  A    between atoms: C_2  and  O_7 
REMARK    4  A    between atoms: C_3  and  S_18 
REMARK    5  A    between atoms: C_6  and  C_17 
REMARK    6  A    between atoms: O_7  and  C_6 
REMARK    7  A    between atoms: C_29  and  N_12 
REMARK    8  A    between atoms: C_30  and  N_12 
REMARK    9  A    between atoms: C_28  and  C_14 
REMARK   10  A    between atoms: S_18  and  C_28 
ROOT
ATOM      1  C   UNL d   1     -45.084  13.072  22.431  0.00  0.00     0.167 A 
ATOM      2  C   UNL d   1     -45.475  12.455  22.827  0.00  0.00     0.222 A 
ATOM      3  C   UNL d   1     -46.304  12.475  22.869  0.00  0.00     0.069 A 
ATOM      4  C   UNL d   1     -45.510  13.691  22.087  0.00  0.00     0.151 A 
ATOM      5  O   UNL d   1     -46.331  13.699  22.136  0.00  0.00    -0.302 OA
ATOM      6  C   UNL d   1     -46.730  13.094  22.525  0.00  0.00     0.110 A 
ATOM      7  O   UNL d   1     -45.053  11.842  23.167  0.00  0.00    -0.284 OA
ENDROOT
BRANCH   1   8
ATOM      8  O   UNL d   1     -44.287  13.245  22.275  0.00  0.00    -0.268 OA
BRANCH   8   9
ATOM      9  C   UNL d   1     -43.960  13.062  21.540  0.00  0.00     0.300 C 
ATOM     10  O   UNL d   1     -44.398  12.619  21.006  0.00  0.00    -0.259 OA
BRANCH   9  11
ATOM     11  C   UNL d   1     -43.204  13.321  21.351  0.00  0.00     0.064 A 
ATOM     12  C   UNL d   1     -43.034  14.131  21.288  0.00  0.00     0.006 A 
ATOM     13  C   UNL d   1     -42.293  14.376  21.103  0.00  0.00     0.013 A 
ATOM     14  C   UNL d   1     -41.698  13.842  20.975  0.00  0.00     0.104 A 
ATOM     15  C   UNL d   1     -41.855  13.041  21.035  0.00  0.00     0.013 A 
ATOM     16  C   UNL d   1     -42.601  12.774  21.221  0.00  0.00     0.006 A 
BRANCH  14  17
ATOM     17  S   UNL d   1     -40.930  14.096  20.783  0.00  0.00     0.271 S 
ATOM     18  O   UNL d   1     -40.863  13.714  21.522  0.00  0.00    -0.200 OA
ATOM     19  O   UNL d   1     -40.117  14.246  20.802  0.00  0.00    -0.200 OA
BRANCH  17  20
ATOM     20  N   UNL d   1     -40.783  14.498  20.086  0.00  0.00    -0.229 N 
BRANCH  20  21
ATOM     21  C   UNL d   1     -40.789  15.312  20.079  0.00  0.00     0.092 C 
ATOM     22  C   UNL d   1     -40.249  15.731  19.611  0.00  0.00     0.021 C 
ENDBRANCH  20  21
BRANCH  20  23
ATOM     23  C   UNL d   1     -40.630  14.079  19.392  0.00  0.00     0.092 C 
ATOM     24  C   UNL d   1     -40.532  14.475  18.684  0.00  0.00     0.021 C 
ENDBRANCH  20  23
ENDBRANCH  17  20
ENDBRANCH  14  17
ENDBRANCH   9  11
ENDBRANCH   8   9
ENDBRANCH   1   8
BRANCH   6  25
ATOM     25  C   UNL d   1     -47.553  13.105  22.572  0.00  0.00     0.063 C 
BRANCH  25  26
ATOM     26  S   UNL d   1     -47.762  13.897  22.446  0.00  0.00    -0.046 SA
BRANCH  26  27
ATOM     27  C   UNL d   1     -48.549  14.124  22.471  0.00  0.00     0.194 A 
ATOM     28  N   UNL d   1     -48.788  14.710  22.998  0.00  0.00    -0.221 NA
ATOM     29  C   UNL d   1     -49.570  14.937  23.025  0.00  0.00     0.085 A 
ATOM     30  C   UNL d   1     -49.808  15.523  23.551  0.00  0.00     0.021 C 
ATOM     31  C   UNL d   1     -50.126  14.581  22.525  0.00  0.00     0.038 A 
ATOM     32  C   UNL d   1     -49.874  13.994  22.001  0.00  0.00     0.085 A 
ATOM     33  N   UNL d   1     -49.087  13.772  21.980  0.00  0.00    -0.221 NA
ATOM     34  C   UNL d   1     -50.429  13.638  21.501  0.00  0.00     0.021 C 
ENDBRANCH  26  27
ENDBRANCH  25  26
ENDBRANCH   6  25
TORSDOF 10
ENDMDL
MODEL 3
REMARK VINA RESULT:      -4.4      1.690      7.397
REMARK  10 active torsions:
REMARK  status: ('A' for Active; 'I' for Inactive)
REMARK    1  A    between atoms: C_11  and  S_1 
REMARK    2  A    between atoms: N_12  and  S_1 
REMARK    3  A    between atoms: C_2  and  O_7 
REMARK    4  A    between atoms: C_3  and  S_18 
REMARK    5  A    between atoms: C_6  and  C_17 
REMARK    6  A    between atoms: O_7  and  C_6 
REMARK    7  A    between atoms: C_29  and  N_12 
REMARK    8  A    between atoms: C_30  and  N_12 
REMARK    9  A    between atoms: C_28  and  C_14 
REMARK   10  A    between atoms: S_18  and  C_28 
ROOT
ATOM      1  C   UNL d   1     -43.518  12.973  21.905  0.00  0.00     0.167 A 
ATOM      2  C   UNL d   1     -43.854  12.258  22.163  0.00  0.00     0.222 A 
ATOM      3  C   UNL d   1     -44.682  12.203  22.203  0.00  0.00     0.069 A 
ATOM      4  C   UNL d   1     -43.996  13.613  21.693  0.00  0.00     0.151 A 
ATOM      5  O   UNL d   1     -44.814  13.545  21.738  0.00  0.00    -0.302 OA
ATOM      6  C   UNL d   1     -45.160  12.843  21.991  0.00  0.00     0.110 A 
ATOM      7  O   UNL d   1     -43.382  11.624  22.372  0.00  0.00    -0.284 OA
ENDROOT
BRANCH   1   8
ATOM      8  O   UNL d   1     -42.739  13.237  21.793  0.00  0.00    -0.268 OA
BRANCH   8   9
ATOM      9  C   UNL d   1     -42.408  13.240  21.037  0.00  0.00     0.300 C 
ATOM     10  O   UNL d   1     -42.777  12.820  20.436  0.00  0.00    -0.259 OA
BRANCH   9  11
ATOM     11  C   UNL d   1     -41.717  13.659  20.894  0.00  0.00     0.064 A 
ATOM     12  C   UNL d   1     -41.627  14.111  20.204  0.00  0.00     0.006 A 
ATOM     13  C   UNL d   1     -40.948  14.518  20.072  0.00  0.00     0.013 A 
ATOM     14  C   UNL d   1     -40.340  14.497  20.606  0.00  0.00     0.104 A 
ATOM     15  C   UNL d   1     -40.418  14.054  21.289  0.00  0.00     0.013 A 
ATOM     16  C   UNL d   1     -41.099  13.635  21.440  0.00  0.00     0.006 A 
BRANCH  14  17
ATOM     17  S   UNL d   1     -39.636  14.919  20.469  0.00  0.00     0.271 S 
ATOM     18  O   UNL d   1     -40.101  15.408  20.960  0.00  0.00    -0.200 OA
ATOM     19  O   UNL d   1     -39.047  15.498  20.472  0.00  0.00    -0.200 OA
BRANCH  17  20
ATOM     20  N   UNL d   1     -39.043  14.604  20.003  0.00  0.00    -0.229 N 
BRANCH  20  21
ATOM     21  C   UNL d   1     -38.442  14.175  20.347  0.00  0.00     0.092 C 
ATOM     22  C   UNL d   1     -37.943  13.705  19.882  0.00  0.00     0.021 C 
ENDBRANCH  20  21
BRANCH  20  23
ATOM     23  C   UNL d   1     -39.053  14.719  19.186  0.00  0.00     0.092 C 
ATOM     24  C   UNL d   1     -38.384  14.983  18.798  0.00  0.00     0.021 C 
ENDBRANCH  20  23
ENDBRANCH  17  20
ENDBRANCH  14  17
ENDBRANCH   9  11
ENDBRANCH   8   9
ENDBRANCH   1   8
BRANCH   6  25
ATOM     25  C   UNL d   1     -45.981  12.778  22.035  0.00  0.00     0.063 C 
BRANCH  25  26
ATOM     26  S   UNL d   1     -46.213  13.378  22.557  0.00  0.00    -0.046 SA
BRANCH  26  27
ATOM     27  C   UNL d   1     -47.007  13.495  22.723  0.00  0.00     0.194 A 
ATOM     28  N   UNL d   1     -47.340  14.241  22.623  0.00  0.00    -0.221 NA
ATOM     29  C   UNL d   1     -48.129  14.360  22.787  0.00  0.00     0.085 A 
ATOM     30  C   UNL d   1     -48.460  15.106  22.686  0.00  0.00     0.021 C 
ATOM     31  C   UNL d   1     -48.598  13.732  23.054  0.00  0.00     0.038 A 
ATOM     32  C   UNL d   1     -48.253  12.988  23.151  0.00  0.00     0.085 A 
ATOM     33  N   UNL d   1     -47.460  12.877  22.984  0.00  0.00    -0.221 NA
ATOM     34  C   UNL d   1     -48.722  12.360  23.419  0.00  0.00     0.021 C 
ENDBRANCH  26  27
ENDBRANCH  25  26
ENDBRANCH   6  25
TORSDOF 10
ENDMDL
