MODEL 1
REMARK VINA RESULT:      -9.9      0.000      0.000
REMARK  5 active torsions:
REMARK  status: ('A' for Active; 'I' for Inactive)
REMARK    1  A    between atoms: C_6  and  C_1 
REMARK    2  A    between atoms: C_11  and  N_3 
REMARK    3  A    between atoms: C_16  and  C_11 
REMARK    4  A    between atoms: C_13  and  O_15 
REMARK    5  A    between atoms: O_15  and  C_16 
ROOT
ATOM      1  C   UNL d   1      53.330  33.842  54.188  0.00  0.00     0.171 A 
ATOM      2  N   UNL d   1      52.809  34.486  54.187  0.00  0.00    -0.225 NA
ATOM      3  N   UNL d   1      53.091  33.315  53.590  0.00  0.00    -0.286 N 
ATOM      4  C   UNL d   1      52.423  33.633  53.219  0.00  0.00     0.083 A 
ATOM      5  C   UNL d   1      52.247  34.357  53.587  0.00  0.00     0.099 A 
ATOM      6  C   UNL d   1      51.941  33.366  52.591  0.00  0.00     0.019 A 
ATOM      7  C   UNL d   1      51.598  34.808  53.330  0.00  0.00     0.021 A 
ATOM      8  C   UNL d   1      51.298  33.816  52.339  0.00  0.00     0.002 A 
ATOM      9  C   UNL d   1      51.126  34.539  52.709  0.00  0.00     0.002 A 
ENDROOT
BRANCH   3  10
ATOM     10  C   UNL d   1      53.562  32.641  53.525  0.00  0.00     0.108 C 
BRANCH  10  11
ATOM     11  C   UNL d   1      53.212  31.909  53.374  0.00  0.00     0.142 C 
BRANCH  11  12
ATOM     12  O   UNL d   1      53.685  31.236  53.299  0.00  0.00    -0.304 OA
BRANCH  12  13
ATOM     13  C   UNL d   1      53.356  30.489  53.419  0.00  0.00     0.100 A 
ATOM     14  C   UNL d   1      53.572  30.057  54.088  0.00  0.00     0.025 A 
ATOM     15  C   UNL d   1      53.247  29.308  54.214  0.00  0.00     0.002 A 
ATOM     16  C   UNL d   1      53.457  28.869  54.880  0.00  0.00     0.000 C 
ATOM     17  C   UNL d   1      52.705  28.998  53.665  0.00  0.00     0.000 A 
ATOM     18  C   UNL d   1      52.494  29.437  52.999  0.00  0.00     0.002 A 
ATOM     19  C   UNL d   1      52.823  30.184  52.879  0.00  0.00     0.025 A 
ENDBRANCH  12  13
ENDBRANCH  11  12
ENDBRANCH  10  11
ENDBRANCH   3  10
BRANCH   1  20
ATOM     20  C   UNL d   1      53.974  33.741  54.695  0.00  0.00     0.134 A 
ATOM     21  O   UNL d   1      54.066  33.476  55.359  0.00  0.00    -0.302 OA
ATOM     22  C   UNL d   1      54.719  33.464  55.657  0.00  0.00     0.123 A 
ATOM     23  C   UNL d   1      55.292  33.720  55.292  0.00  0.00     0.029 A 
ATOM     24  C   UNL d   1      55.198  33.983  54.630  0.00  0.00     0.030 A 
ENDBRANCH   1  20
TORSDOF 5
ENDMDL
MODEL 2
REMARK VINA RESULT:      -9.8      1.159      3.885
REMARK  5 active torsions:
REMARK  status: ('A' for Active; 'I' for Inactive)
REMARK    1  A    between atoms: C_6  and  C_1 
REMARK    2  A    between atoms: C_11  and  N_3 
REMARK    3  A    between atoms: C_16  and  C_11 
REMARK    4  A    between atoms: C_13  and  O_15 
REMARK    5  A    between atoms: O_15  and  C_16 
ROOT
ATOM      1  C   UNL d   1      53.975  32.036  54.031  0.00  0.00     0.171 A 
ATOM      2  N   UNL d   1      54.103  31.248  54.251  0.00  0.00    -0.225 NA
ATOM      3  N   UNL d   1      53.377  32.050  53.452  0.00  0.00    -0.286 N 
ATOM      4  C   UNL d   1      53.136  31.270  53.314  0.00  0.00     0.083 A 
ATOM      5  C   UNL d   1      53.584  30.773  53.807  0.00  0.00     0.099 A 
ATOM      6  C   UNL d   1      52.566  30.935  52.804  0.00  0.00     0.019 A 
ATOM      7  C   UNL d   1      53.463  29.951  53.790  0.00  0.00     0.021 A 
ATOM      8  C   UNL d   1      52.449  30.118  52.789  0.00  0.00     0.002 A 
ATOM      9  C   UNL d   1      52.899  29.625  53.284  0.00  0.00     0.002 A 
ENDROOT
BRANCH   3  10
ATOM     10  C   UNL d   1      53.188  32.805  53.178  0.00  0.00     0.108 C 
BRANCH  10  11
ATOM     11  C   UNL d   1      52.405  32.991  52.995  0.00  0.00     0.142 C 
BRANCH  11  12
ATOM     12  O   UNL d   1      52.231  33.701  52.614  0.00  0.00    -0.304 OA
BRANCH  12  13
ATOM     13  C   UNL d   1      51.460  33.996  52.628  0.00  0.00     0.100 A 
ATOM     14  C   UNL d   1      51.019  34.003  51.930  0.00  0.00     0.025 A 
ATOM     15  C   UNL d   1      50.246  34.297  51.938  0.00  0.00     0.002 A 
ATOM     16  C   UNL d   1      49.798  34.307  51.246  0.00  0.00     0.000 C 
ATOM     17  C   UNL d   1      49.922  34.582  52.648  0.00  0.00     0.000 A 
ATOM     18  C   UNL d   1      50.371  34.571  53.340  0.00  0.00     0.002 A 
ATOM     19  C   UNL d   1      51.141  34.277  53.327  0.00  0.00     0.025 A 
ENDBRANCH  12  13
ENDBRANCH  11  12
ENDBRANCH  10  11
ENDBRANCH   3  10
BRANCH   1  20
ATOM     20  C   UNL d   1      54.371  32.694  54.334  0.00  0.00     0.134 A 
ATOM     21  O   UNL d   1      54.897  33.128  54.100  0.00  0.00    -0.302 OA
ATOM     22  C   UNL d   1      55.128  33.671  54.508  0.00  0.00     0.123 A 
ATOM     23  C   UNL d   1      54.833  33.789  55.160  0.00  0.00     0.029 A 
ATOM     24  C   UNL d   1      54.309  33.356  55.392  0.00  0.00     0.030 A 
ENDBRANCH   1  20
TORSDOF 5
ENDMDL
MODEL 3
REMARK VINA RESULT:      -9.4      0.880      2.607
REMARK  5 active torsions:
REMARK  status: ('A' for Active; 'I' for Inactive)
REMARK    1  A    between atoms: C_6  and  C_1 
REMARK    2  A    between atoms: C_11  and  N_3 
REMARK    3  A    between atoms: C_16  and  C_11 
REMARK    4  A    between atoms: C_13  and  O_15 
REMARK    5  A    between atoms: O_15  and  C_16 
ROOT
ATOM      1  C   UNL d   1      52.779  33.994  53.659  0.00  0.00     0.171 A 
ATOM      2  N   UNL d   1      53.013  34.600  54.172  0.00  0.00    -0.225 NA
ATOM      3  N   UNL d   1      53.313  33.361  53.746  0.00  0.00    -0.286 N 
ATOM      4  C   UNL d   1      53.876  33.577  54.313  0.00  0.00     0.083 A 
ATOM      5  C   UNL d   1      53.692  34.343  54.577  0.00  0.00     0.099 A 
ATOM      6  C   UNL d   1      54.539  33.182  54.632  0.00  0.00     0.019 A 
ATOM      7  C   UNL d   1      54.166  34.710  55.154  0.00  0.00     0.021 A 
ATOM      8  C   UNL d   1      55.007  33.549  55.204  0.00  0.00     0.002 A 
ATOM      9  C   UNL d   1      54.819  34.315  55.466  0.00  0.00     0.002 A 
ENDROOT
BRANCH   3  10
ATOM     10  C   UNL d   1      53.149  32.711  53.265  0.00  0.00     0.108 C 
BRANCH  10  11
ATOM     11  C   UNL d   1      53.271  31.947  53.553  0.00  0.00     0.142 C 
BRANCH  11  12
ATOM     12  O   UNL d   1      53.356  31.319  53.024  0.00  0.00    -0.304 OA
BRANCH  12  13
ATOM     13  C   UNL d   1      53.104  30.564  53.241  0.00  0.00     0.100 A 
ATOM     14  C   UNL d   1      53.526  30.148  53.817  0.00  0.00     0.025 A 
ATOM     15  C   UNL d   1      53.278  29.391  54.038  0.00  0.00     0.002 A 
ATOM     16  C   UNL d   1      53.693  28.969  54.612  0.00  0.00     0.000 C 
ATOM     17  C   UNL d   1      52.607  29.057  53.680  0.00  0.00     0.000 A 
ATOM     18  C   UNL d   1      52.192  29.480  53.106  0.00  0.00     0.002 A 
ATOM     19  C   UNL d   1      52.443  30.234  52.888  0.00  0.00     0.025 A 
ENDBRANCH  12  13
ENDBRANCH  11  12
ENDBRANCH  10  11
ENDBRANCH   3  10
BRANCH   1  20
ATOM     20  C   UNL d   1      52.130  34.014  53.149  0.00  0.00     0.134 A 
ATOM     21  O   UNL d   1      52.029  34.180  52.455  0.00  0.00    -0.302 OA
ATOM     22  C   UNL d   1      51.374  34.140  52.164  0.00  0.00     0.123 A 
ATOM     23  C   UNL d   1      50.807  33.932  52.568  0.00  0.00     0.029 A 
ATOM     24  C   UNL d   1      50.910  33.767  53.260  0.00  0.00     0.030 A 
ENDBRANCH   1  20
TORSDOF 5
ENDMDL
MODEL 4
REMARK VINA RESULT:      -8.7      1.208      4.300
REMARK  5 active torsions:
REMARK  status: ('A' for Active; 'I' for Inactive)
REMARK    1  A    between atoms: C_6  and  C_1 
REMARK    2  A    between atoms: C_11  and  N_3 
REMARK    3  A    between atoms: C_16  and  C_11 
REMARK    4  A    between atoms: C_13  and  O_15 
REMARK    5  A    between atoms: O_15  and  C_16 
ROOT
ATOM      1  C   UNL d   1      53.465  31.934  53.748  0.00  0.00     0.171 A 
ATOM      2  N   UNL d   1      54.041  31.948  54.342  0.00  0.00    -0.225 NA
ATOM      3  N   UNL d   1      53.197  32.712  53.628  0.00  0.00    -0.286 N 
ATOM      4  C   UNL d   1      53.609  33.208  54.147  0.00  0.00     0.083 A 
ATOM      5  C   UNL d   1      54.131  32.737  54.590  0.00  0.00     0.099 A 
ATOM      6  C   UNL d   1      53.584  34.032  54.285  0.00  0.00     0.019 A 
ATOM      7  C   UNL d   1      54.622  33.085  55.163  0.00  0.00     0.021 A 
ATOM      8  C   UNL d   1      54.073  34.374  54.854  0.00  0.00     0.002 A 
ATOM      9  C   UNL d   1      54.594  33.899  55.294  0.00  0.00     0.002 A 
ENDROOT
BRANCH   3  10
ATOM     10  C   UNL d   1      52.616  32.785  53.046  0.00  0.00     0.108 C 
BRANCH  10  11
ATOM     11  C   UNL d   1      52.079  33.411  53.079  0.00  0.00     0.142 C 
BRANCH  11  12
ATOM     12  O   UNL d   1      51.722  33.681  52.386  0.00  0.00    -0.304 OA
BRANCH  12  13
ATOM     13  C   UNL d   1      50.977  34.036  52.420  0.00  0.00     0.100 A 
ATOM     14  C   UNL d   1      50.509  34.056  51.740  0.00  0.00     0.025 A 
ATOM     15  C   UNL d   1      49.763  34.410  51.769  0.00  0.00     0.002 A 
ATOM     16  C   UNL d   1      49.288  34.435  51.095  0.00  0.00     0.000 C 
ATOM     17  C   UNL d   1      49.492  34.743  52.480  0.00  0.00     0.000 A 
ATOM     18  C   UNL d   1      49.967  34.718  53.155  0.00  0.00     0.002 A 
ATOM     19  C   UNL d   1      50.711  34.363  53.121  0.00  0.00     0.025 A 
ENDBRANCH  12  13
ENDBRANCH  11  12
ENDBRANCH  10  11
ENDBRANCH   3  10
BRANCH   1  20
ATOM     20  C   UNL d   1      53.201  31.263  53.345  0.00  0.00     0.134 A 
ATOM     21  O   UNL d   1      53.253  31.018  52.669  0.00  0.00    -0.302 OA
ATOM     22  C   UNL d   1      52.953  30.392  52.486  0.00  0.00     0.123 A 
ATOM     23  C   UNL d   1      52.593  30.001  52.980  0.00  0.00     0.029 A 
ATOM     24  C   UNL d   1      52.542  30.247  53.653  0.00  0.00     0.030 A 
ENDBRANCH   1  20
TORSDOF 5
ENDMDL
