MODEL 1
REMARK VINA RESULT:      -5.8      0.000      0.000
REMARK  1 active torsions:
REMARK  status: ('A' for Active; 'I' for Inactive)
REMARK    1  A    between atoms: C_6  and  C_1 
ROOT
ATOM      1  C   UNL d   1      57.372  -0.075  31.262  0.00  0.00     0.111 A 
ATOM      2  N   UNL d   1      57.503  -0.697  30.742  0.00  0.00    -0.239 NA
ATOM      3  S   UNL d   1      57.887   0.533  31.075  0.00  0.00    -0.066 SA
ATOM      4  C   UNL d   1      58.111  -0.473  30.222  0.00  0.00     0.088 A 
ATOM      5  C   UNL d   1      58.351   0.288  30.425  0.00  0.00     0.049 A 
ATOM      6  C   UNL d   1      58.474  -0.862  29.594  0.00  0.00     0.020 A 
ATOM      7  C   UNL d   1      58.952   0.659  30.001  0.00  0.00     0.008 A 
ATOM      8  C   UNL d   1      59.314   0.270  29.372  0.00  0.00     0.001 A 
ATOM      9  C   UNL d   1      59.075  -0.491  29.169  0.00  0.00     0.002 A 
ENDROOT
BRANCH   1  10
ATOM     10  C   UNL d   1      56.801  -0.098  31.865  0.00  0.00     0.024 A 
ATOM     11  C   UNL d   1      56.475   0.603  32.158  0.00  0.00     0.004 A 
ATOM     12  C   UNL d   1      55.907   0.572  32.758  0.00  0.00     0.021 A 
ATOM     13  C   UNL d   1      55.663  -0.159  33.069  0.00  0.00     0.103 A 
ATOM     14  C   UNL d   1      55.993  -0.856  32.771  0.00  0.00     0.021 A 
ATOM     15  N   UNL d   1      55.093  -0.186  33.671  0.00  0.00    -0.148 N 
ATOM     16  C   UNL d   1      56.561  -0.826  32.170  0.00  0.00     0.004 A 
ENDBRANCH   1  10
TORSDOF 1
ENDMDL
MODEL 2
REMARK VINA RESULT:      -5.8      0.921      3.726
REMARK  1 active torsions:
REMARK  status: ('A' for Active; 'I' for Inactive)
REMARK    1  A    between atoms: C_6  and  C_1 
ROOT
ATOM      1  C   UNL d   1      57.276  -0.157  31.234  0.00  0.00     0.111 A 
ATOM      2  N   UNL d   1      56.971  -0.869  31.508  0.00  0.00    -0.239 NA
ATOM      3  S   UNL d   1      57.011   0.444  31.721  0.00  0.00    -0.066 SA
ATOM      4  C   UNL d   1      56.507  -0.708  32.178  0.00  0.00     0.088 A 
ATOM      5  C   UNL d   1      56.529   0.103  32.313  0.00  0.00     0.049 A 
ATOM      6  C   UNL d   1      56.071  -1.194  32.679  0.00  0.00     0.020 A 
ATOM      7  C   UNL d   1      56.116   0.428  32.947  0.00  0.00     0.008 A 
ATOM      8  C   UNL d   1      55.679  -0.058  33.448  0.00  0.00     0.001 A 
ATOM      9  C   UNL d   1      55.657  -0.869  33.313  0.00  0.00     0.002 A 
ENDROOT
BRANCH   1  10
ATOM     10  C   UNL d   1      57.770  -0.099  30.568  0.00  0.00     0.024 A 
ATOM     11  C   UNL d   1      57.896   0.632  30.205  0.00  0.00     0.004 A 
ATOM     12  C   UNL d   1      58.389   0.682  29.542  0.00  0.00     0.021 A 
ATOM     13  C   UNL d   1      58.757   0.001  29.240  0.00  0.00     0.103 A 
ATOM     14  C   UNL d   1      58.626  -0.727  29.608  0.00  0.00     0.021 A 
ATOM     15  N   UNL d   1      59.250   0.056  28.575  0.00  0.00    -0.148 N 
ATOM     16  C   UNL d   1      58.133  -0.778  30.271  0.00  0.00     0.004 A 
ENDBRANCH   1  10
TORSDOF 1
ENDMDL
MODEL 3
REMARK VINA RESULT:      -5.2      1.355      4.090
REMARK  1 active torsions:
REMARK  status: ('A' for Active; 'I' for Inactive)
REMARK    1  A    between atoms: C_6  and  C_1 
ROOT
ATOM      1  C   UNL d   1      56.451   0.199  32.682  0.00  0.00     0.111 A 
ATOM      2  N   UNL d   1      55.632   0.249  32.694  0.00  0.00    -0.239 NA
ATOM      3  S   UNL d   1      56.730   0.313  33.442  0.00  0.00    -0.066 SA
ATOM      4  C   UNL d   1      55.396   0.396  33.476  0.00  0.00     0.088 A 
ATOM      5  C   UNL d   1      56.073   0.437  33.943  0.00  0.00     0.049 A 
ATOM      6  C   UNL d   1      54.655   0.499  33.821  0.00  0.00     0.020 A 
ATOM      7  C   UNL d   1      56.010   0.579  34.752  0.00  0.00     0.008 A 
ATOM      8  C   UNL d   1      55.270   0.682  35.097  0.00  0.00     0.001 A 
ATOM      9  C   UNL d   1      54.592   0.641  34.631  0.00  0.00     0.002 A 
ENDROOT
BRANCH   1  10
ATOM     10  C   UNL d   1      56.889   0.054  31.990  0.00  0.00     0.024 A 
ATOM     11  C   UNL d   1      57.248   0.679  31.586  0.00  0.00     0.004 A 
ATOM     12  C   UNL d   1      57.682   0.528  30.898  0.00  0.00     0.021 A 
ATOM     13  C   UNL d   1      57.758  -0.248  30.612  0.00  0.00     0.103 A 
ATOM     14  C   UNL d   1      57.396  -0.868  31.021  0.00  0.00     0.021 A 
ATOM     15  N   UNL d   1      58.194  -0.395  29.921  0.00  0.00    -0.148 N 
ATOM     16  C   UNL d   1      56.962  -0.718  31.709  0.00  0.00     0.004 A 
ENDBRANCH   1  10
TORSDOF 1
ENDMDL
MODEL 4
REMARK VINA RESULT:      -4.6      1.038      3.852
REMARK  1 active torsions:
REMARK  status: ('A' for Active; 'I' for Inactive)
REMARK    1  A    between atoms: C_6  and  C_1 
ROOT
ATOM      1  C   UNL d   1      57.658  -0.165  30.931  0.00  0.00     0.111 A 
ATOM      2  N   UNL d   1      57.178   0.433  31.224  0.00  0.00    -0.239 NA
ATOM      3  S   UNL d   1      57.468  -0.862  31.314  0.00  0.00    -0.066 SA
ATOM      4  C   UNL d   1      56.680   0.102  31.800  0.00  0.00     0.088 A 
ATOM      5  C   UNL d   1      56.857  -0.699  31.859  0.00  0.00     0.049 A 
ATOM      6  C   UNL d   1      56.092   0.427  32.276  0.00  0.00     0.020 A 
ATOM      7  C   UNL d   1      56.447  -1.175  32.392  0.00  0.00     0.008 A 
ATOM      8  C   UNL d   1      55.859  -0.851  32.868  0.00  0.00     0.001 A 
ATOM      9  C   UNL d   1      55.682  -0.049  32.809  0.00  0.00     0.002 A 
ENDROOT
BRANCH   1  10
ATOM     10  C   UNL d   1      58.231  -0.042  30.341  0.00  0.00     0.024 A 
ATOM     11  C   UNL d   1      58.786   0.565  30.420  0.00  0.00     0.004 A 
ATOM     12  C   UNL d   1      59.353   0.682  29.829  0.00  0.00     0.021 A 
ATOM     13  C   UNL d   1      59.368   0.192  29.158  0.00  0.00     0.103 A 
ATOM     14  C   UNL d   1      58.810  -0.413  29.086  0.00  0.00     0.021 A 
ATOM     15  N   UNL d   1      59.938   0.313  28.567  0.00  0.00    -0.148 N 
ATOM     16  C   UNL d   1      58.242  -0.530  29.677  0.00  0.00     0.004 A 
ENDBRANCH   1  10
TORSDOF 1
ENDMDL
MODEL 5
REMARK VINA RESULT:      -2.9      9.831     10.474
REMARK  1 active torsions:
REMARK  status: ('A' for Active; 'I' for Inactive)
REMARK    1  A    between atoms: C_6  and  C_1 
ROOT
ATOM      1  C   UNL d   1      59.458  -9.644  33.495  0.00  0.00     0.111 A 
ATOM      2  N   UNL d   1      59.112  -9.709  34.237  0.00  0.00    -0.239 NA
ATOM      3  S   UNL d   1      60.262  -9.535  33.592  0.00  0.00    -0.066 SA
ATOM      4  C   UNL d   1      59.713  -9.638  34.807  0.00  0.00     0.088 A 
ATOM      5  C   UNL d   1      60.426  -9.531  34.411  0.00  0.00     0.049 A 
ATOM      6  C   UNL d   1      59.700  -9.659  35.630  0.00  0.00     0.020 A 
ATOM      7  C   UNL d   1      61.126  -9.444  34.837  0.00  0.00     0.008 A 
ATOM      8  C   UNL d   1      61.114  -9.464  35.660  0.00  0.00     0.001 A 
ATOM      9  C   UNL d   1      60.400  -9.571  36.056  0.00  0.00     0.002 A 
ENDROOT
BRANCH   1  10
ATOM     10  C   UNL d   1      59.026  -9.688  32.786  0.00  0.00     0.024 A 
ATOM     11  C   UNL d   1      59.419  -9.772  32.064  0.00  0.00     0.004 A 
ATOM     12  C   UNL d   1      58.983  -9.815  31.363  0.00  0.00     0.021 A 
ATOM     13  C   UNL d   1      58.153  -9.774  31.380  0.00  0.00     0.103 A 
ATOM     14  C   UNL d   1      57.767  -9.690  32.106  0.00  0.00     0.021 A 
ATOM     15  N   UNL d   1      57.719  -9.818  30.674  0.00  0.00    -0.148 N 
ATOM     16  C   UNL d   1      58.203  -9.647  32.809  0.00  0.00     0.004 A 
ENDBRANCH   1  10
TORSDOF 1
ENDMDL
