MODEL 1
REMARK VINA RESULT:       7.5      0.000      0.000
REMARK  3 active torsions:
REMARK  status: ('A' for Active; 'I' for Inactive)
REMARK       I    between atoms: N_4  and  C_1 
REMARK    1  A    between atoms: O_11  and  C_3 
REMARK    2  A    between atoms: C_6  and  N_4 
REMARK    3  A    between atoms: O_12  and  C_7 
ROOT
ATOM      1  C   UNL d   1      14.288  11.783  -2.562  0.00  0.00     0.046 A 
ATOM      2  C   UNL d   1      14.474  11.806  -1.760  0.00  0.00     0.118 A 
ATOM      3  C   UNL d   1      13.498  11.803  -2.806  0.00  0.00     0.102 A 
ATOM      4  C   UNL d   1      13.869  11.848  -1.198  0.00  0.00     0.116 A 
ATOM      5  C   UNL d   1      13.078  11.868  -1.443  0.00  0.00     0.028 A 
ATOM      6  C   UNL d   1      12.897  11.845  -2.247  0.00  0.00     0.022 A 
ENDROOT
BRANCH   3   7
ATOM      7  N   UNL d   1      13.313  11.781  -3.612  0.00  0.00    -0.056 NA
ATOM      8  C   UNL d   1      13.117  12.465  -4.013  0.00  0.00     0.787 C 
ATOM      9  N   UNL d   1      12.934  12.443  -4.809  0.00  0.00     0.064 N 
ATOM     10  N   UNL d   1      13.105  13.186  -3.605  0.00  0.00     0.064 N 
ENDBRANCH   3   7
BRANCH   2  11
ATOM     11  O   UNL d   1      15.257  11.786  -1.518  0.00  0.00    -0.326 OA
ATOM     12  C   UNL d   1      15.642  12.483  -1.318  0.00  0.00     0.181 C 
ENDBRANCH   2  11
BRANCH   4  13
ATOM     13  O   UNL d   1      14.051  11.870  -0.401  0.00  0.00    -0.326 OA
ATOM     14  C   UNL d   1      14.119  12.594  -0.014  0.00  0.00     0.181 C 
ENDBRANCH   4  13
TORSDOF 3
ENDMDL
MODEL 2
REMARK VINA RESULT:       8.7      2.139      3.225
REMARK  3 active torsions:
REMARK  status: ('A' for Active; 'I' for Inactive)
REMARK       I    between atoms: N_4  and  C_1 
REMARK    1  A    between atoms: O_11  and  C_3 
REMARK    2  A    between atoms: C_6  and  N_4 
REMARK    3  A    between atoms: O_12  and  C_7 
ROOT
ATOM      1  C   UNL d   1      14.080  13.165  -2.982  0.00  0.00     0.046 A 
ATOM      2  C   UNL d   1      13.618  13.159  -3.663  0.00  0.00     0.118 A 
ATOM      3  C   UNL d   1      14.158  12.478  -2.527  0.00  0.00     0.102 A 
ATOM      4  C   UNL d   1      13.229  12.466  -3.891  0.00  0.00     0.116 A 
ATOM      5  C   UNL d   1      13.307  11.779  -3.436  0.00  0.00     0.028 A 
ATOM      6  C   UNL d   1      13.772  11.789  -2.754  0.00  0.00     0.022 A 
ENDROOT
BRANCH   3   7
ATOM      7  N   UNL d   1      14.623  12.485  -1.843  0.00  0.00    -0.056 NA
ATOM      8  C   UNL d   1      14.350  12.147  -1.151  0.00  0.00     0.787 C 
ATOM      9  N   UNL d   1      14.810  12.154  -0.475  0.00  0.00     0.064 N 
ATOM     10  N   UNL d   1      13.601  11.796  -1.138  0.00  0.00     0.064 N 
ENDBRANCH   3   7
BRANCH   2  11
ATOM     11  O   UNL d   1      13.541  13.839  -4.114  0.00  0.00    -0.326 OA
ATOM     12  C   UNL d   1      13.299  14.541  -3.761  0.00  0.00     0.181 C 
ENDBRANCH   2  11
BRANCH   4  13
ATOM     13  O   UNL d   1      12.769  12.459  -4.567  0.00  0.00    -0.326 OA
ATOM     14  C   UNL d   1      12.950  11.942  -5.183  0.00  0.00     0.181 C 
ENDBRANCH   4  13
TORSDOF 3
ENDMDL
MODEL 3
REMARK VINA RESULT:       8.9      9.110     10.254
REMARK  3 active torsions:
REMARK  status: ('A' for Active; 'I' for Inactive)
REMARK       I    between atoms: N_4  and  C_1 
REMARK    1  A    between atoms: O_11  and  C_3 
REMARK    2  A    between atoms: C_6  and  N_4 
REMARK    3  A    between atoms: O_12  and  C_7 
ROOT
ATOM      1  C   UNL d   1      23.379  12.138  -2.549  0.00  0.00     0.046 A 
ATOM      2  C   UNL d   1      23.218  12.471  -1.814  0.00  0.00     0.118 A 
ATOM      3  C   UNL d   1      24.154  12.127  -2.840  0.00  0.00     0.102 A 
ATOM      4  C   UNL d   1      23.833  12.794  -1.365  0.00  0.00     0.116 A 
ATOM      5  C   UNL d   1      24.608  12.782  -1.655  0.00  0.00     0.028 A 
ATOM      6  C   UNL d   1      24.764  12.448  -2.393  0.00  0.00     0.022 A 
ENDROOT
BRANCH   3   7
ATOM      7  N   UNL d   1      24.314  11.792  -3.579  0.00  0.00    -0.056 NA
ATOM      8  C   UNL d   1      24.609  12.251  -4.188  0.00  0.00     0.787 C 
ATOM      9  N   UNL d   1      24.768  11.920  -4.919  0.00  0.00     0.064 N 
ATOM     10  N   UNL d   1      24.749  13.057  -4.059  0.00  0.00     0.064 N 
ENDBRANCH   3   7
BRANCH   2  11
ATOM     11  O   UNL d   1      22.451  12.482  -1.526  0.00  0.00    -0.326 OA
ATOM     12  C   UNL d   1      22.252  12.029  -0.870  0.00  0.00     0.181 C 
ENDBRANCH   2  11
BRANCH   4  13
ATOM     13  O   UNL d   1      23.675  13.125  -0.634  0.00  0.00    -0.326 OA
ATOM     14  C   UNL d   1      24.250  13.574  -0.252  0.00  0.00     0.181 C 
ENDBRANCH   4  13
TORSDOF 3
ENDMDL
