MODEL 1
REMARK VINA RESULT:      33.4      0.000      0.000
REMARK  4 active torsions:
REMARK  status: ('A' for Active; 'I' for Inactive)
REMARK    1  A    between atoms: N_8  and  C_1 
REMARK    2  A    between atoms: C_13  and  C_2 
REMARK    3  A    between atoms: C_6  and  C_11 
REMARK       I    between atoms: C_11  and  N_8 
REMARK    4  A    between atoms: O_20  and  C_13 
ROOT
ATOM      1  C   UNL d   1      45.443 -15.589  44.369  0.00  0.00     0.119 A 
ATOM      2  C   UNL d   1      44.768 -15.151  44.553  0.00  0.00     0.087 A 
ATOM      3  C   UNL d   1      44.942 -14.360  44.423  0.00  0.00     0.008 A 
ATOM      4  C   UNL d   1      45.712 -14.301  44.161  0.00  0.00     0.028 A 
ATOM      5  S   UNL d   1      46.032 -15.063  44.125  0.00  0.00    -0.070 SA
ATOM      6  C   UNL d   1      46.042 -13.560  43.984  0.00  0.00     0.104 A 
ATOM      7  N   UNL d   1      45.587 -12.880  44.073  0.00  0.00    -0.294 NA
ATOM      8  C   UNL d   1      44.805 -12.940  44.338  0.00  0.00     0.099 A 
ATOM      9  C   UNL d   1      44.480 -13.680  44.514  0.00  0.00    -0.004 A 
ATOM     10  C   UNL d   1      46.534 -12.933  43.762  0.00  0.00     0.029 C 
ATOM     11  C   UNL d   1      46.646 -14.100  43.832  0.00  0.00     0.029 C 
ATOM     12  C   UNL d   1      44.024 -13.000  44.604  0.00  0.00     0.029 C 
ATOM     13  C   UNL d   1      45.123 -12.200  44.164  0.00  0.00     0.029 C 
ENDROOT
BRANCH   1  14
ATOM     14  N   UNL d   1      45.523 -16.412  44.418  0.00  0.00    -0.200 NA
ATOM     15  C   UNL d   1      46.040 -16.807  43.911  0.00  0.00     0.303 C 
ATOM     16  O   UNL d   1      46.476 -16.383  43.358  0.00  0.00    -0.263 OA
BRANCH  15  17
ATOM     17  C   UNL d   1      46.118 -17.617  43.959  0.00  0.00     0.169 A 
ATOM     18  N   UNL d   1      46.165 -18.077  44.652  0.00  0.00    -0.234 NA
ATOM     19  C   UNL d   1      46.241 -18.873  44.423  0.00  0.00     0.088 A 
ATOM     20  C   UNL d   1      46.310 -19.573  44.854  0.00  0.00     0.020 A 
ATOM     21  C   UNL d   1      46.238 -18.877  43.595  0.00  0.00     0.049 A 
ATOM     22  C   UNL d   1      46.378 -20.288  44.457  0.00  0.00     0.002 A 
ATOM     23  C   UNL d   1      46.377 -20.308  43.630  0.00  0.00     0.001 A 
ATOM     24  C   UNL d   1      46.308 -19.612  43.203  0.00  0.00     0.008 A 
ATOM     25  S   UNL d   1      46.164 -18.117  43.328  0.00  0.00    -0.062 SA
ENDBRANCH  15  17
ENDBRANCH   1  14
BRANCH   2  26
ATOM     26  C   UNL d   1      44.059 -15.465  44.818  0.00  0.00     0.298 C 
ATOM     27  O   UNL d   1      44.006 -16.280  44.952  0.00  0.00    -0.259 OA
BRANCH  26  28
ATOM     28  O   UNL d   1      43.400 -14.971  44.951  0.00  0.00    -0.296 OA
ATOM     29  C   UNL d   1      42.642 -15.289  44.945  0.00  0.00     0.185 C 
ENDBRANCH  26  28
ENDBRANCH   2  26
TORSDOF 4
ENDMDL
