MODEL 1
REMARK VINA RESULT:      18.7      0.000      0.000
REMARK  4 active torsions:
REMARK  status: ('A' for Active; 'I' for Inactive)
REMARK    1  A    between atoms: C_4  and  C_3 
REMARK    2  A    between atoms: S_8  and  C_5 
REMARK    3  A    between atoms: C_13  and  S_8 
REMARK    4  A    between atoms: C_14  and  C_13 
ROOT
ATOM      1  N   UNL d   1      12.769  11.958  -3.310  0.00  0.00    -0.146 NA
ATOM      2  N   UNL d   1      12.809  11.893  -2.498  0.00  0.00    -0.141 NA
ATOM      3  C   UNL d   1      13.465  11.981  -3.751  0.00  0.00     0.126 A 
ATOM      4  C   UNL d   1      13.529  11.850  -2.115  0.00  0.00     0.132 A 
ATOM      5  C   UNL d   1      14.196  11.938  -3.371  0.00  0.00     0.025 A 
ATOM      6  C   UNL d   1      14.228  11.873  -2.563  0.00  0.00     0.029 A 
ENDROOT
BRANCH   4   7
ATOM      7  S   UNL d   1      13.565  11.784  -1.295  0.00  0.00    -0.066 SA
BRANCH   7   8
ATOM      8  C   UNL d   1      13.634  12.454  -0.829  0.00  0.00     0.037 C 
BRANCH   8   9
ATOM      9  C   UNL d   1      14.377  12.686  -0.556  0.00  0.00     0.006 A 
ATOM     10  C   UNL d   1      14.579  13.482  -0.547  0.00  0.00     0.001 A 
ATOM     11  C   UNL d   1      15.313  13.719  -0.279  0.00  0.00     0.000 A 
ATOM     12  C   UNL d   1      15.853  13.146  -0.015  0.00  0.00     0.000 A 
ATOM     13  C   UNL d   1      15.646  12.357  -0.028  0.00  0.00     0.000 A 
ATOM     14  C   UNL d   1      14.901  12.129  -0.301  0.00  0.00     0.001 A 
ENDBRANCH   8   9
ENDBRANCH   7   8
ENDBRANCH   4   7
BRANCH   3  15
ATOM     15  C   UNL d   1      13.431  12.046  -4.569  0.00  0.00     0.119 A 
ATOM     16  O   UNL d   1      14.010  12.363  -5.059  0.00  0.00    -0.304 OA
ATOM     17  C   UNL d   1      13.752  12.321  -5.839  0.00  0.00     0.123 A 
ATOM     18  C   UNL d   1      12.996  11.969  -5.833  0.00  0.00     0.029 A 
ATOM     19  C   UNL d   1      12.797  11.799  -5.050  0.00  0.00     0.028 A 
ENDBRANCH   3  15
TORSDOF 4
ENDMDL
