MODEL 1
REMARK VINA RESULT:      42.3      0.000      0.000
REMARK  8 active torsions:
REMARK  status: ('A' for Active; 'I' for Inactive)
REMARK    1  A    between atoms: C_2  and  S_1 
REMARK    2  A    between atoms: N_13  and  S_1 
REMARK    3  A    between atoms: C_16  and  C_4 
REMARK    4  A    between atoms: O_17  and  C_5 
REMARK    5  A    between atoms: N_8  and  C_18 
REMARK    6  A    between atoms: C_21  and  N_13 
REMARK    7  A    between atoms: C_18  and  C_19 
REMARK    8  A    between atoms: C_19  and  C_21 
ROOT
ATOM      1  C   UNL d   1     -50.745  25.219  33.518  0.00  0.00     0.128 A 
ATOM      2  C   UNL d   1     -51.570  25.278  33.591  0.00  0.00     0.015 A 
ATOM      3  C   UNL d   1     -52.036  24.601  33.524  0.00  0.00     0.001 A 
ATOM      4  C   UNL d   1     -50.389  24.487  33.378  0.00  0.00     0.106 A 
ATOM      5  C   UNL d   1     -51.677  23.865  33.383  0.00  0.00     0.002 A 
ATOM      6  C   UNL d   1     -50.856  23.810  33.310  0.00  0.00     0.025 A 
ATOM      7  C   UNL d   1     -52.144  23.188  33.315  0.00  0.00     0.000 C 
ENDROOT
BRANCH   1   8
ATOM      8  S   UNL d   1     -50.278  25.897  33.585  0.00  0.00     0.287 S 
ATOM      9  O   UNL d   1     -49.598  25.431  33.550  0.00  0.00    -0.198 OA
ATOM     10  O   UNL d   1     -50.959  26.362  33.621  0.00  0.00    -0.198 OA
BRANCH   8  11
ATOM     11  N   UNL d   1     -49.809  26.578  33.653  0.00  0.00    -0.157 NA
BRANCH  11  12
ATOM     12  C   UNL d   1     -49.717  26.943  34.394  0.00  0.00     0.114 C 
BRANCH  12  13
ATOM     13  C   UNL d   1     -49.266  27.630  34.458  0.00  0.00     0.041 C 
BRANCH  13  14
ATOM     14  C   UNL d   1     -48.646  27.677  35.005  0.00  0.00     0.083 C 
BRANCH  14  15
ATOM     15  N   UNL d   1     -48.305  28.405  35.191  0.00  0.00    -0.285 N 
ATOM     16  C   UNL d   1     -48.604  28.949  35.735  0.00  0.00     0.183 A 
ATOM     17  N   UNL d   1     -48.088  29.597  35.745  0.00  0.00    -0.222 NA
ATOM     18  C   UNL d   1     -47.478  29.448  35.210  0.00  0.00     0.120 A 
ATOM     19  C   UNL d   1     -47.614  28.708  34.867  0.00  0.00     0.102 A 
ENDBRANCH  14  15
ENDBRANCH  13  14
ENDBRANCH  12  13
ENDBRANCH  11  12
ENDBRANCH   8  11
ENDBRANCH   1   8
BRANCH   4  20
ATOM     20  O   UNL d   1     -49.571  24.432  33.306  0.00  0.00    -0.327 OA
ATOM     21  C   UNL d   1     -49.174  23.781  33.615  0.00  0.00     0.181 C 
ENDBRANCH   4  20
BRANCH   3  22
ATOM     22  C   UNL d   1     -52.855  24.655  33.595  0.00  0.00     0.000 C 
ATOM     23  C   UNL d   1     -53.279  24.046  33.956  0.00  0.00     0.000 C 
ATOM     24  C   UNL d   1     -53.248  25.318  33.306  0.00  0.00     0.000 C 
ENDBRANCH   3  22
TORSDOF 8
ENDMDL
