MODEL 1
REMARK VINA RESULT:      41.8      0.000      0.000
REMARK  6 active torsions:
REMARK  status: ('A' for Active; 'I' for Inactive)
REMARK    1  A    between atoms: N_4  and  C_2 
REMARK    2  A    between atoms: C_9  and  N_4 
REMARK    3  A    between atoms: O_16  and  C_8 
REMARK    4  A    between atoms: O_24  and  C_10 
REMARK    5  A    between atoms: C_22  and  O_16 
REMARK    6  A    between atoms: C_26  and  C_22 
ROOT
ATOM      1  C   UNL d   1      44.416 -14.411  44.457  0.00  0.00     0.056 A 
ATOM      2  C   UNL d   1      43.934 -13.752  44.558  0.00  0.00     0.166 A 
ATOM      3  C   UNL d   1      44.118 -15.167  44.603  0.00  0.00     0.088 A 
ATOM      4  C   UNL d   1      45.196 -14.315  44.209  0.00  0.00     0.031 A 
ATOM      5  N   UNL d   1      43.147 -13.844  44.808  0.00  0.00    -0.205 NA
ATOM      6  C   UNL d   1      44.601 -15.826  44.502  0.00  0.00     0.046 A 
ATOM      7  C   UNL d   1      45.380 -15.731  44.254  0.00  0.00     0.124 A 
ATOM      8  C   UNL d   1      45.677 -14.974  44.108  0.00  0.00     0.117 A 
ATOM      9  N   UNL d   1      43.340 -15.263  44.850  0.00  0.00    -0.224 NA
ATOM     10  C   UNL d   1      42.850 -14.600  44.954  0.00  0.00     0.200 A 
ENDROOT
BRANCH   2  11
ATOM     11  N   UNL d   1      44.234 -12.989  44.411  0.00  0.00    -0.224 NA
BRANCH  11  12
ATOM     12  C   UNL d   1      44.409 -12.765  43.642  0.00  0.00     0.110 A 
ATOM     13  C   UNL d   1      43.812 -12.674  43.078  0.00  0.00     0.158 A 
ATOM     14  C   UNL d   1      43.985 -12.449  42.306  0.00  0.00     0.038 A 
ATOM     15  F   UNL d   1      43.020 -12.812  43.296  0.00  0.00    -0.203 F 
ATOM     16  C   UNL d   1      44.778 -12.310  42.087  0.00  0.00     0.037 A 
ATOM     17  C   UNL d   1      45.384 -12.401  42.654  0.00  0.00     0.008 A 
ATOM     18 BR   UNL d   1      44.957 -12.082  41.305  0.00  0.00    -0.049 Br
ATOM     19  C   UNL d   1      45.201 -12.626  43.424  0.00  0.00     0.022 A 
ENDBRANCH  11  12
ENDBRANCH   2  11
BRANCH   8  20
ATOM     20  O   UNL d   1      46.468 -14.884  43.858  0.00  0.00    -0.326 OA
ATOM     21  C   UNL d   1      46.646 -14.861  43.052  0.00  0.00     0.181 C 
ENDBRANCH   8  20
BRANCH   7  22
ATOM     22  O   UNL d   1      45.872 -16.399  44.151  0.00  0.00    -0.303 OA
BRANCH  22  23
ATOM     23  C   UNL d   1      45.769 -17.069  44.623  0.00  0.00     0.123 C 
BRANCH  23  24
ATOM     24  C   UNL d   1      45.981 -17.813  44.329  0.00  0.00     0.028 A 
ATOM     25  C   UNL d   1      46.083 -18.453  44.847  0.00  0.00     0.021 A 
ATOM     26  C   UNL d   1      46.294 -19.191  44.548  0.00  0.00     0.080 A 
ATOM     27  N   UNL d   1      46.405 -19.303  43.734  0.00  0.00    -0.301 N 
ATOM     28  C   UNL d   1      46.303 -18.667  43.219  0.00  0.00     0.080 A 
ATOM     29  C   UNL d   1      46.621 -20.058  43.433  0.00  0.00     0.100 C 
ATOM     30  C   UNL d   1      46.091 -17.920  43.516  0.00  0.00     0.021 A 
ENDBRANCH  23  24
ENDBRANCH  22  23
ENDBRANCH   7  22
TORSDOF 6
ENDMDL
