MODEL 1
REMARK VINA RESULT:      -3.8      0.000      0.000
REMARK  5 active torsions:
REMARK  status: ('A' for Active; 'I' for Inactive)
REMARK    1  A    between atoms: C_4  and  C_1 
REMARK    2  A    between atoms: N_5  and  C_2 
REMARK       I    between atoms: N_9  and  C_4 
REMARK       I    between atoms: C_7  and  N_5 
REMARK    3  A    between atoms: C_10  and  C_7 
REMARK    4  A    between atoms: C_21  and  N_9 
REMARK    5  A    between atoms: O_29  and  C_22 
ROOT
ATOM      1  C   UNL d   1     -39.872  14.611  19.956  0.00  0.00     0.175 A 
ATOM      2  C   UNL d   1     -39.350  13.972  20.074  0.00  0.00     0.114 A 
ATOM      3  O   UNL d   1     -39.838  15.080  20.641  0.00  0.00    -0.301 OA
ATOM      4  C   UNL d   1     -39.010  14.055  20.814  0.00  0.00     0.043 A 
ATOM      5  C   UNL d   1     -39.310  14.740  21.167  0.00  0.00     0.102 A 
ATOM      6  C   UNL d   1     -38.458  13.591  21.219  0.00  0.00     0.004 A 
ATOM      7  C   UNL d   1     -39.060  14.957  21.917  0.00  0.00     0.025 A 
ATOM      8  C   UNL d   1     -38.208  13.814  21.976  0.00  0.00     0.000 A 
ATOM      9  C   UNL d   1     -38.514  14.501  22.323  0.00  0.00     0.002 A 
ENDROOT
BRANCH   2  10
ATOM     10  N   UNL d   1     -39.206  13.360  19.530  0.00  0.00    -0.206 NA
ATOM     11  C   UNL d   1     -38.502  13.354  19.100  0.00  0.00     0.279 C 
ATOM     12  O   UNL d   1     -37.943  13.949  19.207  0.00  0.00    -0.265 OA
BRANCH  11  13
ATOM     13  C   UNL d   1     -38.359  12.747  18.562  0.00  0.00     0.060 A 
ATOM     14  C   UNL d   1     -38.302  11.973  18.824  0.00  0.00     0.031 A 
ATOM     15  C   UNL d   1     -38.161  11.372  18.289  0.00  0.00     0.119 A 
ATOM     16  O   UNL d   1     -38.077  10.553  18.383  0.00  0.00    -0.300 OA
ATOM     17  C   UNL d   1     -38.076  11.549  17.488  0.00  0.00     0.119 A 
ATOM     18  C   UNL d   1     -37.940  10.227  17.635  0.00  0.00     0.304 A 
ATOM     19  O   UNL d   1     -37.940  10.844  17.087  0.00  0.00    -0.300 OA
ATOM     20  C   UNL d   1     -38.134  12.323  17.227  0.00  0.00     0.026 A 
ATOM     21  C   UNL d   1     -38.277  12.927  17.777  0.00  0.00     0.007 A 
ENDBRANCH  11  13
ENDBRANCH   2  10
BRANCH   1  22
ATOM     22  C   UNL d   1     -40.334  14.749  19.285  0.00  0.00     0.303 C 
ATOM     23  N   UNL d   1     -40.138  15.361  18.777  0.00  0.00    -0.206 NA
ATOM     24  O   UNL d   1     -40.991  14.270  19.131  0.00  0.00    -0.263 OA
BRANCH  23  25
ATOM     25  C   UNL d   1     -40.598  15.503  18.105  0.00  0.00     0.085 A 
ATOM     26  C   UNL d   1     -40.270  15.367  17.360  0.00  0.00     0.021 A 
ATOM     27  C   UNL d   1     -40.724  15.507  16.680  0.00  0.00     0.026 A 
ATOM     28  C   UNL d   1     -41.502  15.782  16.758  0.00  0.00     0.094 A 
ATOM     29  C   UNL d   1     -41.821  15.914  17.504  0.00  0.00     0.026 A 
ATOM     30  C   UNL d   1     -41.360  15.772  18.180  0.00  0.00     0.021 A 
BRANCH  28  31
ATOM     31  O   UNL d   1     -41.957  15.922  16.088  0.00  0.00    -0.328 OA
ATOM     32  C   UNL d   1     -42.423  15.316  15.777  0.00  0.00     0.181 C 
ENDBRANCH  28  31
ENDBRANCH  23  25
ENDBRANCH   1  22
TORSDOF 5
ENDMDL
MODEL 2
REMARK VINA RESULT:      -3.6      2.193      3.648
REMARK  5 active torsions:
REMARK  status: ('A' for Active; 'I' for Inactive)
REMARK    1  A    between atoms: C_4  and  C_1 
REMARK    2  A    between atoms: N_5  and  C_2 
REMARK       I    between atoms: N_9  and  C_4 
REMARK       I    between atoms: C_7  and  N_5 
REMARK    3  A    between atoms: C_10  and  C_7 
REMARK    4  A    between atoms: C_21  and  N_9 
REMARK    5  A    between atoms: O_29  and  C_22 
ROOT
ATOM      1  C   UNL d   1     -38.646  14.924  20.707  0.00  0.00     0.175 A 
ATOM      2  C   UNL d   1     -39.205  14.719  21.289  0.00  0.00     0.114 A 
ATOM      3  O   UNL d   1     -38.082  15.411  21.074  0.00  0.00    -0.301 OA
ATOM      4  C   UNL d   1     -38.982  15.076  21.992  0.00  0.00     0.043 A 
ATOM      5  C   UNL d   1     -38.288  15.505  21.862  0.00  0.00     0.102 A 
ATOM      6  C   UNL d   1     -39.325  15.067  22.744  0.00  0.00     0.004 A 
ATOM      7  C   UNL d   1     -37.940  15.920  22.478  0.00  0.00     0.025 A 
ATOM      8  C   UNL d   1     -38.972  15.487  23.364  0.00  0.00     0.000 A 
ATOM      9  C   UNL d   1     -38.276  15.914  23.225  0.00  0.00     0.002 A 
ENDROOT
BRANCH   2  10
ATOM     10  N   UNL d   1     -39.871  14.237  21.170  0.00  0.00    -0.206 NA
ATOM     11  C   UNL d   1     -40.626  14.567  21.204  0.00  0.00     0.279 C 
ATOM     12  O   UNL d   1     -40.723  15.371  21.354  0.00  0.00    -0.265 OA
BRANCH  11  13
ATOM     13  C   UNL d   1     -41.285  14.088  21.086  0.00  0.00     0.060 A 
ATOM     14  C   UNL d   1     -41.563  13.618  21.697  0.00  0.00     0.031 A 
ATOM     15  C   UNL d   1     -42.217  13.143  21.579  0.00  0.00     0.119 A 
ATOM     16  O   UNL d   1     -42.620  12.618  22.078  0.00  0.00    -0.300 OA
ATOM     17  C   UNL d   1     -42.595  13.140  20.845  0.00  0.00     0.119 A 
ATOM     18  C   UNL d   1     -43.247  12.292  21.647  0.00  0.00     0.304 A 
ATOM     19  O   UNL d   1     -43.227  12.617  20.889  0.00  0.00    -0.300 OA
ATOM     20  C   UNL d   1     -42.316  13.611  20.235  0.00  0.00     0.026 A 
ATOM     21  C   UNL d   1     -41.651  14.090  20.364  0.00  0.00     0.007 A 
ENDBRANCH  11  13
ENDBRANCH   2  10
BRANCH   1  22
ATOM     22  C   UNL d   1     -38.652  14.687  19.916  0.00  0.00     0.303 C 
ATOM     23  N   UNL d   1     -38.687  15.250  19.322  0.00  0.00    -0.206 NA
ATOM     24  O   UNL d   1     -38.624  13.881  19.727  0.00  0.00    -0.263 OA
BRANCH  23  25
ATOM     25  C   UNL d   1     -38.694  15.017  18.530  0.00  0.00     0.085 A 
ATOM     26  C   UNL d   1     -37.996  14.738  18.189  0.00  0.00     0.021 A 
ATOM     27  C   UNL d   1     -37.994  14.501  17.394  0.00  0.00     0.026 A 
ATOM     28  C   UNL d   1     -38.693  14.548  16.952  0.00  0.00     0.094 A 
ATOM     29  C   UNL d   1     -39.384  14.828  17.300  0.00  0.00     0.026 A 
ATOM     30  C   UNL d   1     -39.378  15.063  18.096  0.00  0.00     0.021 A 
BRANCH  28  31
ATOM     31  O   UNL d   1     -38.697  14.315  16.163  0.00  0.00    -0.328 OA
ATOM     32  C   UNL d   1     -38.159  13.746  15.904  0.00  0.00     0.181 C 
ENDBRANCH  28  31
ENDBRANCH  23  25
ENDBRANCH   1  22
TORSDOF 5
ENDMDL
MODEL 3
REMARK VINA RESULT:      -2.8      2.221      3.638
REMARK  5 active torsions:
REMARK  status: ('A' for Active; 'I' for Inactive)
REMARK    1  A    between atoms: C_4  and  C_1 
REMARK    2  A    between atoms: N_5  and  C_2 
REMARK       I    between atoms: N_9  and  C_4 
REMARK       I    between atoms: C_7  and  N_5 
REMARK    3  A    between atoms: C_10  and  C_7 
REMARK    4  A    between atoms: C_21  and  N_9 
REMARK    5  A    between atoms: O_29  and  C_22 
ROOT
ATOM      1  C   UNL d   1     -39.588  14.765  19.965  0.00  0.00     0.175 A 
ATOM      2  C   UNL d   1     -39.845  14.330  20.627  0.00  0.00     0.114 A 
ATOM      3  O   UNL d   1     -38.856  15.103  20.167  0.00  0.00    -0.301 OA
ATOM      4  C   UNL d   1     -39.280  14.405  21.215  0.00  0.00     0.043 A 
ATOM      5  C   UNL d   1     -38.667  14.883  20.933  0.00  0.00     0.102 A 
ATOM      6  C   UNL d   1     -39.241  14.096  21.981  0.00  0.00     0.004 A 
ATOM      7  C   UNL d   1     -38.023  15.050  21.413  0.00  0.00     0.025 A 
ATOM      8  C   UNL d   1     -38.590  14.267  22.463  0.00  0.00     0.000 A 
ATOM      9  C   UNL d   1     -37.980  14.746  22.173  0.00  0.00     0.002 A 
ENDROOT
BRANCH   2  10
ATOM     10  N   UNL d   1     -40.553  13.898  20.675  0.00  0.00    -0.206 NA
ATOM     11  C   UNL d   1     -41.198  14.214  21.080  0.00  0.00     0.279 C 
ATOM     12  O   UNL d   1     -41.144  14.955  21.436  0.00  0.00    -0.265 OA
BRANCH  11  13
ATOM     13  C   UNL d   1     -41.899  13.785  21.128  0.00  0.00     0.060 A 
ATOM     14  C   UNL d   1     -42.573  14.135  21.436  0.00  0.00     0.031 A 
ATOM     15  C   UNL d   1     -43.267  13.709  21.482  0.00  0.00     0.119 A 
ATOM     16  O   UNL d   1     -44.023  13.906  21.760  0.00  0.00    -0.300 OA
ATOM     17  C   UNL d   1     -43.287  12.927  21.219  0.00  0.00     0.119 A 
ATOM     18  C   UNL d   1     -44.507  13.241  21.666  0.00  0.00     0.304 A 
ATOM     19  O   UNL d   1     -44.049  12.641  21.333  0.00  0.00    -0.300 OA
ATOM     20  C   UNL d   1     -42.612  12.577  20.912  0.00  0.00     0.026 A 
ATOM     21  C   UNL d   1     -41.911  13.019  20.868  0.00  0.00     0.007 A 
ENDBRANCH  11  13
ENDBRANCH   2  10
BRANCH   1  22
ATOM     22  C   UNL d   1     -39.986  14.844  19.246  0.00  0.00     0.303 C 
ATOM     23  N   UNL d   1     -40.076  15.586  18.911  0.00  0.00    -0.206 NA
ATOM     24  O   UNL d   1     -40.292  14.174  18.868  0.00  0.00    -0.263 OA
BRANCH  23  25
ATOM     25  C   UNL d   1     -40.474  15.670  18.191  0.00  0.00     0.085 A 
ATOM     26  C   UNL d   1     -41.284  15.828  18.198  0.00  0.00     0.021 A 
ATOM     27  C   UNL d   1     -41.691  15.913  17.480  0.00  0.00     0.026 A 
ATOM     28  C   UNL d   1     -41.278  15.838  16.765  0.00  0.00     0.094 A 
ATOM     29  C   UNL d   1     -40.472  15.680  16.768  0.00  0.00     0.026 A 
ATOM     30  C   UNL d   1     -40.071  15.596  17.490  0.00  0.00     0.021 A 
BRANCH  28  31
ATOM     31  O   UNL d   1     -41.677  15.921  16.051  0.00  0.00    -0.328 OA
ATOM     32  C   UNL d   1     -42.412  15.559  15.949  0.00  0.00     0.181 C 
ENDBRANCH  28  31
ENDBRANCH  23  25
ENDBRANCH   1  22
TORSDOF 5
ENDMDL
MODEL 4
REMARK VINA RESULT:      -1.8      2.448      4.056
REMARK  5 active torsions:
REMARK  status: ('A' for Active; 'I' for Inactive)
REMARK    1  A    between atoms: C_4  and  C_1 
REMARK    2  A    between atoms: N_5  and  C_2 
REMARK       I    between atoms: N_9  and  C_4 
REMARK       I    between atoms: C_7  and  N_5 
REMARK    3  A    between atoms: C_10  and  C_7 
REMARK    4  A    between atoms: C_21  and  N_9 
REMARK    5  A    between atoms: O_29  and  C_22 
ROOT
ATOM      1  C   UNL d   1     -40.408  14.006  21.211  0.00  0.00     0.175 A 
ATOM      2  C   UNL d   1     -39.952  14.388  20.629  0.00  0.00     0.114 A 
ATOM      3  O   UNL d   1     -39.962  14.012  21.912  0.00  0.00    -0.301 OA
ATOM      4  C   UNL d   1     -39.245  14.620  20.972  0.00  0.00     0.043 A 
ATOM      5  C   UNL d   1     -39.249  14.389  21.766  0.00  0.00     0.102 A 
ATOM      6  C   UNL d   1     -38.590  15.018  20.662  0.00  0.00     0.004 A 
ATOM      7  C   UNL d   1     -38.603  14.553  22.244  0.00  0.00     0.025 A 
ATOM      8  C   UNL d   1     -37.940  15.182  21.148  0.00  0.00     0.000 A 
ATOM      9  C   UNL d   1     -37.951  14.947  21.941  0.00  0.00     0.002 A 
ENDROOT
BRANCH   2  10
ATOM     10  N   UNL d   1     -40.180  14.510  19.839  0.00  0.00    -0.206 NA
ATOM     11  C   UNL d   1     -40.335  15.275  19.572  0.00  0.00     0.279 C 
ATOM     12  O   UNL d   1     -40.265  15.917  20.083  0.00  0.00    -0.265 OA
BRANCH  11  13
ATOM     13  C   UNL d   1     -40.561  15.395  18.790  0.00  0.00     0.060 A 
ATOM     14  C   UNL d   1     -40.094  15.108  18.180  0.00  0.00     0.031 A 
ATOM     15  C   UNL d   1     -40.319  15.228  17.405  0.00  0.00     0.119 A 
ATOM     16  O   UNL d   1     -39.970  15.010  16.685  0.00  0.00    -0.300 OA
ATOM     17  C   UNL d   1     -41.016  15.636  17.239  0.00  0.00     0.119 A 
ATOM     18  C   UNL d   1     -40.457  15.286  16.076  0.00  0.00     0.304 A 
ATOM     19  O   UNL d   1     -41.100  15.671  16.422  0.00  0.00    -0.300 OA
ATOM     20  C   UNL d   1     -41.483  15.922  17.849  0.00  0.00     0.026 A 
ATOM     21  C   UNL d   1     -41.246  15.796  18.634  0.00  0.00     0.007 A 
ENDBRANCH  11  13
ENDBRANCH   2  10
BRANCH   1  22
ATOM     22  C   UNL d   1     -41.161  13.682  21.109  0.00  0.00     0.303 C 
ATOM     23  N   UNL d   1     -41.729  13.782  21.691  0.00  0.00    -0.206 NA
ATOM     24  O   UNL d   1     -41.338  13.257  20.420  0.00  0.00    -0.263 OA
BRANCH  23  25
ATOM     25  C   UNL d   1     -42.484  13.460  21.593  0.00  0.00     0.085 A 
ATOM     26  C   UNL d   1     -42.584  12.645  21.675  0.00  0.00     0.021 A 
ATOM     27  C   UNL d   1     -43.338  12.313  21.578  0.00  0.00     0.026 A 
ATOM     28  C   UNL d   1     -43.981  12.805  21.400  0.00  0.00     0.094 A 
ATOM     29  C   UNL d   1     -43.871  13.615  21.320  0.00  0.00     0.026 A 
ATOM     30  C   UNL d   1     -43.114  13.941  21.418  0.00  0.00     0.021 A 
BRANCH  28  31
ATOM     31  O   UNL d   1     -44.731  12.481  21.303  0.00  0.00    -0.328 OA
ATOM     32  C   UNL d   1     -45.393  12.905  21.553  0.00  0.00     0.181 C 
ENDBRANCH  28  31
ENDBRANCH  23  25
ENDBRANCH   1  22
TORSDOF 5
ENDMDL
MODEL 5
REMARK VINA RESULT:      -1.7      5.784      7.369
REMARK  5 active torsions:
REMARK  status: ('A' for Active; 'I' for Inactive)
REMARK    1  A    between atoms: C_4  and  C_1 
REMARK    2  A    between atoms: N_5  and  C_2 
REMARK       I    between atoms: N_9  and  C_4 
REMARK       I    between atoms: C_7  and  N_5 
REMARK    3  A    between atoms: C_10  and  C_7 
REMARK    4  A    between atoms: C_21  and  N_9 
REMARK    5  A    between atoms: O_29  and  C_22 
ROOT
ATOM      1  C   UNL d   1     -43.640  11.989  22.154  0.00  0.00     0.175 A 
ATOM      2  C   UNL d   1     -44.430  11.908  22.406  0.00  0.00     0.114 A 
ATOM      3  O   UNL d   1     -43.220  11.341  22.462  0.00  0.00    -0.301 OA
ATOM      4  C   UNL d   1     -44.484  11.226  22.856  0.00  0.00     0.043 A 
ATOM      5  C   UNL d   1     -43.738  10.874  22.893  0.00  0.00     0.102 A 
ATOM      6  C   UNL d   1     -45.125  10.875  23.243  0.00  0.00     0.004 A 
ATOM      7  C   UNL d   1     -43.634  10.177  23.312  0.00  0.00     0.025 A 
ATOM      8  C   UNL d   1     -45.016  10.171  23.666  0.00  0.00     0.000 A 
ATOM      9  C   UNL d   1     -44.265   9.825  23.698  0.00  0.00     0.002 A 
ENDROOT
BRANCH   2  10
ATOM     10  N   UNL d   1     -45.049  12.433  22.228  0.00  0.00    -0.206 NA
ATOM     11  C   UNL d   1     -45.444  12.822  22.839  0.00  0.00     0.279 C 
ATOM     12  O   UNL d   1     -45.227  12.694  23.623  0.00  0.00    -0.265 OA
BRANCH  11  13
ATOM     13  C   UNL d   1     -46.057  13.341  22.661  0.00  0.00     0.060 A 
ATOM     14  C   UNL d   1     -46.768  13.051  22.373  0.00  0.00     0.031 A 
ATOM     15  C   UNL d   1     -47.375  13.567  22.197  0.00  0.00     0.119 A 
ATOM     16  O   UNL d   1     -48.141  13.445  21.904  0.00  0.00    -0.300 OA
ATOM     17  C   UNL d   1     -47.271  14.378  22.311  0.00  0.00     0.119 A 
ATOM     18  C   UNL d   1     -48.507  14.185  21.838  0.00  0.00     0.304 A 
ATOM     19  O   UNL d   1     -47.967  14.756  22.090  0.00  0.00    -0.300 OA
ATOM     20  C   UNL d   1     -46.561  14.667  22.599  0.00  0.00     0.026 A 
ATOM     21  C   UNL d   1     -45.948  14.135  22.775  0.00  0.00     0.007 A 
ENDBRANCH  11  13
ENDBRANCH   2  10
BRANCH   1  22
ATOM     22  C   UNL d   1     -43.334  12.598  21.687  0.00  0.00     0.303 C 
ATOM     23  N   UNL d   1     -42.546  12.809  21.760  0.00  0.00    -0.206 NA
ATOM     24  O   UNL d   1     -43.825  12.990  21.148  0.00  0.00    -0.263 OA
BRANCH  23  25
ATOM     25  C   UNL d   1     -42.236  13.418  21.294  0.00  0.00     0.085 A 
ATOM     26  C   UNL d   1     -42.339  13.387  20.476  0.00  0.00     0.021 A 
ATOM     27  C   UNL d   1     -42.032  13.994  20.002  0.00  0.00     0.026 A 
ATOM     28  C   UNL d   1     -41.624  14.623  20.356  0.00  0.00     0.094 A 
ATOM     29  C   UNL d   1     -41.526  14.645  21.171  0.00  0.00     0.026 A 
ATOM     30  C   UNL d   1     -41.837  14.034  21.640  0.00  0.00     0.021 A 
BRANCH  28  31
ATOM     31  O   UNL d   1     -41.317  15.227  19.890  0.00  0.00    -0.328 OA
ATOM     32  C   UNL d   1     -41.048  15.921  20.247  0.00  0.00     0.181 C 
ENDBRANCH  28  31
ENDBRANCH  23  25
ENDBRANCH   1  22
TORSDOF 5
ENDMDL
MODEL 6
REMARK VINA RESULT:      -0.9      1.310      4.502
REMARK  5 active torsions:
REMARK  status: ('A' for Active; 'I' for Inactive)
REMARK    1  A    between atoms: C_4  and  C_1 
REMARK    2  A    between atoms: N_5  and  C_2 
REMARK       I    between atoms: N_9  and  C_4 
REMARK       I    between atoms: C_7  and  N_5 
REMARK    3  A    between atoms: C_10  and  C_7 
REMARK    4  A    between atoms: C_21  and  N_9 
REMARK    5  A    between atoms: O_29  and  C_22 
ROOT
ATOM      1  C   UNL d   1     -38.297  12.534  19.281  0.00  0.00     0.175 A 
ATOM      2  C   UNL d   1     -38.371  12.551  18.452  0.00  0.00     0.114 A 
ATOM      3  O   UNL d   1     -38.122  11.751  19.493  0.00  0.00    -0.301 OA
ATOM      4  C   UNL d   1     -38.243  11.792  18.170  0.00  0.00     0.043 A 
ATOM      5  C   UNL d   1     -38.089  11.295  18.813  0.00  0.00     0.102 A 
ATOM      6  C   UNL d   1     -38.246  11.484  17.404  0.00  0.00     0.004 A 
ATOM      7  C   UNL d   1     -37.940  10.498  18.688  0.00  0.00     0.025 A 
ATOM      8  C   UNL d   1     -38.095  10.679  17.281  0.00  0.00     0.000 A 
ATOM      9  C   UNL d   1     -37.942  10.188  17.930  0.00  0.00     0.002 A 
ENDROOT
BRANCH   2  10
ATOM     10  N   UNL d   1     -38.545  13.223  17.995  0.00  0.00    -0.206 NA
ATOM     11  C   UNL d   1     -39.305  13.327  17.694  0.00  0.00     0.279 C 
ATOM     12  O   UNL d   1     -39.893  12.769  17.842  0.00  0.00    -0.265 OA
BRANCH  11  13
ATOM     13  C   UNL d   1     -39.477  13.993  17.242  0.00  0.00     0.060 A 
ATOM     14  C   UNL d   1     -40.238  14.113  16.962  0.00  0.00     0.031 A 
ATOM     15  C   UNL d   1     -40.406  14.774  16.514  0.00  0.00     0.119 A 
ATOM     16  O   UNL d   1     -41.106  15.042  16.160  0.00  0.00    -0.300 OA
ATOM     17  C   UNL d   1     -39.809  15.318  16.345  0.00  0.00     0.119 A 
ATOM     18  C   UNL d   1     -40.937  15.754  15.773  0.00  0.00     0.304 A 
ATOM     19  O   UNL d   1     -40.137  15.920  15.890  0.00  0.00    -0.300 OA
ATOM     20  C   UNL d   1     -39.048  15.197  16.625  0.00  0.00     0.026 A 
ATOM     21  C   UNL d   1     -38.887  14.522  17.080  0.00  0.00     0.007 A 
ENDBRANCH  11  13
ENDBRANCH   2  10
BRANCH   1  22
ATOM     22  C   UNL d   1     -38.383  13.177  19.793  0.00  0.00     0.303 C 
ATOM     23  N   UNL d   1     -38.905  13.129  20.422  0.00  0.00    -0.206 NA
ATOM     24  O   UNL d   1     -37.940  13.866  19.668  0.00  0.00    -0.263 OA
BRANCH  23  25
ATOM     25  C   UNL d   1     -38.994  13.769  20.937  0.00  0.00     0.085 A 
ATOM     26  C   UNL d   1     -38.395  13.929  21.482  0.00  0.00     0.021 A 
ATOM     27  C   UNL d   1     -38.476  14.570  22.002  0.00  0.00     0.026 A 
ATOM     28  C   UNL d   1     -39.156  15.042  21.967  0.00  0.00     0.094 A 
ATOM     29  C   UNL d   1     -39.747  14.875  21.421  0.00  0.00     0.026 A 
ATOM     30  C   UNL d   1     -39.660  14.232  20.903  0.00  0.00     0.021 A 
BRANCH  28  31
ATOM     31  O   UNL d   1     -39.241  15.679  22.481  0.00  0.00    -0.328 OA
ATOM     32  C   UNL d   1     -38.825  15.686  23.194  0.00  0.00     0.181 C 
ENDBRANCH  28  31
ENDBRANCH  23  25
ENDBRANCH   1  22
TORSDOF 5
ENDMDL
