MODEL 1
REMARK VINA RESULT:      -6.0      0.000      0.000
REMARK  5 active torsions:
REMARK  status: ('A' for Active; 'I' for Inactive)
REMARK    1  A    between atoms: C_7  and  N_2 
REMARK    2  A    between atoms: C_6  and  C_8 
REMARK       I    between atoms: N_9  and  C_6 
REMARK    3  A    between atoms: C_8  and  C_7 
REMARK    4  A    between atoms: C_11  and  N_9 
REMARK    5  A    between atoms: C_13  and  C_11 
ROOT
ATOM      1  C   UNL d   1     -40.082  15.005  19.025  0.00  0.00     0.080 C 
ENDROOT
BRANCH   1   2
ATOM      2  C   UNL d   1     -40.323  14.870  19.802  0.00  0.00     0.266 C 
ATOM      3  N   UNL d   1     -39.952  15.253  20.427  0.00  0.00    -0.270 N 
ATOM      4  C   UNL d   1     -39.329  15.782  20.275  0.00  0.00     0.102 C 
ATOM      5  O   UNL d   1     -40.942  14.344  19.953  0.00  0.00    -0.267 OA
BRANCH   3   6
ATOM      6  C   UNL d   1     -40.193  15.117  21.198  0.00  0.00     0.083 C 
BRANCH   6   7
ATOM      7  C   UNL d   1     -39.654  15.163  21.816  0.00  0.00     0.018 A 
ATOM      8  C   UNL d   1     -39.224  14.496  22.054  0.00  0.00     0.002 A 
ATOM      9  C   UNL d   1     -38.685  14.541  22.672  0.00  0.00     0.000 A 
ATOM     10  C   UNL d   1     -38.566  15.252  23.062  0.00  0.00     0.000 A 
ATOM     11  C   UNL d   1     -38.990  15.922  22.831  0.00  0.00     0.000 A 
ATOM     12  C   UNL d   1     -39.538  15.874  22.203  0.00  0.00     0.002 A 
ENDBRANCH   6   7
ENDBRANCH   3   6
ENDBRANCH   1   2
BRANCH   1  13
ATOM     13  C   UNL d   1     -40.299  14.488  18.424  0.00  0.00     0.090 C 
BRANCH  13  14
ATOM     14  N   UNL d   1     -40.001  14.587  17.663  0.00  0.00    -0.251 N 
ATOM     15  C   UNL d   1     -40.249  15.146  17.113  0.00  0.00     0.378 A 
ATOM     16  O   UNL d   1     -39.770  14.994  16.463  0.00  0.00    -0.258 OA
ATOM     17  O   UNL d   1     -40.843  15.707  17.229  0.00  0.00    -0.237 OA
ATOM     18  C   UNL d   1     -39.276  14.424  16.556  0.00  0.00     0.121 A 
ATOM     19  C   UNL d   1     -38.698  14.078  16.072  0.00  0.00     0.026 A 
ATOM     20  C   UNL d   1     -39.398  14.138  17.320  0.00  0.00     0.092 A 
ATOM     21  C   UNL d   1     -38.243  13.445  16.355  0.00  0.00     0.002 A 
ATOM     22  C   UNL d   1     -38.374  13.167  17.122  0.00  0.00     0.002 A 
ATOM     23  C   UNL d   1     -38.951  13.515  17.602  0.00  0.00     0.020 A 
ENDBRANCH  13  14
ENDBRANCH   1  13
TORSDOF 5
ENDMDL
MODEL 2
REMARK VINA RESULT:      -5.8      8.479      9.861
REMARK  5 active torsions:
REMARK  status: ('A' for Active; 'I' for Inactive)
REMARK    1  A    between atoms: C_7  and  N_2 
REMARK    2  A    between atoms: C_6  and  C_8 
REMARK       I    between atoms: N_9  and  C_6 
REMARK    3  A    between atoms: C_8  and  C_7 
REMARK    4  A    between atoms: C_11  and  N_9 
REMARK    5  A    between atoms: C_13  and  C_11 
ROOT
ATOM      1  C   UNL d   1     -47.475  11.988  22.765  0.00  0.00     0.080 C 
ENDROOT
BRANCH   1   2
ATOM      2  C   UNL d   1     -48.280  11.997  22.942  0.00  0.00     0.266 C 
ATOM      3  N   UNL d   1     -48.826  12.260  22.387  0.00  0.00    -0.270 N 
ATOM      4  C   UNL d   1     -48.565  12.520  21.642  0.00  0.00     0.102 C 
ATOM      5  O   UNL d   1     -48.540  11.739  23.682  0.00  0.00    -0.267 OA
BRANCH   3   6
ATOM      6  C   UNL d   1     -49.626  12.268  22.565  0.00  0.00     0.083 C 
BRANCH   6   7
ATOM      7  C   UNL d   1     -50.101  12.890  22.316  0.00  0.00     0.018 A 
ATOM      8  C   UNL d   1     -50.234  13.544  22.807  0.00  0.00     0.002 A 
ATOM      9  C   UNL d   1     -50.709  14.167  22.559  0.00  0.00     0.000 A 
ATOM     10  C   UNL d   1     -51.058  14.147  21.818  0.00  0.00     0.000 A 
ATOM     11  C   UNL d   1     -50.931  13.499  21.322  0.00  0.00     0.000 A 
ATOM     12  C   UNL d   1     -50.448  12.867  21.576  0.00  0.00     0.002 A 
ENDBRANCH   6   7
ENDBRANCH   3   6
ENDBRANCH   1   2
BRANCH   1  13
ATOM     13  C   UNL d   1     -46.915  12.027  23.365  0.00  0.00     0.090 C 
BRANCH  13  14
ATOM     14  N   UNL d   1     -46.111  12.011  23.186  0.00  0.00    -0.251 N 
ATOM     15  C   UNL d   1     -45.677  12.621  22.847  0.00  0.00     0.378 A 
ATOM     16  O   UNL d   1     -44.919  12.305  22.796  0.00  0.00    -0.258 OA
ATOM     17  O   UNL d   1     -45.972  13.360  22.627  0.00  0.00    -0.237 OA
ATOM     18  C   UNL d   1     -44.851  11.595  23.057  0.00  0.00     0.121 A 
ATOM     19  C   UNL d   1     -44.218  11.063  23.118  0.00  0.00     0.026 A 
ATOM     20  C   UNL d   1     -45.602  11.374  23.317  0.00  0.00     0.092 A 
ATOM     21  C   UNL d   1     -44.339  10.308  23.441  0.00  0.00     0.002 A 
ATOM     22  C   UNL d   1     -45.095  10.097  23.698  0.00  0.00     0.002 A 
ATOM     23  C   UNL d   1     -45.724  10.630  23.635  0.00  0.00     0.020 A 
ENDBRANCH  13  14
ENDBRANCH   1  13
TORSDOF 5
ENDMDL
MODEL 3
REMARK VINA RESULT:      -5.6      1.022      4.737
REMARK  5 active torsions:
REMARK  status: ('A' for Active; 'I' for Inactive)
REMARK    1  A    between atoms: C_7  and  N_2 
REMARK    2  A    between atoms: C_6  and  C_8 
REMARK       I    between atoms: N_9  and  C_6 
REMARK    3  A    between atoms: C_8  and  C_7 
REMARK    4  A    between atoms: C_11  and  N_9 
REMARK    5  A    between atoms: C_13  and  C_11 
ROOT
ATOM      1  C   UNL d   1     -39.819  14.853  19.667  0.00  0.00     0.080 C 
ENDROOT
BRANCH   1   2
ATOM      2  C   UNL d   1     -40.004  14.574  18.914  0.00  0.00     0.266 C 
ATOM      3  N   UNL d   1     -39.571  14.819  18.260  0.00  0.00    -0.270 N 
ATOM      4  C   UNL d   1     -38.940  15.352  18.359  0.00  0.00     0.102 C 
ATOM      5  O   UNL d   1     -40.630  14.045  18.815  0.00  0.00    -0.267 OA
BRANCH   3   6
ATOM      6  C   UNL d   1     -39.756  14.540  17.512  0.00  0.00     0.083 C 
BRANCH   6   7
ATOM      7  C   UNL d   1     -39.161  14.316  16.992  0.00  0.00     0.018 A 
ATOM      8  C   UNL d   1     -38.760  13.598  17.093  0.00  0.00     0.002 A 
ATOM      9  C   UNL d   1     -38.164  13.372  16.574  0.00  0.00     0.000 A 
ATOM     10  C   UNL d   1     -37.960  13.859  15.947  0.00  0.00     0.000 A 
ATOM     11  C   UNL d   1     -38.355  14.576  15.840  0.00  0.00     0.000 A 
ATOM     12  C   UNL d   1     -38.959  14.803  16.368  0.00  0.00     0.002 A 
ENDBRANCH   6   7
ENDBRANCH   3   6
ENDBRANCH   1   2
BRANCH   1  13
ATOM     13  C   UNL d   1     -40.076  14.451  20.336  0.00  0.00     0.090 C 
BRANCH  13  14
ATOM     14  N   UNL d   1     -39.847  14.702  21.086  0.00  0.00    -0.251 N 
ATOM     15  C   UNL d   1     -40.116  15.374  21.476  0.00  0.00     0.378 A 
ATOM     16  O   UNL d   1     -39.709  15.351  22.191  0.00  0.00    -0.258 OA
ATOM     17  O   UNL d   1     -40.664  15.916  21.182  0.00  0.00    -0.237 OA
ATOM     18  C   UNL d   1     -39.240  14.759  22.272  0.00  0.00     0.121 A 
ATOM     19  C   UNL d   1     -38.731  14.507  22.876  0.00  0.00     0.026 A 
ATOM     20  C   UNL d   1     -39.305  14.319  21.577  0.00  0.00     0.092 A 
ATOM     21  C   UNL d   1     -38.285  13.814  22.782  0.00  0.00     0.002 A 
ATOM     22  C   UNL d   1     -38.357  13.381  22.082  0.00  0.00     0.002 A 
ATOM     23  C   UNL d   1     -38.867  13.635  21.482  0.00  0.00     0.020 A 
ENDBRANCH  13  14
ENDBRANCH   1  13
TORSDOF 5
ENDMDL
MODEL 4
REMARK VINA RESULT:      -5.5      7.608      8.975
REMARK  5 active torsions:
REMARK  status: ('A' for Active; 'I' for Inactive)
REMARK    1  A    between atoms: C_7  and  N_2 
REMARK    2  A    between atoms: C_6  and  C_8 
REMARK       I    between atoms: N_9  and  C_6 
REMARK    3  A    between atoms: C_8  and  C_7 
REMARK    4  A    between atoms: C_11  and  N_9 
REMARK    5  A    between atoms: C_13  and  C_11 
ROOT
ATOM      1  C   UNL d   1     -46.737  13.042  22.468  0.00  0.00     0.080 C 
ENDROOT
BRANCH   1   2
ATOM      2  C   UNL d   1     -47.363  13.574  22.532  0.00  0.00     0.266 C 
ATOM      3  N   UNL d   1     -48.094  13.400  22.199  0.00  0.00    -0.270 N 
ATOM      4  C   UNL d   1     -48.203  12.682  21.794  0.00  0.00     0.102 C 
ATOM      5  O   UNL d   1     -47.256  14.288  22.933  0.00  0.00    -0.267 OA
BRANCH   3   6
ATOM      6  C   UNL d   1     -48.716  13.931  22.263  0.00  0.00     0.083 C 
BRANCH   6   7
ATOM      7  C   UNL d   1     -49.493  13.668  22.213  0.00  0.00     0.018 A 
ATOM      8  C   UNL d   1     -49.914  13.727  21.502  0.00  0.00     0.002 A 
ATOM      9  C   UNL d   1     -50.691  13.465  21.450  0.00  0.00     0.000 A 
ATOM     10  C   UNL d   1     -51.059  13.141  22.107  0.00  0.00     0.000 A 
ATOM     11  C   UNL d   1     -50.646  13.079  22.819  0.00  0.00     0.000 A 
ATOM     12  C   UNL d   1     -49.857  13.346  22.869  0.00  0.00     0.002 A 
ENDBRANCH   6   7
ENDBRANCH   3   6
ENDBRANCH   1   2
BRANCH   1  13
ATOM     13  C   UNL d   1     -45.978  13.261  22.696  0.00  0.00     0.090 C 
BRANCH  13  14
ATOM     14  N   UNL d   1     -45.369  12.707  22.697  0.00  0.00    -0.251 N 
ATOM     15  C   UNL d   1     -45.333  12.025  23.156  0.00  0.00     0.378 A 
ATOM     16  O   UNL d   1     -44.616  11.689  22.935  0.00  0.00    -0.258 OA
ATOM     17  O   UNL d   1     -45.904  11.776  23.697  0.00  0.00    -0.237 OA
ATOM     18  C   UNL d   1     -44.228  12.079  22.411  0.00  0.00     0.121 A 
ATOM     19  C   UNL d   1     -43.501  11.963  22.029  0.00  0.00     0.026 A 
ATOM     20  C   UNL d   1     -44.685  12.743  22.235  0.00  0.00     0.092 A 
ATOM     21  C   UNL d   1     -43.233  12.514  21.469  0.00  0.00     0.002 A 
ATOM     22  C   UNL d   1     -43.700  13.175  21.301  0.00  0.00     0.002 A 
ATOM     23  C   UNL d   1     -44.423  13.287  21.684  0.00  0.00     0.020 A 
ENDBRANCH  13  14
ENDBRANCH   1  13
TORSDOF 5
ENDMDL
MODEL 5
REMARK VINA RESULT:      -5.5      8.479      9.904
REMARK  5 active torsions:
REMARK  status: ('A' for Active; 'I' for Inactive)
REMARK    1  A    between atoms: C_7  and  N_2 
REMARK    2  A    between atoms: C_6  and  C_8 
REMARK       I    between atoms: N_9  and  C_6 
REMARK    3  A    between atoms: C_8  and  C_7 
REMARK    4  A    between atoms: C_11  and  N_9 
REMARK    5  A    between atoms: C_13  and  C_11 
ROOT
ATOM      1  C   UNL d   1     -47.995  13.335  22.674  0.00  0.00     0.080 C 
ENDROOT
BRANCH   1   2
ATOM      2  C   UNL d   1     -47.181  13.285  22.790  0.00  0.00     0.266 C 
ATOM      3  N   UNL d   1     -46.857  12.664  23.221  0.00  0.00    -0.270 N 
ATOM      4  C   UNL d   1     -47.356  12.082  23.543  0.00  0.00     0.102 C 
ATOM      5  O   UNL d   1     -46.684  13.862  22.470  0.00  0.00    -0.267 OA
BRANCH   3   6
ATOM      6  C   UNL d   1     -46.047  12.616  23.334  0.00  0.00     0.083 C 
BRANCH   6   7
ATOM      7  C   UNL d   1     -45.670  11.885  23.335  0.00  0.00     0.018 A 
ATOM      8  C   UNL d   1     -44.932  11.790  22.972  0.00  0.00     0.002 A 
ATOM      9  C   UNL d   1     -44.555  11.060  22.972  0.00  0.00     0.000 A 
ATOM     10  C   UNL d   1     -44.908  10.415  23.334  0.00  0.00     0.000 A 
ATOM     11  C   UNL d   1     -45.644  10.502  23.698  0.00  0.00     0.000 A 
ATOM     12  C   UNL d   1     -46.026  11.244  23.697  0.00  0.00     0.002 A 
ENDBRANCH   6   7
ENDBRANCH   3   6
ENDBRANCH   1   2
BRANCH   1  13
ATOM     13  C   UNL d   1     -48.313  13.916  22.189  0.00  0.00     0.090 C 
BRANCH  13  14
ATOM     14  N   UNL d   1     -49.129  13.984  22.101  0.00  0.00    -0.251 N 
ATOM     15  C   UNL d   1     -49.602  13.538  21.598  0.00  0.00     0.378 A 
ATOM     16  O   UNL d   1     -50.356  13.836  21.735  0.00  0.00    -0.258 OA
ATOM     17  O   UNL d   1     -49.339  12.941  21.091  0.00  0.00    -0.237 OA
ATOM     18  C   UNL d   1     -50.389  14.395  22.249  0.00  0.00     0.121 A 
ATOM     19  C   UNL d   1     -51.006  14.853  22.561  0.00  0.00     0.026 A 
ATOM     20  C   UNL d   1     -49.614  14.516  22.506  0.00  0.00     0.092 A 
ATOM     21  C   UNL d   1     -50.844  15.434  23.131  0.00  0.00     0.002 A 
ATOM     22  C   UNL d   1     -50.065  15.547  23.381  0.00  0.00     0.002 A 
ATOM     23  C   UNL d   1     -49.453  15.088  23.067  0.00  0.00     0.020 A 
ENDBRANCH  13  14
ENDBRANCH   1  13
TORSDOF 5
ENDMDL
MODEL 6
REMARK VINA RESULT:      -5.4      8.184      9.607
REMARK  5 active torsions:
REMARK  status: ('A' for Active; 'I' for Inactive)
REMARK    1  A    between atoms: C_7  and  N_2 
REMARK    2  A    between atoms: C_6  and  C_8 
REMARK       I    between atoms: N_9  and  C_6 
REMARK    3  A    between atoms: C_8  and  C_7 
REMARK    4  A    between atoms: C_11  and  N_9 
REMARK    5  A    between atoms: C_13  and  C_11 
ROOT
ATOM      1  C   UNL d   1     -47.810  12.916  22.549  0.00  0.00     0.080 C 
ENDROOT
BRANCH   1   2
ATOM      2  C   UNL d   1     -47.073  13.068  22.887  0.00  0.00     0.266 C 
ATOM      3  N   UNL d   1     -46.396  13.078  22.422  0.00  0.00    -0.270 N 
ATOM      4  C   UNL d   1     -46.453  12.935  21.605  0.00  0.00     0.102 C 
ATOM      5  O   UNL d   1     -47.015  13.210  23.698  0.00  0.00    -0.267 OA
BRANCH   3   6
ATOM      6  C   UNL d   1     -45.664  13.229  22.759  0.00  0.00     0.083 C 
BRANCH   6   7
ATOM      7  C   UNL d   1     -44.976  12.967  22.394  0.00  0.00     0.018 A 
ATOM      8  C   UNL d   1     -44.592  13.434  21.828  0.00  0.00     0.002 A 
ATOM      9  C   UNL d   1     -43.904  13.173  21.463  0.00  0.00     0.000 A 
ATOM     10  C   UNL d   1     -43.589  12.442  21.657  0.00  0.00     0.000 A 
ATOM     11  C   UNL d   1     -43.966  11.970  22.220  0.00  0.00     0.000 A 
ATOM     12  C   UNL d   1     -44.664  12.237  22.590  0.00  0.00     0.002 A 
ENDBRANCH   6   7
ENDBRANCH   3   6
ENDBRANCH   1   2
BRANCH   1  13
ATOM     13  C   UNL d   1     -48.497  12.997  22.993  0.00  0.00     0.090 C 
BRANCH  13  14
ATOM     14  N   UNL d   1     -49.233  12.866  22.648  0.00  0.00    -0.251 N 
ATOM     15  C   UNL d   1     -49.564  12.134  22.475  0.00  0.00     0.378 A 
ATOM     16  O   UNL d   1     -50.290  12.331  22.142  0.00  0.00    -0.258 OA
ATOM     17  O   UNL d   1     -49.216  11.400  22.618  0.00  0.00    -0.237 OA
ATOM     18  C   UNL d   1     -50.429  13.077  22.097  0.00  0.00     0.121 A 
ATOM     19  C   UNL d   1     -51.064  13.527  21.813  0.00  0.00     0.026 A 
ATOM     20  C   UNL d   1     -49.766  13.452  22.415  0.00  0.00     0.092 A 
ATOM     21  C   UNL d   1     -51.034  14.356  21.848  0.00  0.00     0.002 A 
ATOM     22  C   UNL d   1     -50.366  14.721  22.168  0.00  0.00     0.002 A 
ATOM     23  C   UNL d   1     -49.735  14.268  22.450  0.00  0.00     0.020 A 
ENDBRANCH  13  14
ENDBRANCH   1  13
TORSDOF 5
ENDMDL
MODEL 7
REMARK VINA RESULT:      -4.8      1.719      2.301
REMARK  5 active torsions:
REMARK  status: ('A' for Active; 'I' for Inactive)
REMARK    1  A    between atoms: C_7  and  N_2 
REMARK    2  A    between atoms: C_6  and  C_8 
REMARK       I    between atoms: N_9  and  C_6 
REMARK    3  A    between atoms: C_8  and  C_7 
REMARK    4  A    between atoms: C_11  and  N_9 
REMARK    5  A    between atoms: C_13  and  C_11 
ROOT
ATOM      1  C   UNL d   1     -38.756  15.198  18.803  0.00  0.00     0.080 C 
ENDROOT
BRANCH   1   2
ATOM      2  C   UNL d   1     -38.377  15.235  19.534  0.00  0.00     0.266 C 
ATOM      3  N   UNL d   1     -38.431  14.610  20.064  0.00  0.00    -0.270 N 
ATOM      4  C   UNL d   1     -38.870  13.933  19.862  0.00  0.00     0.102 C 
ATOM      5  O   UNL d   1     -37.940  15.906  19.736  0.00  0.00    -0.267 OA
BRANCH   3   6
ATOM      6  C   UNL d   1     -38.054  14.649  20.791  0.00  0.00     0.083 C 
BRANCH   6   7
ATOM      7  C   UNL d   1     -38.327  14.204  21.426  0.00  0.00     0.018 A 
ATOM      8  C   UNL d   1     -37.940  13.508  21.654  0.00  0.00     0.002 A 
ATOM      9  C   UNL d   1     -38.212  13.063  22.288  0.00  0.00     0.000 A 
ATOM     10  C   UNL d   1     -38.876  13.305  22.704  0.00  0.00     0.000 A 
ATOM     11  C   UNL d   1     -39.268  13.997  22.483  0.00  0.00     0.000 A 
ATOM     12  C   UNL d   1     -38.989  14.448  21.838  0.00  0.00     0.002 A 
ENDBRANCH   6   7
ENDBRANCH   3   6
ENDBRANCH   1   2
BRANCH   1  13
ATOM     13  C   UNL d   1     -38.894  15.882  18.369  0.00  0.00     0.090 C 
BRANCH  13  14
ATOM     14  N   UNL d   1     -39.223  15.837  17.615  0.00  0.00    -0.251 N 
ATOM     15  C   UNL d   1     -38.809  15.766  16.908  0.00  0.00     0.378 A 
ATOM     16  O   UNL d   1     -39.406  15.746  16.343  0.00  0.00    -0.258 OA
ATOM     17  O   UNL d   1     -37.988  15.727  16.831  0.00  0.00    -0.237 OA
ATOM     18  C   UNL d   1     -40.111  15.795  16.622  0.00  0.00     0.121 A 
ATOM     19  C   UNL d   1     -40.866  15.798  16.278  0.00  0.00     0.026 A 
ATOM     20  C   UNL d   1     -40.030  15.855  17.440  0.00  0.00     0.092 A 
ATOM     21  C   UNL d   1     -41.540  15.862  16.758  0.00  0.00     0.002 A 
ATOM     22  C   UNL d   1     -41.447  15.921  17.577  0.00  0.00     0.002 A 
ATOM     23  C   UNL d   1     -40.693  15.918  17.915  0.00  0.00     0.020 A 
ENDBRANCH  13  14
ENDBRANCH   1  13
TORSDOF 5
ENDMDL
MODEL 8
REMARK VINA RESULT:      -4.7      1.772      4.926
REMARK  5 active torsions:
REMARK  status: ('A' for Active; 'I' for Inactive)
REMARK    1  A    between atoms: C_7  and  N_2 
REMARK    2  A    between atoms: C_6  and  C_8 
REMARK       I    between atoms: N_9  and  C_6 
REMARK    3  A    between atoms: C_8  and  C_7 
REMARK    4  A    between atoms: C_11  and  N_9 
REMARK    5  A    between atoms: C_13  and  C_11 
ROOT
ATOM      1  C   UNL d   1     -39.034  14.670  20.196  0.00  0.00     0.080 C 
ENDROOT
BRANCH   1   2
ATOM      2  C   UNL d   1     -39.097  15.247  19.612  0.00  0.00     0.266 C 
ATOM      3  N   UNL d   1     -39.797  15.340  19.191  0.00  0.00    -0.270 N 
ATOM      4  C   UNL d   1     -40.446  14.848  19.356  0.00  0.00     0.102 C 
ATOM      5  O   UNL d   1     -38.453  15.737  19.447  0.00  0.00    -0.267 OA
BRANCH   3   6
ATOM      6  C   UNL d   1     -39.859  15.915  18.610  0.00  0.00     0.083 C 
BRANCH   6   7
ATOM      7  C   UNL d   1     -40.243  15.752  17.902  0.00  0.00     0.018 A 
ATOM      8  C   UNL d   1     -39.832  15.415  17.266  0.00  0.00     0.002 A 
ATOM      9  C   UNL d   1     -40.215  15.251  16.558  0.00  0.00     0.000 A 
ATOM     10  C   UNL d   1     -41.012  15.421  16.474  0.00  0.00     0.000 A 
ATOM     11  C   UNL d   1     -41.428  15.756  17.103  0.00  0.00     0.000 A 
ATOM     12  C   UNL d   1     -41.038  15.922  17.821  0.00  0.00     0.002 A 
ENDBRANCH   6   7
ENDBRANCH   3   6
ENDBRANCH   1   2
BRANCH   1  13
ATOM     13  C   UNL d   1     -38.339  14.587  20.627  0.00  0.00     0.090 C 
BRANCH  13  14
ATOM     14  N   UNL d   1     -38.284  14.020  21.222  0.00  0.00    -0.251 N 
ATOM     15  C   UNL d   1     -38.102  13.225  21.118  0.00  0.00     0.378 A 
ATOM     16  O   UNL d   1     -38.123  12.926  21.884  0.00  0.00    -0.258 OA
ATOM     17  O   UNL d   1     -37.943  12.855  20.397  0.00  0.00    -0.237 OA
ATOM     18  C   UNL d   1     -38.292  13.437  22.421  0.00  0.00     0.121 A 
ATOM     19  C   UNL d   1     -38.376  13.399  23.245  0.00  0.00     0.026 A 
ATOM     20  C   UNL d   1     -38.402  14.154  22.028  0.00  0.00     0.092 A 
ATOM     21  C   UNL d   1     -38.570  14.081  23.675  0.00  0.00     0.002 A 
ATOM     22  C   UNL d   1     -38.678  14.794  23.271  0.00  0.00     0.002 A 
ATOM     23  C   UNL d   1     -38.594  14.828  22.450  0.00  0.00     0.020 A 
ENDBRANCH  13  14
ENDBRANCH   1  13
TORSDOF 5
ENDMDL
MODEL 9
REMARK VINA RESULT:      -4.3      1.218      5.007
REMARK  5 active torsions:
REMARK  status: ('A' for Active; 'I' for Inactive)
REMARK    1  A    between atoms: C_7  and  N_2 
REMARK    2  A    between atoms: C_6  and  C_8 
REMARK       I    between atoms: N_9  and  C_6 
REMARK    3  A    between atoms: C_8  and  C_7 
REMARK    4  A    between atoms: C_11  and  N_9 
REMARK    5  A    between atoms: C_13  and  C_11 
ROOT
ATOM      1  C   UNL d   1     -39.479  15.217  18.093  0.00  0.00     0.080 C 
ENDROOT
BRANCH   1   2
ATOM      2  C   UNL d   1     -38.810  15.249  17.612  0.00  0.00     0.266 C 
ATOM      3  N   UNL d   1     -38.621  14.621  17.117  0.00  0.00    -0.270 N 
ATOM      4  C   UNL d   1     -39.107  13.947  17.102  0.00  0.00     0.102 C 
ATOM      5  O   UNL d   1     -38.326  15.918  17.625  0.00  0.00    -0.267 OA
BRANCH   3   6
ATOM      6  C   UNL d   1     -37.956  14.655  16.639  0.00  0.00     0.083 C 
BRANCH   6   7
ATOM      7  C   UNL d   1     -37.952  14.284  15.906  0.00  0.00     0.018 A 
ATOM      8  C   UNL d   1     -37.956  13.458  15.848  0.00  0.00     0.002 A 
ATOM      9  C   UNL d   1     -37.952  13.087  15.116  0.00  0.00     0.000 A 
ATOM     10  C   UNL d   1     -37.944  13.534  14.429  0.00  0.00     0.000 A 
ATOM     11  C   UNL d   1     -37.940  14.358  14.478  0.00  0.00     0.000 A 
ATOM     12  C   UNL d   1     -37.944  14.733  15.223  0.00  0.00     0.002 A 
ENDBRANCH   6   7
ENDBRANCH   3   6
ENDBRANCH   1   2
BRANCH   1  13
ATOM     13  C   UNL d   1     -39.674  15.850  18.579  0.00  0.00     0.090 C 
BRANCH  13  14
ATOM     14  N   UNL d   1     -40.250  15.765  19.161  0.00  0.00    -0.251 N 
ATOM     15  C   UNL d   1     -41.064  15.785  19.044  0.00  0.00     0.378 A 
ATOM     16  O   UNL d   1     -41.364  15.673  19.802  0.00  0.00    -0.258 OA
ATOM     17  O   UNL d   1     -41.446  15.895  18.321  0.00  0.00    -0.237 OA
ATOM     18  C   UNL d   1     -40.839  15.591  20.344  0.00  0.00     0.121 A 
ATOM     19  C   UNL d   1     -40.872  15.468  21.164  0.00  0.00     0.026 A 
ATOM     20  C   UNL d   1     -40.108  15.645  19.965  0.00  0.00     0.092 A 
ATOM     21  C   UNL d   1     -40.171  15.400  21.603  0.00  0.00     0.002 A 
ATOM     22  C   UNL d   1     -39.446  15.456  21.213  0.00  0.00     0.002 A 
ATOM     23  C   UNL d   1     -39.416  15.578  20.396  0.00  0.00     0.020 A 
ENDBRANCH  13  14
ENDBRANCH   1  13
TORSDOF 5
ENDMDL
