MODEL 1
REMARK VINA RESULT:      -3.9      0.000      0.000
REMARK  2 active torsions:
REMARK  status: ('A' for Active; 'I' for Inactive)
REMARK    1  A    between atoms: C_2  and  C_1 
REMARK       I    between atoms: N_7  and  C_2 
REMARK    2  A    between atoms: C_9  and  N_7 
ROOT
ATOM      1  C   UNL d   1      59.108  -9.205  35.299  0.00  0.00     0.280 C 
ATOM      2  N   UNL d   1      58.943  -8.572  35.799  0.00  0.00    -0.208 NA
ATOM      3  O   UNL d   1      58.559  -9.818  35.225  0.00  0.00    -0.265 OA
ENDROOT
BRANCH   1   4
ATOM      4  C   UNL d   1      59.816  -9.226  34.876  0.00  0.00     0.065 A 
ATOM      5  C   UNL d   1      59.886  -9.263  34.054  0.00  0.00     0.011 A 
ATOM      6  C   UNL d   1      60.687  -9.273  33.877  0.00  0.00     0.030 A 
ATOM      7  C   UNL d   1      59.329  -9.289  33.453  0.00  0.00     0.001 A 
ATOM      8  C   UNL d   1      60.937  -9.309  33.088  0.00  0.00     0.006 A 
ATOM      9  S   UNL d   1      61.111  -9.242  34.584  0.00  0.00    -0.086 SA
ATOM     10  C   UNL d   1      60.391  -9.335  32.496  0.00  0.00     0.001 A 
ATOM     11  C   UNL d   1      59.581  -9.326  32.667  0.00  0.00     0.000 A 
ATOM     12  C   UNL d   1      60.560  -9.213  35.201  0.00  0.00     0.040 A 
ENDBRANCH   1   4
BRANCH   2  13
ATOM     13  C   UNL d   1      59.495  -7.952  35.875  0.00  0.00     0.085 A 
ATOM     14  C   UNL d   1      59.320  -7.207  35.573  0.00  0.00     0.019 A 
ATOM     15  C   UNL d   1      59.871  -6.591  35.650  0.00  0.00     0.002 A 
ATOM     16  C   UNL d   1      60.592  -6.723  36.027  0.00  0.00     0.000 A 
ATOM     17  C   UNL d   1      60.761  -7.478  36.330  0.00  0.00     0.002 A 
ATOM     18  C   UNL d   1      61.133  -6.098  36.097  0.00  0.00     0.000 C 
ATOM     19  C   UNL d   1      60.214  -8.091  36.254  0.00  0.00     0.019 A 
ENDBRANCH   2  13
TORSDOF 2
ENDMDL
MODEL 2
REMARK VINA RESULT:      -3.4      9.219     10.264
REMARK  2 active torsions:
REMARK  status: ('A' for Active; 'I' for Inactive)
REMARK    1  A    between atoms: C_2  and  C_1 
REMARK       I    between atoms: N_7  and  C_2 
REMARK    2  A    between atoms: C_9  and  N_7 
ROOT
ATOM      1  C   UNL d   1      58.054   0.231  28.992  0.00  0.00     0.280 C 
ATOM      2  N   UNL d   1      58.275  -0.380  28.486  0.00  0.00    -0.208 NA
ATOM      3  O   UNL d   1      57.384   0.682  28.816  0.00  0.00    -0.265 OA
ENDROOT
BRANCH   1   4
ATOM      4  C   UNL d   1      58.498   0.391  29.669  0.00  0.00     0.065 A 
ATOM      5  C   UNL d   1      58.205   0.433  30.439  0.00  0.00     0.011 A 
ATOM      6  C   UNL d   1      58.839   0.604  30.933  0.00  0.00     0.030 A 
ATOM      7  C   UNL d   1      57.453   0.339  30.750  0.00  0.00     0.001 A 
ATOM      8  C   UNL d   1      58.719   0.682  31.749  0.00  0.00     0.006 A 
ATOM      9  S   UNL d   1      59.519   0.667  30.471  0.00  0.00    -0.086 SA
ATOM     10  C   UNL d   1      57.980   0.590  32.055  0.00  0.00     0.001 A 
ATOM     11  C   UNL d   1      57.337   0.418  31.564  0.00  0.00     0.000 A 
ATOM     12  C   UNL d   1      59.298   0.533  29.685  0.00  0.00     0.040 A 
ENDBRANCH   1   4
BRANCH   2  13
ATOM     13  C   UNL d   1      58.951  -0.836  28.662  0.00  0.00     0.085 A 
ATOM     14  C   UNL d   1      58.868  -1.566  29.030  0.00  0.00     0.019 A 
ATOM     15  C   UNL d   1      59.541  -2.019  29.204  0.00  0.00     0.002 A 
ATOM     16  C   UNL d   1      60.292  -1.740  29.009  0.00  0.00     0.000 A 
ATOM     17  C   UNL d   1      60.367  -1.001  28.637  0.00  0.00     0.002 A 
ATOM     18  C   UNL d   1      60.956  -2.204  29.188  0.00  0.00     0.000 C 
ATOM     19  C   UNL d   1      59.698  -0.550  28.464  0.00  0.00     0.019 A 
ENDBRANCH   2  13
TORSDOF 2
ENDMDL
