MODEL 1
REMARK VINA RESULT:      18.7      0.000      0.000
REMARK  1 active torsions:
REMARK  status: ('A' for Active; 'I' for Inactive)
REMARK       I    between atoms: C_8  and  N_9 
REMARK    1  A    between atoms: N_9  and  C_10 
ROOT
ATOM      1  C   UNL d   1      58.774  49.697  50.009  0.00  0.00     0.102 A 
ATOM      2  O   UNL d   1      58.347  49.695  49.301  0.00  0.00    -0.307 OA
ATOM      3  C   UNL d   1      58.244  49.698  50.639  0.00  0.00     0.025 A 
ATOM      4  C   UNL d   1      57.480  49.697  50.320  0.00  0.00     0.025 A 
ATOM      5  C   UNL d   1      57.544  49.695  49.501  0.00  0.00     0.100 A 
ATOM      6  C   UNL d   1      59.583  49.698  50.153  0.00  0.00     0.044 A 
ATOM      7  C   UNL d   1      58.519  49.700  51.412  0.00  0.00     0.004 A 
ATOM      8  C   UNL d   1      59.867  49.700  50.925  0.00  0.00     0.087 A 
ATOM      9  C   UNL d   1      59.330  49.701  51.559  0.00  0.00     0.019 A 
ATOM     10  C   UNL d   1      56.729  49.697  50.679  0.00  0.00     0.002 A 
ATOM     11  C   UNL d   1      56.864  49.693  49.032  0.00  0.00     0.025 A 
ATOM     12  C   UNL d   1      56.054  49.696  50.211  0.00  0.00     0.000 A 
ATOM     13  C   UNL d   1      56.121  49.694  49.386  0.00  0.00     0.002 A 
ENDROOT
BRANCH   8  14
ATOM     14  N   UNL d   1      60.678  49.701  51.073  0.00  0.00    -0.208 NA
ATOM     15  C   UNL d   1      60.958  49.674  51.849  0.00  0.00     0.279 C 
ATOM     16  O   UNL d   1      60.420  49.645  52.477  0.00  0.00    -0.265 OA
ATOM     17  C   UNL d   1      61.773  49.674  51.999  0.00  0.00     0.068 C 
ENDBRANCH   8  14
TORSDOF 1
ENDMDL
MODEL 2
REMARK VINA RESULT:      19.9      1.261      3.724
REMARK  1 active torsions:
REMARK  status: ('A' for Active; 'I' for Inactive)
REMARK       I    between atoms: C_8  and  N_9 
REMARK    1  A    between atoms: N_9  and  C_10 
ROOT
ATOM      1  C   UNL d   1      59.451  49.686  50.317  0.00  0.00     0.102 A 
ATOM      2  O   UNL d   1      60.272  49.676  50.215  0.00  0.00    -0.307 OA
ATOM      3  C   UNL d   1      59.283  49.695  51.123  0.00  0.00     0.025 A 
ATOM      4  C   UNL d   1      60.006  49.691  51.527  0.00  0.00     0.025 A 
ATOM      5  C   UNL d   1      60.610  49.679  50.971  0.00  0.00     0.100 A 
ATOM      6  C   UNL d   1      58.838  49.687  49.770  0.00  0.00     0.044 A 
ATOM      7  C   UNL d   1      58.506  49.706  51.384  0.00  0.00     0.004 A 
ATOM      8  C   UNL d   1      58.056  49.698  50.023  0.00  0.00     0.087 A 
ATOM      9  C   UNL d   1      57.888  49.708  50.837  0.00  0.00     0.019 A 
ATOM     10  C   UNL d   1      60.187  49.696  52.339  0.00  0.00     0.002 A 
ATOM     11  C   UNL d   1      61.399  49.673  51.217  0.00  0.00     0.025 A 
ATOM     12  C   UNL d   1      60.972  49.690  52.581  0.00  0.00     0.000 A 
ATOM     13  C   UNL d   1      61.580  49.678  52.019  0.00  0.00     0.002 A 
ENDROOT
BRANCH   8  14
ATOM     14  N   UNL d   1      57.439  49.700  49.476  0.00  0.00    -0.208 NA
ATOM     15  C   UNL d   1      56.655  49.687  49.736  0.00  0.00     0.279 C 
ATOM     16  O   UNL d   1      56.493  49.673  50.546  0.00  0.00    -0.265 OA
ATOM     17  C   UNL d   1      56.034  49.689  49.187  0.00  0.00     0.068 C 
ENDBRANCH   8  14
TORSDOF 1
ENDMDL
