MODEL 1
REMARK VINA RESULT:      18.8      0.000      0.000
REMARK  1 active torsions:
REMARK  status: ('A' for Active; 'I' for Inactive)
REMARK    1  A    between atoms: C_12  and  C_8 
ROOT
ATOM      1  N   UNL d   1      45.899 -15.387  44.186  0.00  0.00    -0.123 N 
ATOM      2  N   UNL d   1      44.985 -14.608  44.947  0.00  0.00    -0.180 NA
ATOM      3  C   UNL d   1      45.255 -15.333  44.699  0.00  0.00     0.217 A 
ATOM      4  N   UNL d   1      46.274 -14.698  43.920  0.00  0.00    -0.141 NA
ATOM      5  N   UNL d   1      46.180 -16.112  43.928  0.00  0.00    -0.146 NA
ATOM      6  C   UNL d   1      45.348 -13.923  44.691  0.00  0.00     0.300 A 
ATOM      7  C   UNL d   1      45.992 -13.969  44.178  0.00  0.00     0.161 A 
ATOM      8  C   UNL d   1      45.805 -16.808  44.194  0.00  0.00     0.110 A 
ATOM      9  S   UNL d   1      44.892 -16.021  44.955  0.00  0.00    -0.045 SA
ATOM     10  C   UNL d   1      45.161 -16.763  44.707  0.00  0.00     0.059 A 
ATOM     11  O   UNL d   1      45.072 -13.186  44.944  0.00  0.00    -0.263 OA
ATOM     12  C   UNL d   1      46.361 -13.277  43.917  0.00  0.00     0.028 C 
ENDROOT
BRANCH   8  13
ATOM     13  C   UNL d   1      46.080 -17.542  43.941  0.00  0.00     0.020 A 
ATOM     14  C   UNL d   1      46.070 -17.727  43.136  0.00  0.00     0.002 A 
ATOM     15  C   UNL d   1      46.346 -18.464  42.881  0.00  0.00     0.000 A 
ATOM     16  C   UNL d   1      46.630 -19.010  43.430  0.00  0.00     0.000 A 
ATOM     17  C   UNL d   1      46.638 -18.819  44.235  0.00  0.00     0.000 A 
ATOM     18  C   UNL d   1      46.363 -18.085  44.488  0.00  0.00     0.002 A 
ENDBRANCH   8  13
TORSDOF 1
ENDMDL
MODEL 2
REMARK VINA RESULT:      20.1      2.129      4.032
REMARK  1 active torsions:
REMARK  status: ('A' for Active; 'I' for Inactive)
REMARK    1  A    between atoms: C_12  and  C_8 
ROOT
ATOM      1  N   UNL d   1      46.179 -17.708  43.443  0.00  0.00    -0.123 N 
ATOM      2  N   UNL d   1      46.348 -19.014  43.979  0.00  0.00    -0.180 NA
ATOM      3  C   UNL d   1      46.193 -18.223  44.087  0.00  0.00     0.217 A 
ATOM      4  N   UNL d   1      46.323 -17.996  42.680  0.00  0.00    -0.141 NA
ATOM      5  N   UNL d   1      46.025 -16.908  43.539  0.00  0.00    -0.146 NA
ATOM      6  C   UNL d   1      46.490 -19.307  43.231  0.00  0.00     0.300 A 
ATOM      7  C   UNL d   1      46.478 -18.798  42.582  0.00  0.00     0.161 A 
ATOM      8  C   UNL d   1      45.880 -16.614  44.306  0.00  0.00     0.110 A 
ATOM      9  S   UNL d   1      46.050 -17.926  44.837  0.00  0.00    -0.045 SA
ATOM     10  C   UNL d   1      45.892 -17.123  44.955  0.00  0.00     0.059 A 
ATOM     11  O   UNL d   1      46.647 -20.111  43.123  0.00  0.00    -0.263 OA
ATOM     12  C   UNL d   1      46.622 -19.094  41.824  0.00  0.00     0.028 C 
ENDROOT
BRANCH   8  13
ATOM     13  C   UNL d   1      45.724 -15.813  44.413  0.00  0.00     0.020 A 
ATOM     14  C   UNL d   1      45.043 -15.580  44.818  0.00  0.00     0.002 A 
ATOM     15  C   UNL d   1      44.885 -14.776  44.926  0.00  0.00     0.000 A 
ATOM     16  C   UNL d   1      45.407 -14.210  44.630  0.00  0.00     0.000 A 
ATOM     17  C   UNL d   1      46.087 -14.449  44.225  0.00  0.00     0.000 A 
ATOM     18  C   UNL d   1      46.244 -15.250  44.118  0.00  0.00     0.002 A 
ENDBRANCH   8  13
TORSDOF 1
ENDMDL
MODEL 3
REMARK VINA RESULT:      20.4      1.689      3.850
REMARK  1 active torsions:
REMARK  status: ('A' for Active; 'I' for Inactive)
REMARK    1  A    between atoms: C_12  and  C_8 
ROOT
ATOM      1  N   UNL d   1      46.033 -16.566  43.585  0.00  0.00    -0.123 N 
ATOM      2  N   UNL d   1      45.995 -17.803  44.285  0.00  0.00    -0.180 NA
ATOM      3  C   UNL d   1      45.900 -16.996  44.277  0.00  0.00     0.217 A 
ATOM      4  N   UNL d   1      46.265 -16.958  42.894  0.00  0.00    -0.141 NA
ATOM      5  N   UNL d   1      45.941 -15.752  43.564  0.00  0.00    -0.146 NA
ATOM      6  C   UNL d   1      46.223 -18.198  43.609  0.00  0.00     0.300 A 
ATOM      7  C   UNL d   1      46.358 -17.775  42.913  0.00  0.00     0.161 A 
ATOM      8  C   UNL d   1      45.707 -15.353  44.259  0.00  0.00     0.110 A 
ATOM      9  S   UNL d   1      45.671 -16.597  44.955  0.00  0.00    -0.045 SA
ATOM     10  C   UNL d   1      45.572 -15.776  44.954  0.00  0.00     0.059 A 
ATOM     11  O   UNL d   1      46.319 -19.019  43.619  0.00  0.00    -0.263 OA
ATOM     12  C   UNL d   1      46.589 -18.174  42.227  0.00  0.00     0.028 C 
ENDROOT
BRANCH   8  13
ATOM     13  C   UNL d   1      45.612 -14.536  44.248  0.00  0.00     0.020 A 
ATOM     14  C   UNL d   1      45.300 -14.171  43.576  0.00  0.00     0.002 A 
ATOM     15  C   UNL d   1      45.203 -13.349  43.564  0.00  0.00     0.000 A 
ATOM     16  C   UNL d   1      45.419 -12.899  44.221  0.00  0.00     0.000 A 
ATOM     17  C   UNL d   1      45.731 -13.271  44.890  0.00  0.00     0.000 A 
ATOM     18  C   UNL d   1      45.827 -14.089  44.902  0.00  0.00     0.002 A 
ENDBRANCH   8  13
TORSDOF 1
ENDMDL
