MODEL 1
REMARK VINA RESULT:      17.4      0.000      0.000
REMARK  4 active torsions:
REMARK  status: ('A' for Active; 'I' for Inactive)
REMARK    1  A    between atoms: C_20  and  C_4 
REMARK    2  A    between atoms: C_8  and  C_9 
REMARK       I    between atoms: C_9  and  N_18 
REMARK    3  A    between atoms: N_18  and  C_21 
REMARK    4  A    between atoms: C_21  and  C_20 
ROOT
ATOM      1  N   UNL d   1      46.094 -18.937  43.643  0.00  0.00    -0.208 NA
ATOM      2  C   UNL d   1      46.207 -18.808  42.826  0.00  0.00     0.085 A 
ATOM      3  C   UNL d   1      45.946 -18.295  44.143  0.00  0.00     0.279 A 
ATOM      4  C   UNL d   1      45.911 -17.523  43.830  0.00  0.00     0.059 A 
ATOM      5  C   UNL d   1      46.023 -17.402  43.020  0.00  0.00     0.006 A 
ATOM      6  C   UNL d   1      46.170 -18.042  42.523  0.00  0.00     0.018 A 
ATOM      7  C   UNL d   1      46.354 -19.456  42.333  0.00  0.00     0.018 A 
ATOM      8  O   UNL d   1      45.835 -18.418  44.949  0.00  0.00    -0.265 OA
ATOM      9  C   UNL d   1      46.466 -19.333  41.526  0.00  0.00     0.002 A 
ATOM     10  C   UNL d   1      46.283 -17.921  41.710  0.00  0.00     0.002 A 
ATOM     11  C   UNL d   1      46.430 -18.561  41.213  0.00  0.00     0.000 A 
ATOM     12  C   UNL d   1      46.388 -20.217  42.650  0.00  0.00     0.002 C 
ATOM     13  C   UNL d   1      46.613 -19.973  41.030  0.00  0.00     0.000 C 
ENDROOT
BRANCH   4  14
ATOM     14  C   UNL d   1      45.764 -16.891  44.329  0.00  0.00     0.026 C 
BRANCH  14  15
ATOM     15  C   UNL d   1      46.056 -16.144  44.159  0.00  0.00     0.102 C 
BRANCH  15  16
ATOM     16  N   UNL d   1      45.614 -15.466  44.318  0.00  0.00    -0.206 NA
ATOM     17  C   UNL d   1      45.899 -14.721  44.103  0.00  0.00     0.285 C 
ATOM     18  O   UNL d   1      46.626 -14.648  43.729  0.00  0.00    -0.265 OA
BRANCH  17  19
ATOM     19  C   UNL d   1      45.448 -14.046  44.266  0.00  0.00     0.087 A 
ATOM     20  S   UNL d   1      45.731 -13.282  44.314  0.00  0.00    -0.082 SA
ATOM     21  C   UNL d   1      45.114 -12.782  44.483  0.00  0.00     0.036 A 
ATOM     22  C   UNL d   1      44.426 -13.243  44.544  0.00  0.00     0.008 A 
ATOM     23  C   UNL d   1      44.635 -14.029  44.409  0.00  0.00     0.012 A 
ENDBRANCH  17  19
ENDBRANCH  15  16
ENDBRANCH  14  15
ENDBRANCH   4  14
TORSDOF 4
ENDMDL
