MODEL 1
REMARK VINA RESULT:      -7.5      0.000      0.000
REMARK  3 active torsions:
REMARK  status: ('A' for Active; 'I' for Inactive)
REMARK    1  A    between atoms: C_6  and  C_1 
REMARK    2  A    between atoms: C_12  and  C_6 
REMARK    3  A    between atoms: C_9  and  C_10 
ROOT
ATOM      1  C   UNL d   1     -46.602  13.445  22.905  0.00  0.00     0.139 A 
ATOM      2  C   UNL d   1     -45.592  12.581  22.838  0.00  0.00     0.064 A 
ATOM      3  C   UNL d   1     -45.833  13.337  22.620  0.00  0.00     0.220 A 
ATOM      4  C   UNL d   1     -46.203  12.219  23.257  0.00  0.00     0.106 A 
ATOM      5  O   UNL d   1     -46.830  12.756  23.298  0.00  0.00    -0.304 OA
ATOM      6  C   UNL d   1     -46.107  11.459  23.540  0.00  0.00     0.067 A 
ATOM      7  C   UNL d   1     -44.886  12.177  22.707  0.00  0.00     0.009 A 
ATOM      8  O   UNL d   1     -45.397  13.892  22.194  0.00  0.00    -0.284 OA
ATOM      9  C   UNL d   1     -45.401  11.055  23.408  0.00  0.00     0.198 A 
ATOM     10  C   UNL d   1     -44.795  11.413  22.994  0.00  0.00     0.042 A 
ATOM     11  O   UNL d   1     -45.308  10.288  23.696  0.00  0.00    -0.286 OA
ENDROOT
BRANCH   1  12
ATOM     12  C   UNL d   1     -47.064  14.122  22.814  0.00  0.00     0.028 C 
BRANCH  12  13
ATOM     13  C   UNL d   1     -47.869  14.062  22.628  0.00  0.00     0.002 A 
ATOM     14  C   UNL d   1     -48.091  13.939  21.848  0.00  0.00    -0.000 A 
ATOM     15  C   UNL d   1     -48.883  13.877  21.649  0.00  0.00    -0.004 A 
ATOM     16  C   UNL d   1     -49.466  13.940  22.243  0.00  0.00    -0.023 A 
ATOM     17  C   UNL d   1     -49.238  14.064  23.028  0.00  0.00    -0.004 A 
ATOM     18  C   UNL d   1     -48.434  14.124  23.215  0.00  0.00    -0.000 A 
BRANCH  16  19
ATOM     19  C   UNL d   1     -50.271  13.878  22.044  0.00  0.00     0.019 C 
ATOM     20  C   UNL d   1     -51.064  13.814  21.847  0.00  0.00     0.004 C 
ATOM     21  C   UNL d   1     -50.393  14.653  22.307  0.00  0.00     0.004 C 
ATOM     22  C   UNL d   1     -50.137  13.107  21.785  0.00  0.00     0.004 C 
ENDBRANCH  16  19
ENDBRANCH  12  13
ENDBRANCH   1  12
TORSDOF 3
ENDMDL
MODEL 2
REMARK VINA RESULT:      -7.3      1.390      4.476
REMARK  3 active torsions:
REMARK  status: ('A' for Active; 'I' for Inactive)
REMARK    1  A    between atoms: C_6  and  C_1 
REMARK    2  A    between atoms: C_12  and  C_6 
REMARK    3  A    between atoms: C_9  and  C_10 
ROOT
ATOM      1  C   UNL d   1     -47.976  14.162  22.476  0.00  0.00     0.139 A 
ATOM      2  C   UNL d   1     -49.241  14.490  22.225  0.00  0.00     0.064 A 
ATOM      3  C   UNL d   1     -48.545  14.752  22.578  0.00  0.00     0.220 A 
ATOM      4  C   UNL d   1     -49.108  13.742  21.905  0.00  0.00     0.106 A 
ATOM      5  O   UNL d   1     -48.323  13.538  22.061  0.00  0.00    -0.304 OA
ATOM      6  C   UNL d   1     -49.715  13.353  21.519  0.00  0.00     0.067 A 
ATOM      7  C   UNL d   1     -49.982  14.844  22.156  0.00  0.00     0.009 A 
ATOM      8  O   UNL d   1     -48.427  15.471  22.965  0.00  0.00    -0.284 OA
ATOM      9  C   UNL d   1     -50.456  13.706  21.451  0.00  0.00     0.198 A 
ATOM     10  C   UNL d   1     -50.587  14.448  21.768  0.00  0.00     0.042 A 
ATOM     11  O   UNL d   1     -51.064  13.310  21.061  0.00  0.00    -0.286 OA
ENDROOT
BRANCH   1  12
ATOM     12  C   UNL d   1     -47.195  14.186  22.741  0.00  0.00     0.028 C 
BRANCH  12  13
ATOM     13  C   UNL d   1     -46.771  13.486  22.870  0.00  0.00     0.002 A 
ATOM     14  C   UNL d   1     -46.904  13.059  23.557  0.00  0.00    -0.000 A 
ATOM     15  C   UNL d   1     -46.492  12.364  23.698  0.00  0.00    -0.004 A 
ATOM     16  C   UNL d   1     -45.935  12.093  23.140  0.00  0.00    -0.023 A 
ATOM     17  C   UNL d   1     -45.803  12.527  22.448  0.00  0.00    -0.004 A 
ATOM     18  C   UNL d   1     -46.227  13.226  22.318  0.00  0.00    -0.000 A 
BRANCH  16  19
ATOM     19  C   UNL d   1     -45.515  11.388  23.280  0.00  0.00     0.019 C 
ATOM     20  C   UNL d   1     -45.098  10.696  23.416  0.00  0.00     0.004 C 
ATOM     21  C   UNL d   1     -46.189  11.059  23.629  0.00  0.00     0.004 C 
ATOM     22  C   UNL d   1     -44.851  11.728  22.929  0.00  0.00     0.004 C 
ENDBRANCH  16  19
ENDBRANCH  12  13
ENDBRANCH   1  12
TORSDOF 3
ENDMDL
MODEL 3
REMARK VINA RESULT:      -7.2      0.956      1.774
REMARK  3 active torsions:
REMARK  status: ('A' for Active; 'I' for Inactive)
REMARK    1  A    between atoms: C_6  and  C_1 
REMARK    2  A    between atoms: C_12  and  C_6 
REMARK    3  A    between atoms: C_9  and  C_10 
ROOT
ATOM      1  C   UNL d   1     -47.153  12.347  23.250  0.00  0.00     0.139 A 
ATOM      2  C   UNL d   1     -45.883  12.067  22.966  0.00  0.00     0.064 A 
ATOM      3  C   UNL d   1     -46.563  11.773  23.326  0.00  0.00     0.220 A 
ATOM      4  C   UNL d   1     -46.047  12.818  22.667  0.00  0.00     0.106 A 
ATOM      5  O   UNL d   1     -46.836  12.991  22.844  0.00  0.00    -0.304 OA
ATOM      6  C   UNL d   1     -45.463  13.236  22.279  0.00  0.00     0.067 A 
ATOM      7  C   UNL d   1     -45.133  11.740  22.873  0.00  0.00     0.009 A 
ATOM      8  O   UNL d   1     -46.649  11.042  23.698  0.00  0.00    -0.284 OA
ATOM      9  C   UNL d   1     -44.712  12.909  22.186  0.00  0.00     0.198 A 
ATOM     10  C   UNL d   1     -44.550  12.165  22.483  0.00  0.00     0.042 A 
ATOM     11  O   UNL d   1     -44.125  13.335  21.795  0.00  0.00    -0.286 OA
ENDROOT
BRANCH   1  12
ATOM     12  C   UNL d   1     -47.927  12.290  23.530  0.00  0.00     0.028 C 
BRANCH  12  13
ATOM     13  C   UNL d   1     -48.558  12.598  23.091  0.00  0.00     0.002 A 
ATOM     14  C   UNL d   1     -48.751  13.391  23.170  0.00  0.00    -0.000 A 
ATOM     15  C   UNL d   1     -49.373  13.709  22.742  0.00  0.00    -0.004 A 
ATOM     16  C   UNL d   1     -49.812  13.224  22.225  0.00  0.00    -0.023 A 
ATOM     17  C   UNL d   1     -49.614  12.424  22.147  0.00  0.00    -0.004 A 
ATOM     18  C   UNL d   1     -48.983  12.116  22.586  0.00  0.00    -0.000 A 
BRANCH  16  19
ATOM     19  C   UNL d   1     -50.444  13.544  21.789  0.00  0.00     0.019 C 
ATOM     20  C   UNL d   1     -51.064  13.862  21.358  0.00  0.00     0.004 C 
ATOM     21  C   UNL d   1     -50.970  13.053  22.197  0.00  0.00     0.004 C 
ATOM     22  C   UNL d   1     -49.909  14.029  21.390  0.00  0.00     0.004 C 
ENDBRANCH  16  19
ENDBRANCH  12  13
ENDBRANCH   1  12
TORSDOF 3
ENDMDL
MODEL 4
REMARK VINA RESULT:      -7.1      1.764      4.685
REMARK  3 active torsions:
REMARK  status: ('A' for Active; 'I' for Inactive)
REMARK    1  A    between atoms: C_6  and  C_1 
REMARK    2  A    between atoms: C_12  and  C_6 
REMARK    3  A    between atoms: C_9  and  C_10 
ROOT
ATOM      1  C   UNL d   1     -48.870  12.941  23.300  0.00  0.00     0.139 A 
ATOM      2  C   UNL d   1     -50.052  13.546  23.226  0.00  0.00     0.064 A 
ATOM      3  C   UNL d   1     -49.681  12.812  23.214  0.00  0.00     0.220 A 
ATOM      4  C   UNL d   1     -49.477  14.131  23.317  0.00  0.00     0.106 A 
ATOM      5  O   UNL d   1     -48.743  13.754  23.363  0.00  0.00    -0.304 OA
ATOM      6  C   UNL d   1     -49.699  14.916  23.346  0.00  0.00     0.067 A 
ATOM      7  C   UNL d   1     -50.847  13.755  23.163  0.00  0.00     0.009 A 
ATOM      8  O   UNL d   1     -50.044  12.075  23.133  0.00  0.00    -0.284 OA
ATOM      9  C   UNL d   1     -50.494  15.125  23.283  0.00  0.00     0.198 A 
ATOM     10  C   UNL d   1     -51.063  14.546  23.193  0.00  0.00     0.042 A 
ATOM     11  O   UNL d   1     -50.713  15.919  23.313  0.00  0.00    -0.286 OA
ENDROOT
BRANCH   1  12
ATOM     12  C   UNL d   1     -48.283  12.361  23.319  0.00  0.00     0.028 C 
BRANCH  12  13
ATOM     13  C   UNL d   1     -47.520  12.524  23.041  0.00  0.00     0.002 A 
ATOM     14  C   UNL d   1     -46.897  12.552  23.575  0.00  0.00    -0.000 A 
ATOM     15  C   UNL d   1     -46.137  12.712  23.314  0.00  0.00    -0.004 A 
ATOM     16  C   UNL d   1     -45.996  12.845  22.503  0.00  0.00    -0.023 A 
ATOM     17  C   UNL d   1     -46.626  12.815  21.967  0.00  0.00    -0.004 A 
ATOM     18  C   UNL d   1     -47.390  12.653  22.245  0.00  0.00    -0.000 A 
BRANCH  16  19
ATOM     19  C   UNL d   1     -45.226  13.007  22.235  0.00  0.00     0.019 C 
ATOM     20  C   UNL d   1     -44.467  13.170  21.971  0.00  0.00     0.004 C 
ATOM     21  C   UNL d   1     -45.048  12.200  22.264  0.00  0.00     0.004 C 
ATOM     22  C   UNL d   1     -45.415  13.809  22.210  0.00  0.00     0.004 C 
ENDBRANCH  16  19
ENDBRANCH  12  13
ENDBRANCH   1  12
TORSDOF 3
ENDMDL
