MODEL 1
REMARK VINA RESULT:       2.9      0.000      0.000
REMARK  8 active torsions:
REMARK  status: ('A' for Active; 'I' for Inactive)
REMARK    1  A    between atoms: C_7  and  C_3 
REMARK    2  A    between atoms: C_9  and  C_4 
REMARK    3  A    between atoms: O_13  and  C_7 
REMARK    4  A    between atoms: O_15  and  C_12 
REMARK    5  A    between atoms: C_26  and  O_13 
REMARK    6  A    between atoms: O_25  and  C_14 
REMARK    7  A    between atoms: C_16  and  O_15 
REMARK    8  A    between atoms: C_28  and  O_25 
ROOT
ATOM      1  N   UNL d   1      59.764  -0.507  29.667  0.00  0.00    -0.254 N 
ATOM      2  C   UNL d   1      59.843   0.250  29.986  0.00  0.00     0.182 A 
ATOM      3  C   UNL d   1      58.471  -0.621  30.254  0.00  0.00     0.097 A 
ATOM      4  C   UNL d   1      59.080  -0.944  29.800  0.00  0.00     0.075 A 
ATOM      5  N   UNL d   1      59.234   0.570  30.438  0.00  0.00    -0.222 NA
ATOM      6  C   UNL d   1      58.546   0.135  30.574  0.00  0.00     0.090 A 
ATOM      7  C   UNL d   1      60.373  -0.832  29.212  0.00  0.00     0.267 A 
ATOM      8  S   UNL d   1      60.523   0.681  29.853  0.00  0.00    -0.049 SA
ATOM      9  C   UNL d   1      61.059  -0.387  29.083  0.00  0.00     0.068 A 
ATOM     10  O   UNL d   1      60.298  -1.589  28.892  0.00  0.00    -0.267 OA
ATOM     11  C   UNL d   1      61.133   0.369  29.403  0.00  0.00     0.043 A 
ATOM     12  C   UNL d   1      57.939   0.454  31.025  0.00  0.00     0.021 C 
ENDROOT
BRANCH   4  13
ATOM     13  C   UNL d   1      59.005  -1.701  29.480  0.00  0.00     0.019 A 
ATOM     14  C   UNL d   1      59.442  -2.322  29.794  0.00  0.00     0.028 A 
ATOM     15  C   UNL d   1      59.367  -3.078  29.474  0.00  0.00     0.123 A 
ATOM     16  C   UNL d   1      58.850  -3.211  28.835  0.00  0.00     0.126 A 
ATOM     17  C   UNL d   1      58.411  -2.581  28.522  0.00  0.00     0.027 A 
ATOM     18  C   UNL d   1      58.489  -1.826  28.845  0.00  0.00     0.004 A 
BRANCH  15  19
ATOM     19  O   UNL d   1      59.802  -3.703  29.785  0.00  0.00    -0.303 OA
BRANCH  19  20
ATOM     20  C   UNL d   1      60.607  -3.771  29.617  0.00  0.00     0.123 C 
ATOM     21  C   UNL d   1      61.047  -4.384  29.948  0.00  0.00     0.029 C 
ENDBRANCH  19  20
ENDBRANCH  15  19
BRANCH  16  22
ATOM     22  O   UNL d   1      58.772  -3.967  28.512  0.00  0.00    -0.271 OA
BRANCH  22  23
ATOM     23  C   UNL d   1      58.045  -4.348  28.527  0.00  0.00     0.300 C 
ATOM     24  O   UNL d   1      57.352  -3.906  28.595  0.00  0.00    -0.259 OA
ATOM     25  C   UNL d   1      58.007  -5.168  28.475  0.00  0.00     0.074 C 
ENDBRANCH  22  23
ENDBRANCH  16  22
ENDBRANCH   4  13
BRANCH   3  26
ATOM     26  C   UNL d   1      57.786  -1.060  30.386  0.00  0.00     0.303 C 
ATOM     27  O   UNL d   1      57.200  -1.110  29.807  0.00  0.00    -0.259 OA
BRANCH  26  28
ATOM     28  O   UNL d   1      57.689  -1.451  31.108  0.00  0.00    -0.273 OA
BRANCH  28  29
ATOM     29  C   UNL d   1      56.991  -1.349  31.543  0.00  0.00     0.103 C 
ATOM     30  C   UNL d   1      56.534  -1.999  31.759  0.00  0.00     0.027 C 
ATOM     31  C   UNL d   1      56.752  -0.590  31.761  0.00  0.00     0.027 C 
ENDBRANCH  28  29
ENDBRANCH  26  28
ENDBRANCH   3  26
TORSDOF 8
ENDMDL
