MODEL 1
REMARK VINA RESULT:      74.1      0.000      0.000
REMARK  4 active torsions:
REMARK  status: ('A' for Active; 'I' for Inactive)
REMARK    1  A    between atoms: N_10  and  C_2 
REMARK    2  A    between atoms: N_11  and  C_6 
REMARK    3  A    between atoms: C_12  and  N_11 
REMARK    4  A    between atoms: O_19  and  C_15 
ROOT
ATOM      1  N   UNL d   1      59.761  49.426  51.875  0.00  0.00    -0.041 NA
ATOM      2  C   UNL d   1      59.564  49.287  51.131  0.00  0.00     0.738 A 
ATOM      3  C   UNL d   1      60.493  49.292  52.117  0.00  0.00     0.187 A 
ATOM      4  N   UNL d   1      60.103  49.012  50.625  0.00  0.00    -0.041 NA
ATOM      5  C   UNL d   1      61.035  49.018  51.614  0.00  0.00     0.094 A 
ATOM      6  C   UNL d   1      60.840  48.876  50.861  0.00  0.00     0.185 A 
ATOM      7  N   UNL d   1      61.433  49.297  53.114  0.00  0.00    -0.162 NA
ATOM      8  N   UNL d   1      60.687  49.434  52.870  0.00  0.00    -0.208 N 
ATOM      9  C   UNL d   1      61.971  49.023  52.609  0.00  0.00     0.127 A 
ATOM     10  C   UNL d   1      60.151  49.707  53.373  0.00  0.00     0.123 C 
ENDROOT
BRANCH   6  11
ATOM     11  N   UNL d   1      61.395  48.590  50.329  0.00  0.00    -0.226 NA
BRANCH  11  12
ATOM     12  C   UNL d   1      61.438  47.786  50.166  0.00  0.00     0.085 A 
ATOM     13  C   UNL d   1      62.048  47.479  49.691  0.00  0.00     0.043 A 
ATOM     14  C   UNL d   1      62.093  46.672  49.526  0.00  0.00     0.096 A 
ATOM     15  C   UNL d   1      61.519  46.159  49.841  0.00  0.00     0.024 A 
ATOM     16  C   UNL d   1      60.915  46.456  50.312  0.00  0.00     0.004 A 
ATOM     17  C   UNL d   1      60.874  47.271  50.475  0.00  0.00     0.019 A 
BRANCH  14  18
ATOM     18  O   UNL d   1      62.699  46.372  49.054  0.00  0.00    -0.328 OA
ATOM     19  C   UNL d   1      62.980  45.607  48.900  0.00  0.00     0.181 C 
ENDBRANCH  14  18
ENDBRANCH  11  12
ENDBRANCH   6  11
BRANCH   2  20
ATOM     20  N   UNL d   1      58.789  49.427  50.870  0.00  0.00    -0.133 N 
ATOM     21  C   UNL d   1      58.634  49.539  50.069  0.00  0.00     0.125 A 
ATOM     22  C   UNL d   1      57.861  49.679  49.812  0.00  0.00     0.142 A 
ATOM     23  O   UNL d   1      57.236  49.708  50.361  0.00  0.00    -0.300 OA
ATOM     24  C   UNL d   1      57.390  49.596  51.167  0.00  0.00     0.142 A 
ATOM     25  C   UNL d   1      58.167  49.456  51.422  0.00  0.00     0.125 A 
ENDBRANCH   2  20
TORSDOF 4
ENDMDL
