MODEL 1
REMARK VINA RESULT:      51.4      0.000      0.000
REMARK  5 active torsions:
REMARK  status: ('A' for Active; 'I' for Inactive)
REMARK    1  A    between atoms: N_5  and  C_3 
REMARK    2  A    between atoms: O_13  and  C_4 
REMARK       I    between atoms: C_6  and  N_5 
REMARK    3  A    between atoms: C_9  and  C_6 
REMARK    4  A    between atoms: O_14  and  C_7 
REMARK    5  A    between atoms: O_18  and  C_15 
ROOT
ATOM      1  N   UNL d   1     -49.334  27.587  33.942  0.00  0.00    -0.189 NA
ATOM      2  C   UNL d   1     -49.280  27.837  34.735  0.00  0.00     0.281 C 
ATOM      3  O   UNL d   1     -49.761  27.474  35.324  0.00  0.00    -0.265 OA
ENDROOT
BRANCH   1   4
ATOM      4  C   UNL d   1     -49.859  26.984  33.737  0.00  0.00     0.173 A 
ATOM      5  N   UNL d   1     -50.669  27.146  33.642  0.00  0.00    -0.186 NA
ATOM      6  C   UNL d   1     -51.186  26.541  33.438  0.00  0.00     0.273 A 
ATOM      7  N   UNL d   1     -50.882  25.769  33.332  0.00  0.00    -0.181 NA
ATOM      8  C   UNL d   1     -50.109  25.614  33.423  0.00  0.00     0.185 A 
ATOM      9  C   UNL d   1     -49.572  26.217  33.629  0.00  0.00     0.083 A 
BRANCH   6  10
ATOM     10  O   UNL d   1     -51.969  26.698  33.346  0.00  0.00    -0.297 OA
ATOM     11  C   UNL d   1     -52.529  26.140  33.529  0.00  0.00     0.185 C 
ENDBRANCH   6  10
BRANCH   8  12
ATOM     12  O   UNL d   1     -49.837  24.834  33.310  0.00  0.00    -0.312 OA
ATOM     13  C   UNL d   1     -50.223  24.217  33.718  0.00  0.00     0.183 C 
ENDBRANCH   8  12
ENDBRANCH   1   4
BRANCH   2  14
ATOM     14  C   UNL d   1     -48.752  28.441  34.927  0.00  0.00     0.058 A 
ATOM     15  C   UNL d   1     -48.748  29.153  34.505  0.00  0.00     0.007 A 
ATOM     16  C   UNL d   1     -48.240  29.734  34.689  0.00  0.00     0.024 A 
ATOM     17  C   UNL d   1     -47.690  29.649  35.314  0.00  0.00     0.094 A 
ATOM     18  C   UNL d   1     -47.686  28.942  35.740  0.00  0.00     0.024 A 
ATOM     19  C   UNL d   1     -48.221  28.352  35.533  0.00  0.00     0.007 A 
BRANCH  17  20
ATOM     20  O   UNL d   1     -47.165  30.240  35.509  0.00  0.00    -0.328 OA
ATOM     21  C   UNL d   1     -47.391  31.015  35.467  0.00  0.00     0.181 C 
ENDBRANCH  17  20
ENDBRANCH   2  14
TORSDOF 5
ENDMDL
MODEL 2
REMARK VINA RESULT:      52.1      0.746      1.652
REMARK  5 active torsions:
REMARK  status: ('A' for Active; 'I' for Inactive)
REMARK    1  A    between atoms: N_5  and  C_3 
REMARK    2  A    between atoms: O_13  and  C_4 
REMARK       I    between atoms: C_6  and  N_5 
REMARK    3  A    between atoms: C_9  and  C_6 
REMARK    4  A    between atoms: O_14  and  C_7 
REMARK    5  A    between atoms: O_18  and  C_15 
ROOT
ATOM      1  N   UNL d   1     -49.733  26.835  33.797  0.00  0.00    -0.189 NA
ATOM      2  C   UNL d   1     -49.724  27.199  34.547  0.00  0.00     0.281 C 
ATOM      3  O   UNL d   1     -50.281  26.965  35.135  0.00  0.00    -0.265 OA
ENDROOT
BRANCH   1   4
ATOM      4  C   UNL d   1     -50.289  26.247  33.634  0.00  0.00     0.173 A 
ATOM      5  N   UNL d   1     -50.049  25.454  33.550  0.00  0.00    -0.186 NA
ATOM      6  C   UNL d   1     -50.608  24.874  33.387  0.00  0.00     0.273 A 
ATOM      7  N   UNL d   1     -51.410  25.096  33.310  0.00  0.00    -0.181 NA
ATOM      8  C   UNL d   1     -51.639  25.852  33.391  0.00  0.00     0.185 A 
ATOM      9  C   UNL d   1     -51.085  26.452  33.555  0.00  0.00     0.083 A 
BRANCH   6  10
ATOM     10  O   UNL d   1     -50.376  24.109  33.306  0.00  0.00    -0.297 OA
ATOM     11  C   UNL d   1     -50.918  23.505  33.332  0.00  0.00     0.185 C 
ENDBRANCH   6  10
BRANCH   8  12
ATOM     12  O   UNL d   1     -52.446  26.041  33.308  0.00  0.00    -0.312 OA
ATOM     13  C   UNL d   1     -52.980  25.758  33.884  0.00  0.00     0.183 C 
ENDBRANCH   8  12
ENDBRANCH   1   4
BRANCH   2  14
ATOM     14  C   UNL d   1     -49.164  27.785  34.698  0.00  0.00     0.058 A 
ATOM     15  C   UNL d   1     -49.042  28.404  34.163  0.00  0.00     0.007 A 
ATOM     16  C   UNL d   1     -48.503  28.969  34.307  0.00  0.00     0.024 A 
ATOM     17  C   UNL d   1     -48.040  28.959  35.004  0.00  0.00     0.094 A 
ATOM     18  C   UNL d   1     -48.154  28.346  35.544  0.00  0.00     0.024 A 
ATOM     19  C   UNL d   1     -48.718  27.770  35.375  0.00  0.00     0.007 A 
BRANCH  17  20
ATOM     20  O   UNL d   1     -47.484  29.534  35.160  0.00  0.00    -0.328 OA
ATOM     21  C   UNL d   1     -47.672  30.164  35.630  0.00  0.00     0.181 C 
ENDBRANCH  17  20
ENDBRANCH   2  14
TORSDOF 5
ENDMDL
