MODEL 1
REMARK VINA RESULT:      27.9      0.000      0.000
REMARK  1 active torsions:
REMARK  status: ('A' for Active; 'I' for Inactive)
REMARK    1  A    between atoms: C_6  and  C_1 
REMARK       I    between atoms: N_9  and  C_6 
ROOT
ATOM      1  C   UNL d   1      46.220 -18.050  44.012  0.00  0.00     0.107 A 
ATOM      2  C   UNL d   1      45.655 -16.895  44.362  0.00  0.00     0.044 A 
ATOM      3  S   UNL d   1      46.615 -17.443  43.622  0.00  0.00    -0.061 SA
ATOM      4  C   UNL d   1      46.266 -16.729  43.838  0.00  0.00     0.112 A 
ATOM      5  C   UNL d   1      45.624 -17.706  44.472  0.00  0.00     0.116 A 
ATOM      6  N   UNL d   1      46.424 -15.939  43.626  0.00  0.00    -0.239 NA
ATOM      7  C   UNL d   1      45.200 -16.280  44.677  0.00  0.00     0.005 A 
ATOM      8  C   UNL d   1      45.970 -15.331  43.941  0.00  0.00     0.082 A 
ATOM      9  C   UNL d   1      45.359 -15.510  44.467  0.00  0.00     0.018 A 
ATOM     10  N   UNL d   1      45.105 -18.109  44.943  0.00  0.00    -0.147 N 
ATOM     11  C   UNL d   1      46.280 -14.639  43.613  0.00  0.00     0.019 A 
ATOM     12  C   UNL d   1      44.797 -15.067  44.888  0.00  0.00     0.002 A 
ATOM     13  C   UNL d   1      46.101 -13.836  43.680  0.00  0.00     0.002 A 
ATOM     14  C   UNL d   1      44.622 -14.252  44.950  0.00  0.00     0.000 A 
ATOM     15  C   UNL d   1      44.932 -13.561  44.622  0.00  0.00     0.000 A 
ATOM     16  C   UNL d   1      45.545 -13.390  44.095  0.00  0.00     0.000 A 
ENDROOT
BRANCH   1  17
ATOM     17  C   UNL d   1      46.384 -18.833  43.956  0.00  0.00     0.272 C 
ATOM     18  N   UNL d   1      46.458 -19.170  43.239  0.00  0.00    -0.272 N 
ATOM     19  C   UNL d   1      46.385 -18.812  42.529  0.00  0.00     0.083 A 
ATOM     20  C   UNL d   1      46.622 -19.951  43.103  0.00  0.00     0.083 A 
ATOM     21  C   UNL d   1      46.502 -19.356  41.963  0.00  0.00     0.021 A 
ATOM     22  C   UNL d   1      46.647 -20.054  42.308  0.00  0.00     0.021 A 
ATOM     23  O   UNL d   1      46.473 -19.269  44.622  0.00  0.00    -0.266 OA
ENDBRANCH   1  17
TORSDOF 1
ENDMDL
MODEL 2
REMARK VINA RESULT:      27.9      1.458      4.609
REMARK  1 active torsions:
REMARK  status: ('A' for Active; 'I' for Inactive)
REMARK    1  A    between atoms: C_6  and  C_1 
REMARK       I    between atoms: N_9  and  C_6 
ROOT
ATOM      1  C   UNL d   1      45.212 -15.648  44.371  0.00  0.00     0.107 A 
ATOM      2  C   UNL d   1      45.625 -16.773  43.788  0.00  0.00     0.044 A 
ATOM      3  S   UNL d   1      45.299 -16.223  44.954  0.00  0.00    -0.061 SA
ATOM      4  C   UNL d   1      45.554 -16.918  44.594  0.00  0.00     0.112 A 
ATOM      5  C   UNL d   1      45.415 -15.994  43.647  0.00  0.00     0.116 A 
ATOM      6  N   UNL d   1      45.735 -17.674  44.895  0.00  0.00    -0.239 NA
ATOM      7  C   UNL d   1      45.873 -17.376  43.279  0.00  0.00     0.005 A 
ATOM      8  C   UNL d   1      45.981 -18.269  44.386  0.00  0.00     0.082 A 
ATOM      9  C   UNL d   1      46.048 -18.112  43.577  0.00  0.00     0.018 A 
ATOM     10  N   UNL d   1      45.405 -15.620  42.931  0.00  0.00    -0.147 N 
ATOM     11  C   UNL d   1      46.107 -18.927  44.869  0.00  0.00     0.019 A 
ATOM     12  C   UNL d   1      46.271 -18.553  42.909  0.00  0.00     0.002 A 
ATOM     13  C   UNL d   1      46.354 -19.704  44.738  0.00  0.00     0.002 A 
ATOM     14  C   UNL d   1      46.520 -19.340  42.786  0.00  0.00     0.000 A 
ATOM     15  C   UNL d   1      46.645 -19.997  43.269  0.00  0.00     0.000 A 
ATOM     16  C   UNL d   1      46.576 -20.146  44.079  0.00  0.00     0.000 A 
ENDROOT
BRANCH   1  17
ATOM     17  C   UNL d   1      44.974 -14.892  44.486  0.00  0.00     0.272 C 
ATOM     18  N   UNL d   1      45.510 -14.331  44.662  0.00  0.00    -0.272 N 
ATOM     19  C   UNL d   1      46.298 -14.428  44.743  0.00  0.00     0.083 A 
ATOM     20  C   UNL d   1      45.345 -13.549  44.791  0.00  0.00     0.083 A 
ATOM     21  C   UNL d   1      46.619 -13.723  44.920  0.00  0.00     0.021 A 
ATOM     22  C   UNL d   1      46.041 -13.182  44.950  0.00  0.00     0.021 A 
ATOM     23  O   UNL d   1      44.196 -14.706  44.423  0.00  0.00    -0.266 OA
ENDBRANCH   1  17
TORSDOF 1
ENDMDL
