MODEL 1
REMARK VINA RESULT:       5.3      0.000      0.000
REMARK  4 active torsions:
REMARK  status: ('A' for Active; 'I' for Inactive)
REMARK    1  A    between atoms: C_3  and  N_1 
REMARK    2  A    between atoms: C_2  and  C_7 
REMARK       I    between atoms: N_4  and  C_2 
REMARK    3  A    between atoms: C_15  and  N_4 
REMARK    4  A    between atoms: C_8  and  C_15 
ROOT
ATOM      1  C   UNL d   1      45.629 -15.220  44.511  0.00  0.00     0.127 A 
ATOM      2  C   UNL d   1      45.818 -13.589  44.411  0.00  0.00     0.058 A 
ATOM      3  C   UNL d   1      46.233 -14.889  44.051  0.00  0.00     0.024 A 
ATOM      4  C   UNL d   1      45.103 -14.697  44.935  0.00  0.00     0.024 A 
ATOM      5  C   UNL d   1      45.209 -13.895  44.876  0.00  0.00     0.006 A 
ATOM      6  C   UNL d   1      46.315 -14.083  44.009  0.00  0.00     0.006 A 
ENDROOT
BRANCH   2   7
ATOM      7  C   UNL d   1      45.896 -12.759  44.374  0.00  0.00     0.279 C 
ATOM      8  N   UNL d   1      45.559 -12.322  43.753  0.00  0.00    -0.200 NA
ATOM      9  O   UNL d   1      46.307 -12.361  44.952  0.00  0.00    -0.265 OA
BRANCH   8  10
ATOM     10  C   UNL d   1      45.132 -12.730  43.152  0.00  0.00     0.172 C 
BRANCH  10  11
ATOM     11  C   UNL d   1      44.726 -12.312  42.581  0.00  0.00     0.231 C 
ATOM     12  O   UNL d   1      45.104 -12.129  41.858  0.00  0.00    -0.643 OA
ATOM     13  O   UNL d   1      43.963 -12.080  42.718  0.00  0.00    -0.643 OA
ENDBRANCH  10  11
ENDBRANCH   8  10
ENDBRANCH   2   7
BRANCH   1  14
ATOM     14  N   UNL d   1      45.523 -16.057  44.570  0.00  0.00    -0.114 N 
ATOM     15  O   UNL d   1      46.089 -16.592  44.259  0.00  0.00    -0.532 OA
ATOM     16  O   UNL d   1      44.841 -16.349  44.944  0.00  0.00    -0.532 OA
ENDBRANCH   1  14
TORSDOF 4
ENDMDL
