MODEL 1
REMARK VINA RESULT:      60.6      0.000      0.000
REMARK  5 active torsions:
REMARK  status: ('A' for Active; 'I' for Inactive)
REMARK    1  A    between atoms: C_3  and  C_1 
REMARK    2  A    between atoms: S_2  and  C_3 
REMARK    3  A    between atoms: C_8  and  S_2 
REMARK    4  A    between atoms: C_9  and  C_3 
REMARK    5  A    between atoms: N_7  and  C_4 
ROOT
ATOM      1  C   UNL d   1      45.003 -16.056  37.603  0.00  0.00     0.128 A 
ATOM      2  C   UNL d   1      45.771 -15.809  37.775  0.00  0.00     0.166 A 
ATOM      3  N   UNL d   1      44.661 -16.669  38.030  0.00  0.00    -0.240 NA
ATOM      4  N   UNL d   1      46.198 -16.183  38.381  0.00  0.00    -0.225 NA
ATOM      5  C   UNL d   1      45.086 -17.035  38.626  0.00  0.00     0.099 A 
ATOM      6  C   UNL d   1      45.852 -16.793  38.801  0.00  0.00     0.101 A 
ATOM      7  C   UNL d   1      46.276 -17.167  39.406  0.00  0.00     0.021 A 
ATOM      8  C   UNL d   1      44.742 -17.651  39.053  0.00  0.00     0.021 A 
ATOM      9  C   UNL d   1      45.928 -17.778  39.827  0.00  0.00     0.002 A 
ATOM     10  C   UNL d   1      45.164 -18.020  39.652  0.00  0.00     0.002 A 
ENDROOT
BRANCH   1  11
ATOM     11  C   UNL d   1      44.577 -15.688  37.003  0.00  0.00     0.129 C 
BRANCH  11  12
ATOM     12  S   UNL d   1      43.875 -16.123  36.666  0.00  0.00     0.213 S 
ATOM     13  O   UNL d   1      44.019 -16.942  36.344  0.00  0.00    -0.217 OA
ATOM     14  O   UNL d   1      44.523 -16.635  36.583  0.00  0.00    -0.217 OA
BRANCH  12  15
ATOM     15  C   UNL d   1      43.071 -15.930  36.578  0.00  0.00     0.088 A 
ATOM     16  C   UNL d   1      42.509 -16.527  36.499  0.00  0.00     0.011 A 
ATOM     17  C   UNL d   1      41.706 -16.338  36.411  0.00  0.00     0.001 A 
ATOM     18  C   UNL d   1      41.152 -16.930  36.333  0.00  0.00     0.000 C 
ATOM     19  C   UNL d   1      41.475 -15.542  36.405  0.00  0.00     0.000 A 
ATOM     20  C   UNL d   1      42.048 -14.939  36.485  0.00  0.00     0.001 A 
ATOM     21  C   UNL d   1      42.841 -15.137  36.572  0.00  0.00     0.011 A 
ENDBRANCH  12  15
ENDBRANCH  11  12
BRANCH  11  22
ATOM     22  C   UNL d   1      44.696 -14.921  36.628  0.00  0.00     0.135 C 
ATOM     23  N   UNL d   1      44.359 -14.136  36.867  0.00  0.00    -0.146 N 
ENDBRANCH  11  22
ENDBRANCH   1  11
BRANCH   2  24
ATOM     24  N   UNL d   1      46.109 -15.187  37.338  0.00  0.00    -0.288 N 
ATOM     25  C   UNL d   1      46.287 -14.428  37.640  0.00  0.00     0.082 A 
ATOM     26  C   UNL d   1      46.618 -13.979  37.015  0.00  0.00     0.021 A 
ATOM     27  C   UNL d   1      46.642 -14.465  36.336  0.00  0.00     0.021 A 
ATOM     28  C   UNL d   1      46.325 -15.213  36.540  0.00  0.00     0.082 A 
ENDBRANCH   2  24
TORSDOF 5
ENDMDL
MODEL 2
REMARK VINA RESULT:      63.0      1.415      3.822
REMARK  5 active torsions:
REMARK  status: ('A' for Active; 'I' for Inactive)
REMARK    1  A    between atoms: C_3  and  C_1 
REMARK    2  A    between atoms: S_2  and  C_3 
REMARK    3  A    between atoms: C_8  and  S_2 
REMARK    4  A    between atoms: C_9  and  C_3 
REMARK    5  A    between atoms: N_7  and  C_4 
ROOT
ATOM      1  C   UNL d   1      44.306 -15.425  37.085  0.00  0.00     0.128 A 
ATOM      2  C   UNL d   1      44.039 -16.077  37.515  0.00  0.00     0.166 A 
ATOM      3  N   UNL d   1      43.770 -14.943  36.692  0.00  0.00    -0.240 NA
ATOM      4  N   UNL d   1      43.227 -16.245  37.548  0.00  0.00    -0.225 NA
ATOM      5  C   UNL d   1      42.970 -15.112  36.727  0.00  0.00     0.099 A 
ATOM      6  C   UNL d   1      42.700 -15.761  37.154  0.00  0.00     0.101 A 
ATOM      7  C   UNL d   1      41.888 -15.926  37.185  0.00  0.00     0.021 A 
ATOM      8  C   UNL d   1      42.433 -14.627  36.331  0.00  0.00     0.021 A 
ATOM      9  C   UNL d   1      41.360 -15.440  36.790  0.00  0.00     0.002 A 
ATOM     10  C   UNL d   1      41.631 -14.793  36.364  0.00  0.00     0.002 A 
ENDROOT
BRANCH   1  11
ATOM     11  C   UNL d   1      45.110 -15.256  37.050  0.00  0.00     0.129 C 
BRANCH  11  12
ATOM     12  S   UNL d   1      45.360 -14.405  37.149  0.00  0.00     0.213 S 
ATOM     13  O   UNL d   1      45.521 -13.939  36.406  0.00  0.00    -0.217 OA
ATOM     14  O   UNL d   1      45.343 -14.546  36.331  0.00  0.00    -0.217 OA
BRANCH  12  15
ATOM     15  C   UNL d   1      45.483 -13.919  37.812  0.00  0.00     0.088 A 
ATOM     16  C   UNL d   1      44.872 -13.446  38.097  0.00  0.00     0.011 A 
ATOM     17  C   UNL d   1      44.991 -12.960  38.758  0.00  0.00     0.001 A 
ATOM     18  C   UNL d   1      44.385 -12.493  39.038  0.00  0.00     0.000 C 
ATOM     19  C   UNL d   1      45.732 -12.955  39.130  0.00  0.00     0.000 A 
ATOM     20  C   UNL d   1      46.349 -13.436  38.839  0.00  0.00     0.001 A 
ATOM     21  C   UNL d   1      46.221 -13.914  38.182  0.00  0.00     0.011 A 
ENDBRANCH  12  15
ENDBRANCH  11  12
BRANCH  11  22
ATOM     22  C   UNL d   1      45.783 -15.781  36.930  0.00  0.00     0.135 C 
ATOM     23  N   UNL d   1      46.459 -15.685  36.363  0.00  0.00    -0.146 N 
ENDBRANCH  11  22
ENDBRANCH   1  11
BRANCH   2  24
ATOM     24  N   UNL d   1      44.589 -16.560  37.910  0.00  0.00    -0.288 N 
ATOM     25  C   UNL d   1      44.705 -16.579  38.738  0.00  0.00     0.082 A 
ATOM     26  C   UNL d   1      45.308 -17.139  38.896  0.00  0.00     0.021 A 
ATOM     27  C   UNL d   1      45.557 -17.459  38.166  0.00  0.00     0.021 A 
ATOM     28  C   UNL d   1      45.109 -17.097  37.557  0.00  0.00     0.082 A 
ENDBRANCH   2  24
TORSDOF 5
ENDMDL
