MODEL 1
REMARK VINA RESULT:      29.7      0.000      0.000
REMARK  5 active torsions:
REMARK  status: ('A' for Active; 'I' for Inactive)
REMARK    1  A    between atoms: O_8  and  C_2 
REMARK    2  A    between atoms: C_10  and  C_3 
REMARK    3  A    between atoms: C_14  and  O_8 
REMARK    4  A    between atoms: N_9  and  C_10 
REMARK    5  A    between atoms: O_23  and  C_17 
ROOT
ATOM      1  C   UNL d   1      45.464 -15.432  44.821  0.00  0.00     0.108 A 
ATOM      2  C   UNL d   1      46.161 -16.943  44.755  0.00  0.00     0.164 A 
ATOM      3  C   UNL d   1      45.110 -14.687  44.855  0.00  0.00     0.079 A 
ATOM      4  C   UNL d   1      44.988 -16.120  44.855  0.00  0.00     0.064 A 
ATOM      5  C   UNL d   1      45.331 -16.867  44.822  0.00  0.00     0.222 A 
ATOM      6  O   UNL d   1      46.285 -15.501  44.755  0.00  0.00    -0.303 OA
ATOM      7  C   UNL d   1      46.636 -16.260  44.721  0.00  0.00     0.150 A 
ATOM      8  C   UNL d   1      44.160 -16.040  44.922  0.00  0.00     0.009 A 
ATOM      9  C   UNL d   1      44.297 -14.608  44.921  0.00  0.00     0.199 A 
ATOM     10  O   UNL d   1      44.865 -17.547  44.855  0.00  0.00    -0.284 OA
ATOM     11  C   UNL d   1      43.816 -15.292  44.955  0.00  0.00     0.042 A 
ATOM     12  O   UNL d   1      43.946 -13.871  44.954  0.00  0.00    -0.286 OA
ENDROOT
BRANCH   2  13
ATOM     13  O   UNL d   1      46.506 -17.690  44.722  0.00  0.00    -0.300 OA
BRANCH  13  14
ATOM     14  C   UNL d   1      46.496 -18.110  44.021  0.00  0.00     0.122 A 
ATOM     15  C   UNL d   1      46.521 -18.926  44.033  0.00  0.00     0.117 A 
ATOM     16  C   UNL d   1      46.512 -19.349  43.329  0.00  0.00     0.026 A 
ATOM     17  C   UNL d   1      46.477 -18.942  42.610  0.00  0.00     0.002 A 
ATOM     18  C   UNL d   1      46.452 -18.125  42.598  0.00  0.00     0.002 A 
ATOM     19  C   UNL d   1      46.461 -17.702  43.306  0.00  0.00     0.027 A 
BRANCH  15  20
ATOM     20  O   UNL d   1      46.556 -19.321  44.754  0.00  0.00    -0.326 OA
ATOM     21  C   UNL d   1      46.336 -20.114  44.804  0.00  0.00     0.181 C 
ENDBRANCH  15  20
ENDBRANCH  13  14
ENDBRANCH   2  13
BRANCH   3  22
ATOM     22  C   UNL d   1      45.581 -14.016  44.821  0.00  0.00     0.086 C 
BRANCH  22  23
ATOM     23  N   UNL d   1      45.562 -13.531  44.151  0.00  0.00    -0.300 N 
ATOM     24  C   UNL d   1      45.542 -12.712  44.240  0.00  0.00     0.100 A 
ATOM     25  C   UNL d   1      45.524 -12.228  43.575  0.00  0.00     0.100 A 
ATOM     26  N   UNL d   1      45.525 -12.564  42.819  0.00  0.00    -0.299 N 
ATOM     27  C   UNL d   1      45.546 -13.384  42.734  0.00  0.00     0.100 A 
ATOM     28  C   UNL d   1      45.507 -12.081  42.152  0.00  0.00     0.100 C 
ATOM     29  C   UNL d   1      45.564 -13.877  43.403  0.00  0.00     0.100 A 
ENDBRANCH  22  23
ENDBRANCH   3  22
TORSDOF 5
ENDMDL
