MODEL 1
REMARK VINA RESULT:      -4.9      0.000      0.000
REMARK  5 active torsions:
REMARK  status: ('A' for Active; 'I' for Inactive)
REMARK    1  A    between atoms: N_6  and  S_1 
REMARK    2  A    between atoms: C_11  and  S_1 
REMARK    3  A    between atoms: C_2  and  N_5 
REMARK    4  A    between atoms: C_9  and  C_4 
REMARK       I    between atoms: N_5  and  C_7 
REMARK    5  A    between atoms: C_7  and  C_15 
ROOT
ATOM      1  C   UNL d   1     -47.613  13.684  22.746  0.00  0.00     0.104 A 
ATOM      2  C   UNL d   1     -45.977  13.268  22.428  0.00  0.00     0.058 A 
ATOM      3  C   UNL d   1     -46.959  14.051  23.160  0.00  0.00     0.013 A 
ATOM      4  C   UNL d   1     -47.398  13.120  22.187  0.00  0.00     0.013 A 
ATOM      5  C   UNL d   1     -46.605  12.914  22.029  0.00  0.00     0.005 A 
ATOM      6  C   UNL d   1     -46.176  13.869  23.026  0.00  0.00     0.005 A 
ENDROOT
BRANCH   2   7
ATOM      7  C   UNL d   1     -45.210  13.082  22.288  0.00  0.00     0.281 C 
ATOM      8  N   UNL d   1     -44.764  13.490  21.718  0.00  0.00    -0.183 NA
ATOM      9  O   UNL d   1     -44.846  12.448  22.736  0.00  0.00    -0.265 OA
BRANCH   8  10
ATOM     10  C   UNL d   1     -43.931  13.292  21.561  0.00  0.00     0.197 A 
ATOM     11  N   UNL d   1     -43.301  13.863  21.451  0.00  0.00    -0.220 NA
ATOM     12  C   UNL d   1     -42.583  13.440  21.313  0.00  0.00     0.096 A 
ATOM     13  C   UNL d   1     -42.790  12.600  21.342  0.00  0.00     0.058 A 
ATOM     14  S   UNL d   1     -43.608  12.535  21.493  0.00  0.00    -0.046 SA
BRANCH  12  15
ATOM     15  C   UNL d   1     -41.828  13.727  21.176  0.00  0.00     0.048 A 
ATOM     16  S   UNL d   1     -41.119  13.463  21.478  0.00  0.00    -0.085 SA
ATOM     17  C   UNL d   1     -40.504  13.920  21.188  0.00  0.00     0.035 A 
ATOM     18  C   UNL d   1     -40.854  14.475  20.695  0.00  0.00     0.007 A 
ATOM     19  C   UNL d   1     -41.667  14.359  20.687  0.00  0.00     0.009 A 
ENDBRANCH  12  15
ENDBRANCH   8  10
ENDBRANCH   2   7
BRANCH   1  20
ATOM     20  S   UNL d   1     -48.402  13.899  22.913  0.00  0.00     0.271 S 
ATOM     21  O   UNL d   1     -48.282  14.637  22.529  0.00  0.00    -0.200 OA
ATOM     22  O   UNL d   1     -48.542  13.156  23.306  0.00  0.00    -0.200 OA
BRANCH  20  23
ATOM     23  N   UNL d   1     -49.217  14.111  23.091  0.00  0.00    -0.229 N 
ATOM     24  C   UNL d   1     -49.891  13.683  23.313  0.00  0.00     0.092 A 
ATOM     25  C   UNL d   1     -50.517  14.198  23.406  0.00  0.00     0.021 A 
ATOM     26  C   UNL d   1     -50.266  14.971  23.247  0.00  0.00     0.021 A 
ATOM     27  C   UNL d   1     -49.456  14.904  23.053  0.00  0.00     0.092 A 
ENDBRANCH  20  23
ENDBRANCH   1  20
TORSDOF 5
ENDMDL
MODEL 2
REMARK VINA RESULT:      -4.2      1.930      2.940
REMARK  5 active torsions:
REMARK  status: ('A' for Active; 'I' for Inactive)
REMARK    1  A    between atoms: N_6  and  S_1 
REMARK    2  A    between atoms: C_11  and  S_1 
REMARK    3  A    between atoms: C_2  and  N_5 
REMARK    4  A    between atoms: C_9  and  C_4 
REMARK       I    between atoms: N_5  and  C_7 
REMARK    5  A    between atoms: C_7  and  C_15 
ROOT
ATOM      1  C   UNL d   1     -45.102  12.546  22.406  0.00  0.00     0.104 A 
ATOM      2  C   UNL d   1     -43.605  12.894  21.638  0.00  0.00     0.058 A 
ATOM      3  C   UNL d   1     -45.018  13.177  21.833  0.00  0.00     0.013 A 
ATOM      4  C   UNL d   1     -44.415  12.122  22.560  0.00  0.00     0.013 A 
ATOM      5  C   UNL d   1     -43.685  12.286  22.190  0.00  0.00     0.005 A 
ATOM      6  C   UNL d   1     -44.318  13.360  21.457  0.00  0.00     0.005 A 
ENDROOT
BRANCH   2   7
ATOM      7  C   UNL d   1     -42.912  13.065  21.274  0.00  0.00     0.281 C 
ATOM      8  N   UNL d   1     -42.491  13.758  21.452  0.00  0.00    -0.183 NA
ATOM      9  O   UNL d   1     -42.602  12.519  20.690  0.00  0.00    -0.265 OA
BRANCH   8  10
ATOM     10  C   UNL d   1     -41.737  13.949  21.060  0.00  0.00     0.197 A 
ATOM     11  N   UNL d   1     -41.662  14.293  20.278  0.00  0.00    -0.220 NA
ATOM     12  C   UNL d   1     -40.839  14.388  20.110  0.00  0.00     0.096 A 
ATOM     13  C   UNL d   1     -40.416  14.094  20.807  0.00  0.00     0.058 A 
ATOM     14  S   UNL d   1     -40.979  13.835  21.366  0.00  0.00    -0.046 SA
BRANCH  12  15
ATOM     15  C   UNL d   1     -40.477  14.690  19.441  0.00  0.00     0.048 A 
ATOM     16  S   UNL d   1     -40.073  14.292  18.855  0.00  0.00    -0.085 SA
ATOM     17  C   UNL d   1     -39.804  14.822  18.291  0.00  0.00     0.035 A 
ATOM     18  C   UNL d   1     -40.052  15.562  18.546  0.00  0.00     0.007 A 
ATOM     19  C   UNL d   1     -40.466  15.483  19.252  0.00  0.00     0.009 A 
ENDBRANCH  12  15
ENDBRANCH   8  10
ENDBRANCH   2   7
BRANCH   1  20
ATOM     20  S   UNL d   1     -45.837  12.392  22.770  0.00  0.00     0.271 S 
ATOM     21  O   UNL d   1     -45.459  11.880  23.318  0.00  0.00    -0.200 OA
ATOM     22  O   UNL d   1     -46.238  12.908  22.222  0.00  0.00    -0.200 OA
BRANCH  20  23
ATOM     23  N   UNL d   1     -46.601  12.240  23.137  0.00  0.00    -0.229 N 
ATOM     24  C   UNL d   1     -47.245  12.715  23.351  0.00  0.00     0.092 A 
ATOM     25  C   UNL d   1     -47.824  12.247  23.686  0.00  0.00     0.021 A 
ATOM     26  C   UNL d   1     -47.570  11.458  23.698  0.00  0.00     0.021 A 
ATOM     27  C   UNL d   1     -46.808  11.466  23.354  0.00  0.00     0.092 A 
ENDBRANCH  20  23
ENDBRANCH   1  20
TORSDOF 5
ENDMDL
MODEL 3
REMARK VINA RESULT:      -3.8      1.948      6.602
REMARK  5 active torsions:
REMARK  status: ('A' for Active; 'I' for Inactive)
REMARK    1  A    between atoms: N_6  and  S_1 
REMARK    2  A    between atoms: C_11  and  S_1 
REMARK    3  A    between atoms: C_2  and  N_5 
REMARK    4  A    between atoms: C_9  and  C_4 
REMARK       I    between atoms: N_5  and  C_7 
REMARK    5  A    between atoms: C_7  and  C_15 
ROOT
ATOM      1  C   UNL d   1     -42.159  13.659  20.996  0.00  0.00     0.104 A 
ATOM      2  C   UNL d   1     -43.681  13.176  21.629  0.00  0.00     0.058 A 
ATOM      3  C   UNL d   1     -42.345  12.840  21.165  0.00  0.00     0.013 A 
ATOM      4  C   UNL d   1     -42.762  14.193  21.160  0.00  0.00     0.013 A 
ATOM      5  C   UNL d   1     -43.503  13.965  21.467  0.00  0.00     0.005 A 
ATOM      6  C   UNL d   1     -43.059  12.588  21.466  0.00  0.00     0.005 A 
ENDROOT
BRANCH   2   7
ATOM      7  C   UNL d   1     -44.388  12.940  21.925  0.00  0.00     0.281 C 
ATOM      8  N   UNL d   1     -45.019  13.473  22.009  0.00  0.00    -0.183 NA
ATOM      9  O   UNL d   1     -44.489  12.121  22.157  0.00  0.00    -0.265 OA
BRANCH   8  10
ATOM     10  C   UNL d   1     -45.789  13.222  22.329  0.00  0.00     0.197 A 
ATOM     11  N   UNL d   1     -46.490  13.064  21.862  0.00  0.00    -0.220 NA
ATOM     12  C   UNL d   1     -47.112  12.837  22.387  0.00  0.00     0.096 A 
ATOM     13  C   UNL d   1     -46.774  12.860  23.184  0.00  0.00     0.058 A 
ATOM     14  S   UNL d   1     -45.975  13.095  23.124  0.00  0.00    -0.046 SA
BRANCH  12  15
ATOM     15  C   UNL d   1     -47.886  12.630  22.217  0.00  0.00     0.048 A 
ATOM     16  S   UNL d   1     -48.388  12.144  22.636  0.00  0.00    -0.085 SA
ATOM     17  C   UNL d   1     -49.113  12.097  22.257  0.00  0.00     0.035 A 
ATOM     18  C   UNL d   1     -49.045  12.569  21.589  0.00  0.00     0.007 A 
ATOM     19  C   UNL d   1     -48.292  12.898  21.563  0.00  0.00     0.009 A 
ENDBRANCH  12  15
ENDBRANCH   8  10
ENDBRANCH   2   7
BRANCH   1  20
ATOM     20  S   UNL d   1     -41.413  13.875  20.689  0.00  0.00     0.271 S 
ATOM     21  O   UNL d   1     -41.657  13.625  19.924  0.00  0.00    -0.200 OA
ATOM     22  O   UNL d   1     -41.149  14.133  21.457  0.00  0.00    -0.200 OA
BRANCH  20  23
ATOM     23  N   UNL d   1     -40.642  14.101  20.382  0.00  0.00    -0.229 N 
ATOM     24  C   UNL d   1     -39.891  14.197  20.719  0.00  0.00     0.092 A 
ATOM     25  C   UNL d   1     -39.364  14.424  20.138  0.00  0.00     0.021 A 
ATOM     26  C   UNL d   1     -39.759  14.480  19.411  0.00  0.00     0.021 A 
ATOM     27  C   UNL d   1     -40.552  14.277  19.576  0.00  0.00     0.092 A 
ENDBRANCH  20  23
ENDBRANCH   1  20
TORSDOF 5
ENDMDL
MODEL 4
REMARK VINA RESULT:      -3.4      1.589      6.422
REMARK  5 active torsions:
REMARK  status: ('A' for Active; 'I' for Inactive)
REMARK    1  A    between atoms: N_6  and  S_1 
REMARK    2  A    between atoms: C_11  and  S_1 
REMARK    3  A    between atoms: C_2  and  N_5 
REMARK    4  A    between atoms: C_9  and  C_4 
REMARK       I    between atoms: N_5  and  C_7 
REMARK    5  A    between atoms: C_7  and  C_15 
ROOT
ATOM      1  C   UNL d   1     -43.925  13.062  21.775  0.00  0.00     0.104 A 
ATOM      2  C   UNL d   1     -45.430  12.674  22.506  0.00  0.00     0.058 A 
ATOM      3  C   UNL d   1     -44.587  13.605  21.774  0.00  0.00     0.013 A 
ATOM      4  C   UNL d   1     -44.064  12.345  22.152  0.00  0.00     0.013 A 
ATOM      5  C   UNL d   1     -44.793  12.151  22.509  0.00  0.00     0.005 A 
ATOM      6  C   UNL d   1     -45.310  13.442  22.114  0.00  0.00     0.005 A 
ENDROOT
BRANCH   2   7
ATOM      7  C   UNL d   1     -46.137  12.503  22.844  0.00  0.00     0.281 C 
ATOM      8  N   UNL d   1     -46.816  12.378  22.383  0.00  0.00    -0.183 NA
ATOM      9  O   UNL d   1     -46.188  12.449  23.698  0.00  0.00    -0.265 OA
BRANCH   8  10
ATOM     10  C   UNL d   1     -47.586  12.192  22.744  0.00  0.00     0.197 A 
ATOM     11  N   UNL d   1     -48.319  12.605  22.582  0.00  0.00    -0.220 NA
ATOM     12  C   UNL d   1     -48.930  12.251  23.045  0.00  0.00     0.096 A 
ATOM     13  C   UNL d   1     -48.552  11.613  23.493  0.00  0.00     0.058 A 
ATOM     14  S   UNL d   1     -47.742  11.596  23.295  0.00  0.00    -0.046 SA
BRANCH  12  15
ATOM     15  C   UNL d   1     -49.725  12.441  23.091  0.00  0.00     0.048 A 
ATOM     16  S   UNL d   1     -50.129  12.805  23.698  0.00  0.00    -0.085 SA
ATOM     17  C   UNL d   1     -50.921  12.883  23.500  0.00  0.00     0.035 A 
ATOM     18  C   UNL d   1     -50.995  12.556  22.751  0.00  0.00     0.007 A 
ATOM     19  C   UNL d   1     -50.262  12.284  22.498  0.00  0.00     0.009 A 
ENDBRANCH  12  15
ENDBRANCH   8  10
ENDBRANCH   2   7
BRANCH   1  20
ATOM     20  S   UNL d   1     -43.200  13.268  21.415  0.00  0.00     0.271 S 
ATOM     21  O   UNL d   1     -43.325  14.073  21.626  0.00  0.00    -0.200 OA
ATOM     22  O   UNL d   1     -43.057  12.458  21.193  0.00  0.00    -0.200 OA
BRANCH  20  23
ATOM     23  N   UNL d   1     -42.452  13.470  21.041  0.00  0.00    -0.229 N 
ATOM     24  C   UNL d   1     -42.100  13.284  20.314  0.00  0.00     0.092 A 
ATOM     25  C   UNL d   1     -41.370  13.646  20.270  0.00  0.00     0.021 A 
ATOM     26  C   UNL d   1     -41.230  14.075  20.965  0.00  0.00     0.021 A 
ATOM     27  C   UNL d   1     -41.910  13.958  21.437  0.00  0.00     0.092 A 
ENDBRANCH  20  23
ENDBRANCH   1  20
TORSDOF 5
ENDMDL
MODEL 5
REMARK VINA RESULT:      -3.4      2.415      7.192
REMARK  5 active torsions:
REMARK  status: ('A' for Active; 'I' for Inactive)
REMARK    1  A    between atoms: N_6  and  S_1 
REMARK    2  A    between atoms: C_11  and  S_1 
REMARK    3  A    between atoms: C_2  and  N_5 
REMARK    4  A    between atoms: C_9  and  C_4 
REMARK       I    between atoms: N_5  and  C_7 
REMARK    5  A    between atoms: C_7  and  C_15 
ROOT
ATOM      1  C   UNL d   1     -40.560  14.465  20.382  0.00  0.00     0.104 A 
ATOM      2  C   UNL d   1     -41.956  13.708  21.035  0.00  0.00     0.058 A 
ATOM      3  C   UNL d   1     -41.175  14.135  19.886  0.00  0.00     0.013 A 
ATOM      4  C   UNL d   1     -40.689  14.391  21.190  0.00  0.00     0.013 A 
ATOM      5  C   UNL d   1     -41.365  14.025  21.514  0.00  0.00     0.005 A 
ATOM      6  C   UNL d   1     -41.846  13.772  20.173  0.00  0.00     0.005 A 
ENDROOT
BRANCH   2   7
ATOM      7  C   UNL d   1     -42.612  13.352  21.329  0.00  0.00     0.281 C 
ATOM      8  N   UNL d   1     -43.339  13.753  21.368  0.00  0.00    -0.183 NA
ATOM      9  O   UNL d   1     -42.559  12.543  21.607  0.00  0.00    -0.265 OA
BRANCH   8  10
ATOM     10  C   UNL d   1     -44.055  13.373  21.687  0.00  0.00     0.197 A 
ATOM     11  N   UNL d   1     -44.721  13.787  22.032  0.00  0.00    -0.220 NA
ATOM     12  C   UNL d   1     -45.293  13.213  22.269  0.00  0.00     0.096 A 
ATOM     13  C   UNL d   1     -44.961  12.441  22.061  0.00  0.00     0.058 A 
ATOM     14  S   UNL d   1     -44.213  12.562  21.711  0.00  0.00    -0.046 SA
BRANCH  12  15
ATOM     15  C   UNL d   1     -46.023  13.322  22.625  0.00  0.00     0.048 A 
ATOM     16  S   UNL d   1     -46.498  12.773  22.996  0.00  0.00    -0.085 SA
ATOM     17  C   UNL d   1     -47.180  13.134  23.271  0.00  0.00     0.035 A 
ATOM     18  C   UNL d   1     -47.114  13.924  23.059  0.00  0.00     0.007 A 
ATOM     19  C   UNL d   1     -46.404  14.042  22.663  0.00  0.00     0.009 A 
ENDBRANCH  12  15
ENDBRANCH   8  10
ENDBRANCH   2   7
BRANCH   1  20
ATOM     20  S   UNL d   1     -39.888  14.829  20.046  0.00  0.00     0.271 S 
ATOM     21  O   UNL d   1     -39.421  14.162  20.258  0.00  0.00    -0.200 OA
ATOM     22  O   UNL d   1     -40.345  15.513  19.824  0.00  0.00    -0.200 OA
BRANCH  20  23
ATOM     23  N   UNL d   1     -39.201  15.213  19.698  0.00  0.00    -0.229 N 
ATOM     24  C   UNL d   1     -38.641  15.758  19.973  0.00  0.00     0.092 A 
ATOM     25  C   UNL d   1     -38.109  15.921  19.376  0.00  0.00     0.021 A 
ATOM     26  C   UNL d   1     -38.310  15.486  18.700  0.00  0.00     0.021 A 
ATOM     27  C   UNL d   1     -38.990  15.050  18.912  0.00  0.00     0.092 A 
ENDBRANCH  20  23
ENDBRANCH   1  20
TORSDOF 5
ENDMDL
