MODEL 1
REMARK VINA RESULT:       1.7      0.000      0.000
REMARK  7 active torsions:
REMARK  status: ('A' for Active; 'I' for Inactive)
REMARK    1  A    between atoms: C_3  and  N_1 
REMARK    2  A    between atoms: N_7  and  C_3 
REMARK    3  A    between atoms: C_9  and  C_4 
REMARK    4  A    between atoms: C_10  and  C_5 
REMARK    5  A    between atoms: C_15  and  N_7 
REMARK    6  A    between atoms: O_22  and  C_16 
REMARK    7  A    between atoms: O_23  and  C_17 
ROOT
ATOM      1  N   UNL d   1      32.535  20.934 -22.369  0.00  0.00    -0.203 N 
ATOM      2  N   UNL d   1      32.516  20.302 -22.883  0.00  0.00    -0.163 NA
ATOM      3  C   UNL d   1      32.547  19.599 -22.408  0.00  0.00     0.103 A 
ATOM      4  C   UNL d   1      32.575  20.669 -21.607  0.00  0.00     0.087 A 
ATOM      5  C   UNL d   1      32.582  19.851 -21.623  0.00  0.00     0.040 A 
ENDROOT
BRANCH   1   6
ATOM      6  C   UNL d   1      32.515  21.757 -22.601  0.00  0.00     0.222 C 
ATOM      7  S   UNL d   1      31.823  22.189 -22.469  0.00  0.00    -0.037 SA
BRANCH   6   8
ATOM      8  N   UNL d   1      33.185  22.090 -22.946  0.00  0.00    -0.217 NA
BRANCH   8   9
ATOM      9  C   UNL d   1      33.097  22.495 -23.659  0.00  0.00     0.084 A 
ATOM     10  C   UNL d   1      33.237  22.103 -24.368  0.00  0.00     0.019 A 
ATOM     11  C   UNL d   1      33.145  22.523 -25.094  0.00  0.00     0.002 A 
ATOM     12  C   UNL d   1      32.924  23.291 -25.095  0.00  0.00     0.000 A 
ATOM     13  C   UNL d   1      32.782  23.693 -24.391  0.00  0.00     0.002 A 
ATOM     14  C   UNL d   1      32.867  23.297 -23.674  0.00  0.00     0.019 A 
ENDBRANCH   8   9
ENDBRANCH   6   8
ENDBRANCH   1   6
BRANCH   4  15
ATOM     15  C   UNL d   1      32.606  21.077 -20.880  0.00  0.00     0.018 A 
ATOM     16  C   UNL d   1      33.209  20.905 -20.346  0.00  0.00     0.004 A 
ATOM     17  C   UNL d   1      33.241  21.305 -19.631  0.00  0.00     0.024 A 
ATOM     18  C   UNL d   1      32.665  21.887 -19.440  0.00  0.00     0.094 A 
ATOM     19  C   UNL d   1      32.052  22.054 -19.996  0.00  0.00     0.024 A 
ATOM     20  C   UNL d   1      32.040  21.641 -20.706  0.00  0.00     0.004 A 
BRANCH  18  21
ATOM     21  O   UNL d   1      32.710  22.274 -18.729  0.00  0.00    -0.328 OA
ATOM     22  C   UNL d   1      32.701  23.090 -18.693  0.00  0.00     0.181 C 
ENDBRANCH  18  21
ENDBRANCH   4  15
BRANCH   3  23
ATOM     23  C   UNL d   1      32.540  18.828 -22.706  0.00  0.00     0.019 A 
ATOM     24  C   UNL d   1      33.217  18.362 -22.663  0.00  0.00     0.004 A 
ATOM     25  C   UNL d   1      33.218  17.591 -22.958  0.00  0.00     0.024 A 
ATOM     26  C   UNL d   1      32.531  17.287 -23.300  0.00  0.00     0.094 A 
ATOM     27  C   UNL d   1      31.838  17.767 -23.343  0.00  0.00     0.024 A 
ATOM     28  C   UNL d   1      31.843  18.535 -23.047  0.00  0.00     0.004 A 
BRANCH  26  29
ATOM     29  O   UNL d   1      32.541  16.496 -23.600  0.00  0.00    -0.328 OA
ATOM     30  C   UNL d   1      31.900  15.763 -23.510  0.00  0.00     0.181 C 
ENDBRANCH  26  29
ENDBRANCH   3  23
TORSDOF 7
ENDMDL
MODEL 2
REMARK VINA RESULT:       3.7      1.798      5.213
REMARK  7 active torsions:
REMARK  status: ('A' for Active; 'I' for Inactive)
REMARK    1  A    between atoms: C_3  and  N_1 
REMARK    2  A    between atoms: N_7  and  C_3 
REMARK    3  A    between atoms: C_9  and  C_4 
REMARK    4  A    between atoms: C_10  and  C_5 
REMARK    5  A    between atoms: C_15  and  N_7 
REMARK    6  A    between atoms: O_22  and  C_16 
REMARK    7  A    between atoms: O_23  and  C_17 
ROOT
ATOM      1  N   UNL d   1      32.856  21.673 -21.021  0.00  0.00    -0.203 N 
ATOM      2  N   UNL d   1      32.857  21.664 -20.206  0.00  0.00    -0.163 NA
ATOM      3  C   UNL d   1      32.785  22.471 -19.953  0.00  0.00     0.103 A 
ATOM      4  C   UNL d   1      32.789  22.432 -21.289  0.00  0.00     0.087 A 
ATOM      5  C   UNL d   1      32.745  22.928 -20.639  0.00  0.00     0.040 A 
ENDROOT
BRANCH   1   6
ATOM      6  C   UNL d   1      32.917  20.981 -21.521  0.00  0.00     0.222 C 
ATOM      7  S   UNL d   1      33.220  21.070 -22.284  0.00  0.00    -0.037 SA
BRANCH   6   8
ATOM      8  N   UNL d   1      32.672  20.253 -21.223  0.00  0.00    -0.217 NA
BRANCH   8   9
ATOM      9  C   UNL d   1      32.724  19.593 -21.715  0.00  0.00     0.084 A 
ATOM     10  C   UNL d   1      33.187  18.953 -21.486  0.00  0.00     0.019 A 
ATOM     11  C   UNL d   1      33.236  18.280 -21.993  0.00  0.00     0.002 A 
ATOM     12  C   UNL d   1      32.840  18.264 -22.687  0.00  0.00     0.000 A 
ATOM     13  C   UNL d   1      32.374  18.899 -22.925  0.00  0.00     0.002 A 
ATOM     14  C   UNL d   1      32.316  19.563 -22.441  0.00  0.00     0.019 A 
ENDBRANCH   8   9
ENDBRANCH   6   8
ENDBRANCH   1   6
BRANCH   4  15
ATOM     15  C   UNL d   1      32.761  22.746 -22.060  0.00  0.00     0.018 A 
ATOM     16  C   UNL d   1      33.240  23.389 -22.253  0.00  0.00     0.004 A 
ATOM     17  C   UNL d   1      33.214  23.698 -23.011  0.00  0.00     0.024 A 
ATOM     18  C   UNL d   1      32.704  23.367 -23.592  0.00  0.00     0.094 A 
ATOM     19  C   UNL d   1      32.219  22.709 -23.383  0.00  0.00     0.024 A 
ATOM     20  C   UNL d   1      32.261  22.415 -22.616  0.00  0.00     0.004 A 
BRANCH  18  21
ATOM     21  O   UNL d   1      32.690  23.685 -24.338  0.00  0.00    -0.328 OA
ATOM     22  C   UNL d   1      32.011  23.660 -24.793  0.00  0.00     0.181 C 
ENDBRANCH  18  21
ENDBRANCH   4  15
BRANCH   3  23
ATOM     23  C   UNL d   1      32.763  22.717 -19.164  0.00  0.00     0.019 A 
ATOM     24  C   UNL d   1      32.437  23.446 -18.966  0.00  0.00     0.004 A 
ATOM     25  C   UNL d   1      32.412  23.699 -18.181  0.00  0.00     0.024 A 
ATOM     26  C   UNL d   1      32.718  23.211 -17.589  0.00  0.00     0.094 A 
ATOM     27  C   UNL d   1      33.052  22.464 -17.793  0.00  0.00     0.024 A 
ATOM     28  C   UNL d   1      33.075  22.218 -18.579  0.00  0.00     0.004 A 
BRANCH  26  29
ATOM     29  O   UNL d   1      32.688  23.478 -16.785  0.00  0.00    -0.328 OA
ATOM     30  C   UNL d   1      33.241  23.256 -16.010  0.00  0.00     0.181 C 
ENDBRANCH  26  29
ENDBRANCH   3  23
TORSDOF 7
ENDMDL
MODEL 3
REMARK VINA RESULT:       3.9      1.005      4.476
REMARK  7 active torsions:
REMARK  status: ('A' for Active; 'I' for Inactive)
REMARK    1  A    between atoms: C_3  and  N_1 
REMARK    2  A    between atoms: N_7  and  C_3 
REMARK    3  A    between atoms: C_9  and  C_4 
REMARK    4  A    between atoms: C_10  and  C_5 
REMARK    5  A    between atoms: C_15  and  N_7 
REMARK    6  A    between atoms: O_22  and  C_16 
REMARK    7  A    between atoms: O_23  and  C_17 
ROOT
ATOM      1  N   UNL d   1      33.105  21.801 -21.857  0.00  0.00    -0.203 N 
ATOM      2  N   UNL d   1      33.091  22.364 -21.269  0.00  0.00    -0.163 NA
ATOM      3  C   UNL d   1      33.119  21.947 -20.530  0.00  0.00     0.103 A 
ATOM      4  C   UNL d   1      33.139  21.062 -21.532  0.00  0.00     0.087 A 
ATOM      5  C   UNL d   1      33.149  21.144 -20.718  0.00  0.00     0.040 A 
ENDROOT
BRANCH   1   6
ATOM      6  C   UNL d   1      33.085  21.966 -22.697  0.00  0.00     0.222 C 
ATOM      7  S   UNL d   1      32.910  21.350 -23.217  0.00  0.00    -0.037 SA
BRANCH   6   8
ATOM      8  N   UNL d   1      33.241  22.733 -22.955  0.00  0.00    -0.217 NA
BRANCH   8   9
ATOM      9  C   UNL d   1      32.895  22.986 -23.659  0.00  0.00     0.084 A 
ATOM     10  C   UNL d   1      32.214  23.446 -23.634  0.00  0.00     0.019 A 
ATOM     11  C   UNL d   1      31.864  23.702 -24.358  0.00  0.00     0.002 A 
ATOM     12  C   UNL d   1      32.188  23.501 -25.060  0.00  0.00     0.000 A 
ATOM     13  C   UNL d   1      32.869  23.041 -25.097  0.00  0.00     0.002 A 
ATOM     14  C   UNL d   1      33.223  22.783 -24.399  0.00  0.00     0.019 A 
ENDBRANCH   8   9
ENDBRANCH   6   8
ENDBRANCH   1   6
BRANCH   4  15
ATOM     15  C   UNL d   1      33.165  20.306 -21.880  0.00  0.00     0.018 A 
ATOM     16  C   UNL d   1      33.214  19.640 -21.397  0.00  0.00     0.004 A 
ATOM     17  C   UNL d   1      33.239  18.895 -21.738  0.00  0.00     0.024 A 
ATOM     18  C   UNL d   1      33.214  18.805 -22.574  0.00  0.00     0.094 A 
ATOM     19  C   UNL d   1      33.164  19.495 -23.058  0.00  0.00     0.024 A 
ATOM     20  C   UNL d   1      33.140  20.231 -22.694  0.00  0.00     0.004 A 
BRANCH  18  21
ATOM     21  O   UNL d   1      33.239  18.061 -22.896  0.00  0.00    -0.328 OA
ATOM     22  C   UNL d   1      32.583  17.738 -23.259  0.00  0.00     0.181 C 
ENDBRANCH  18  21
ENDBRANCH   4  15
BRANCH   3  23
ATOM     23  C   UNL d   1      33.117  22.306 -19.786  0.00  0.00     0.019 A 
ATOM     24  C   UNL d   1      33.068  23.124 -19.721  0.00  0.00     0.004 A 
ATOM     25  C   UNL d   1      33.064  23.491 -18.981  0.00  0.00     0.024 A 
ATOM     26  C   UNL d   1      33.111  23.026 -18.299  0.00  0.00     0.094 A 
ATOM     27  C   UNL d   1      33.161  22.187 -18.367  0.00  0.00     0.024 A 
ATOM     28  C   UNL d   1      33.163  21.828 -19.109  0.00  0.00     0.004 A 
BRANCH  26  29
ATOM     29  O   UNL d   1      33.107  23.409 -17.544  0.00  0.00    -0.328 OA
ATOM     30  C   UNL d   1      32.478  23.358 -16.798  0.00  0.00     0.181 C 
ENDBRANCH  26  29
ENDBRANCH   3  23
TORSDOF 7
ENDMDL
