MODEL 1
REMARK VINA RESULT:       1.2      0.000      0.000
REMARK  7 active torsions:
REMARK  status: ('A' for Active; 'I' for Inactive)
REMARK    1  A    between atoms: N_2  and  S_1 
REMARK    2  A    between atoms: C_6  and  S_1 
REMARK    3  A    between atoms: C_3  and  N_2 
REMARK       I    between atoms: C_7  and  N_10 
REMARK    4  A    between atoms: C_17  and  C_7 
REMARK    5  A    between atoms: N_10  and  C_18 
REMARK    6  A    between atoms: C_19  and  C_17 
REMARK    7  A    between atoms: O_27  and  C_20 
ROOT
ATOM      1  C   UNL d   1     -41.205-123.023 -50.662  0.00  0.00     0.106 A 
ATOM      2  C   UNL d   1     -41.263-122.332 -51.122  0.00  0.00     0.015 A 
ATOM      3  C   UNL d   1     -41.136-123.759 -51.009  0.00  0.00     0.015 A 
ATOM      4  C   UNL d   1     -41.179-123.146 -52.307  0.00  0.00     0.085 A 
ATOM      5  C   UNL d   1     -41.248-122.412 -51.938  0.00  0.00     0.020 A 
ATOM      6  C   UNL d   1     -41.123-123.817 -51.835  0.00  0.00     0.020 A 
ENDROOT
BRANCH   1   7
ATOM      7  S   UNL d   1     -41.219-122.961 -49.819  0.00  0.00     0.300 S 
ATOM      8  O   UNL d   1     -41.124-123.804 -49.775  0.00  0.00    -0.198 OA
ATOM      9  O   UNL d   1     -41.312-122.136 -49.887  0.00  0.00    -0.198 OA
BRANCH   7  10
ATOM     10  N   UNL d   1     -41.230-122.922 -48.990  0.00  0.00     0.034 NA
BRANCH  10  11
ATOM     11  C   UNL d   1     -41.984-123.049 -48.595  0.00  0.00     0.760 A 
ATOM     12  N   UNL d   1     -42.681-122.853 -48.998  0.00  0.00    -0.059 NA
ATOM     13  C   UNL d   1     -43.410-122.974 -48.620  0.00  0.00     0.101 A 
ATOM     14  C   UNL d   1     -44.148-122.778 -49.016  0.00  0.00     0.021 C 
ATOM     15  C   UNL d   1     -43.431-123.283 -47.863  0.00  0.00     0.040 A 
ATOM     16  C   UNL d   1     -42.731-123.465 -47.495  0.00  0.00     0.101 A 
ATOM     17  N   UNL d   1     -42.005-123.352 -47.853  0.00  0.00    -0.059 NA
ATOM     18  C   UNL d   1     -42.779-123.783 -46.713  0.00  0.00     0.021 C 
ENDBRANCH  10  11
ENDBRANCH   7  10
ENDBRANCH   1   7
BRANCH   4  19
ATOM     19  N   UNL d   1     -41.163-123.232 -53.130  0.00  0.00    -0.208 NA
ATOM     20  C   UNL d   1     -41.826-123.542 -53.534  0.00  0.00     0.279 C 
ATOM     21  O   UNL d   1     -42.517-123.771 -53.104  0.00  0.00    -0.265 OA
BRANCH  20  22
ATOM     22  C   UNL d   1     -41.800-123.623 -54.351  0.00  0.00     0.062 C 
BRANCH  22  23
ATOM     23  C   UNL d   1     -41.916-122.941 -54.861  0.00  0.00     0.005 A 
ATOM     24  C   UNL d   1     -41.269-122.606 -55.249  0.00  0.00     0.002 A 
ATOM     25  C   UNL d   1     -41.382-121.954 -55.735  0.00  0.00     0.024 A 
ATOM     26  C   UNL d   1     -42.129-121.626 -55.845  0.00  0.00     0.094 A 
ATOM     27  C   UNL d   1     -42.769-121.947 -55.470  0.00  0.00     0.024 A 
ATOM     28  C   UNL d   1     -42.671-122.599 -54.980  0.00  0.00     0.002 A 
BRANCH  26  29
ATOM     29  O   UNL d   1     -42.205-120.951 -56.357  0.00  0.00    -0.328 OA
ATOM     30  C   UNL d   1     -41.741-120.855 -57.034  0.00  0.00     0.181 C 
ENDBRANCH  26  29
ENDBRANCH  22  23
ENDBRANCH  20  22
ENDBRANCH   4  19
TORSDOF 7
ENDMDL
MODEL 2
REMARK VINA RESULT:       3.8      1.172      1.583
REMARK  7 active torsions:
REMARK  status: ('A' for Active; 'I' for Inactive)
REMARK    1  A    between atoms: N_2  and  S_1 
REMARK    2  A    between atoms: C_6  and  S_1 
REMARK    3  A    between atoms: C_3  and  N_2 
REMARK       I    between atoms: C_7  and  N_10 
REMARK    4  A    between atoms: C_17  and  C_7 
REMARK    5  A    between atoms: N_10  and  C_18 
REMARK    6  A    between atoms: C_19  and  C_17 
REMARK    7  A    between atoms: O_27  and  C_20 
ROOT
ATOM      1  C   UNL d   1     -41.564-122.764 -50.329  0.00  0.00     0.106 A 
ATOM      2  C   UNL d   1     -41.981-123.033 -50.997  0.00  0.00     0.015 A 
ATOM      3  C   UNL d   1     -41.153-122.059 -50.341  0.00  0.00     0.015 A 
ATOM      4  C   UNL d   1     -41.557-121.852 -51.703  0.00  0.00     0.085 A 
ATOM      5  C   UNL d   1     -41.967-122.567 -51.672  0.00  0.00     0.020 A 
ATOM      6  C   UNL d   1     -41.151-121.603 -51.033  0.00  0.00     0.020 A 
ENDROOT
BRANCH   1   7
ATOM      7  S   UNL d   1     -41.568-123.232 -49.624  0.00  0.00     0.300 S 
ATOM      8  O   UNL d   1     -42.023-123.817 -50.040  0.00  0.00    -0.198 OA
ATOM      9  O   UNL d   1     -41.123-122.644 -49.239  0.00  0.00    -0.198 OA
BRANCH   7  10
ATOM     10  N   UNL d   1     -41.584-123.706 -48.945  0.00  0.00     0.034 NA
BRANCH  10  11
ATOM     11  C   UNL d   1     -42.036-123.421 -48.270  0.00  0.00     0.760 A 
ATOM     12  N   UNL d   1     -41.722-122.804 -47.815  0.00  0.00    -0.059 NA
ATOM     13  C   UNL d   1     -42.155-122.526 -47.163  0.00  0.00     0.101 A 
ATOM     14  C   UNL d   1     -41.851-121.886 -46.676  0.00  0.00     0.021 C 
ATOM     15  C   UNL d   1     -42.877-122.862 -46.980  0.00  0.00     0.040 A 
ATOM     16  C   UNL d   1     -43.158-123.465 -47.444  0.00  0.00     0.101 A 
ATOM     17  N   UNL d   1     -42.745-123.750 -48.089  0.00  0.00    -0.059 NA
ATOM     18  C   UNL d   1     -43.907-123.796 -47.234  0.00  0.00     0.021 C 
ENDBRANCH  10  11
ENDBRANCH   7  10
ENDBRANCH   1   7
BRANCH   4  19
ATOM     19  N   UNL d   1     -41.539-121.378 -52.382  0.00  0.00    -0.208 NA
ATOM     20  C   UNL d   1     -41.597-121.725 -53.140  0.00  0.00     0.279 C 
ATOM     21  O   UNL d   1     -41.674-122.564 -53.219  0.00  0.00    -0.265 OA
BRANCH  20  22
ATOM     22  C   UNL d   1     -41.578-121.246 -53.807  0.00  0.00     0.062 C 
BRANCH  22  23
ATOM     23  C   UNL d   1     -41.939-121.508 -54.543  0.00  0.00     0.005 A 
ATOM     24  C   UNL d   1     -42.747-121.674 -54.564  0.00  0.00     0.002 A 
ATOM     25  C   UNL d   1     -43.090-121.924 -55.267  0.00  0.00     0.024 A 
ATOM     26  C   UNL d   1     -42.644-122.012 -55.954  0.00  0.00     0.094 A 
ATOM     27  C   UNL d   1     -41.852-121.852 -55.942  0.00  0.00     0.024 A 
ATOM     28  C   UNL d   1     -41.495-121.601 -55.246  0.00  0.00     0.002 A 
BRANCH  26  29
ATOM     29  O   UNL d   1     -43.036-122.273 -56.662  0.00  0.00    -0.328 OA
ATOM     30  C   UNL d   1     -43.859-122.322 -56.719  0.00  0.00     0.181 C 
ENDBRANCH  26  29
ENDBRANCH  22  23
ENDBRANCH  20  22
ENDBRANCH   4  19
TORSDOF 7
ENDMDL
