MODEL 1
REMARK VINA RESULT:      -7.3      0.000      0.000
REMARK  5 active torsions:
REMARK  status: ('A' for Active; 'I' for Inactive)
REMARK    1  A    between atoms: N_7  and  C_1 
REMARK    2  A    between atoms: C_14  and  N_4 
REMARK    3  A    between atoms: C_6  and  N_7 
REMARK    4  A    between atoms: C_13  and  N_8 
REMARK    5  A    between atoms: C_17  and  C_13 
ROOT
ATOM      1  C   UNL d   1     -46.787  12.699  22.896  0.00  0.00     0.159 A 
ATOM      2  C   UNL d   1     -46.116  12.961  22.499  0.00  0.00     0.298 A 
ATOM      3  N   UNL d   1     -45.828  11.801  23.066  0.00  0.00    -0.238 N 
ATOM      4  N   UNL d   1     -45.522  12.403  22.605  0.00  0.00    -0.209 N 
ATOM      5  C   UNL d   1     -46.607  11.979  23.247  0.00  0.00     0.104 A 
ATOM      6  O   UNL d   1     -46.050  13.661  22.070  0.00  0.00    -0.263 OA
ATOM      7  C   UNL d   1     -45.423  11.125  23.310  0.00  0.00     0.120 C 
ATOM      8  C   UNL d   1     -47.118  11.522  23.698  0.00  0.00     0.022 C 
ENDROOT
BRANCH   1   9
ATOM      9  N   UNL d   1     -47.507  13.091  22.932  0.00  0.00    -0.216 NA
BRANCH   9  10
ATOM     10  C   UNL d   1     -48.082  12.951  22.357  0.00  0.00     0.180 A 
ATOM     11  N   UNL d   1     -48.887  13.102  22.427  0.00  0.00    -0.285 N 
ATOM     12  C   UNL d   1     -49.246  12.878  21.723  0.00  0.00     0.072 A 
ATOM     13  C   UNL d   1     -50.054  12.935  21.556  0.00  0.00     0.020 C 
ATOM     14  C   UNL d   1     -48.671  12.590  21.219  0.00  0.00     0.056 A 
ATOM     15  S   UNL d   1     -47.945  12.632  21.607  0.00  0.00    -0.048 SA
BRANCH  11  16
ATOM     16  C   UNL d   1     -49.266  13.419  23.080  0.00  0.00     0.082 C 
BRANCH  16  17
ATOM     17  C   UNL d   1     -49.481  14.223  23.096  0.00  0.00     0.018 A 
ATOM     18  C   UNL d   1     -49.122  14.845  22.680  0.00  0.00     0.002 A 
ATOM     19  C   UNL d   1     -49.409  15.631  22.759  0.00  0.00     0.000 A 
ATOM     20  C   UNL d   1     -50.060  15.783  23.260  0.00  0.00     0.000 A 
ATOM     21  C   UNL d   1     -50.423  15.155  23.682  0.00  0.00     0.000 A 
ATOM     22  C   UNL d   1     -50.135  14.375  23.601  0.00  0.00     0.002 A 
ENDBRANCH  16  17
ENDBRANCH  11  16
ENDBRANCH   9  10
ENDBRANCH   1   9
BRANCH   4  23
ATOM     23  C   UNL d   1     -44.757  12.445  22.302  0.00  0.00     0.085 A 
ATOM     24  C   UNL d   1     -44.563  13.029  21.764  0.00  0.00     0.019 A 
ATOM     25  C   UNL d   1     -43.801  13.069  21.463  0.00  0.00     0.002 A 
ATOM     26  C   UNL d   1     -43.226  12.528  21.696  0.00  0.00     0.000 A 
ATOM     27  C   UNL d   1     -43.424  11.938  22.240  0.00  0.00     0.002 A 
ATOM     28  C   UNL d   1     -44.189  11.896  22.544  0.00  0.00     0.019 A 
ENDBRANCH   4  23
TORSDOF 5
ENDMDL
MODEL 2
REMARK VINA RESULT:      -6.7      8.658     10.021
REMARK  5 active torsions:
REMARK  status: ('A' for Active; 'I' for Inactive)
REMARK    1  A    between atoms: N_7  and  C_1 
REMARK    2  A    between atoms: C_14  and  N_4 
REMARK    3  A    between atoms: C_6  and  N_7 
REMARK    4  A    between atoms: C_13  and  N_8 
REMARK    5  A    between atoms: C_17  and  C_13 
ROOT
ATOM      1  C   UNL d   1     -38.384  14.514  19.538  0.00  0.00     0.159 A 
ATOM      2  C   UNL d   1     -38.517  15.047  20.150  0.00  0.00     0.298 A 
ATOM      3  N   UNL d   1     -38.185  13.885  20.687  0.00  0.00    -0.238 N 
ATOM      4  N   UNL d   1     -38.393  14.656  20.862  0.00  0.00    -0.209 N 
ATOM      5  C   UNL d   1     -38.178  13.793  19.872  0.00  0.00     0.104 A 
ATOM      6  O   UNL d   1     -38.736  15.836  20.064  0.00  0.00    -0.263 OA
ATOM      7  C   UNL d   1     -38.010  13.295  21.237  0.00  0.00     0.120 C 
ATOM      8  C   UNL d   1     -37.998  13.105  19.463  0.00  0.00     0.022 C 
ENDROOT
BRANCH   1   9
ATOM      9  N   UNL d   1     -38.447  14.677  18.736  0.00  0.00    -0.216 NA
BRANCH   9  10
ATOM     10  C   UNL d   1     -39.189  14.693  18.376  0.00  0.00     0.180 A 
ATOM     11  N   UNL d   1     -39.384  15.086  17.681  0.00  0.00    -0.285 N 
ATOM     12  C   UNL d   1     -40.180  14.949  17.530  0.00  0.00     0.072 A 
ATOM     13  C   UNL d   1     -40.605  15.243  16.884  0.00  0.00     0.020 C 
ATOM     14  C   UNL d   1     -40.478  14.476  18.125  0.00  0.00     0.056 A 
ATOM     15  S   UNL d   1     -39.868  14.312  18.654  0.00  0.00    -0.048 SA
BRANCH  11  16
ATOM     16  C   UNL d   1     -38.878  15.534  17.219  0.00  0.00     0.082 C 
BRANCH  16  17
ATOM     17  C   UNL d   1     -38.560  15.224  16.514  0.00  0.00     0.018 A 
ATOM     18  C   UNL d   1     -38.239  14.467  16.402  0.00  0.00     0.002 A 
ATOM     19  C   UNL d   1     -37.940  14.240  15.650  0.00  0.00     0.000 A 
ATOM     20  C   UNL d   1     -37.967  14.782  15.015  0.00  0.00     0.000 A 
ATOM     21  C   UNL d   1     -38.291  15.547  15.128  0.00  0.00     0.000 A 
ATOM     22  C   UNL d   1     -38.588  15.770  15.877  0.00  0.00     0.002 A 
ENDBRANCH  16  17
ENDBRANCH  11  16
ENDBRANCH   9  10
ENDBRANCH   1   9
BRANCH   4  23
ATOM     23  C   UNL d   1     -38.466  14.983  21.614  0.00  0.00     0.085 A 
ATOM     24  C   UNL d   1     -39.038  14.701  22.128  0.00  0.00     0.019 A 
ATOM     25  C   UNL d   1     -39.109  15.028  22.877  0.00  0.00     0.002 A 
ATOM     26  C   UNL d   1     -38.612  15.637  23.121  0.00  0.00     0.000 A 
ATOM     27  C   UNL d   1     -38.035  15.921  22.601  0.00  0.00     0.002 A 
ATOM     28  C   UNL d   1     -37.962  15.594  21.847  0.00  0.00     0.019 A 
ENDBRANCH   4  23
TORSDOF 5
ENDMDL
MODEL 3
REMARK VINA RESULT:      -6.5      1.029      4.975
REMARK  5 active torsions:
REMARK  status: ('A' for Active; 'I' for Inactive)
REMARK    1  A    between atoms: N_7  and  C_1 
REMARK    2  A    between atoms: C_14  and  N_4 
REMARK    3  A    between atoms: C_6  and  N_7 
REMARK    4  A    between atoms: C_13  and  N_8 
REMARK    5  A    between atoms: C_17  and  C_13 
ROOT
ATOM      1  C   UNL d   1     -48.358  12.748  22.624  0.00  0.00     0.159 A 
ATOM      2  C   UNL d   1     -48.683  13.412  22.984  0.00  0.00     0.298 A 
ATOM      3  N   UNL d   1     -49.572  12.937  22.129  0.00  0.00    -0.238 N 
ATOM      4  N   UNL d   1     -49.435  13.528  22.677  0.00  0.00    -0.209 N 
ATOM      5  C   UNL d   1     -48.910  12.454  22.093  0.00  0.00     0.104 A 
ATOM      6  O   UNL d   1     -48.317  13.879  23.556  0.00  0.00    -0.263 OA
ATOM      7  C   UNL d   1     -50.260  12.840  21.683  0.00  0.00     0.120 C 
ATOM      8  C   UNL d   1     -48.815  11.795  21.613  0.00  0.00     0.022 C 
ENDROOT
BRANCH   1   9
ATOM      9  N   UNL d   1     -47.613  12.438  22.771  0.00  0.00    -0.216 NA
BRANCH   9  10
ATOM     10  C   UNL d   1     -46.950  12.764  22.405  0.00  0.00     0.180 A 
ATOM     11  N   UNL d   1     -46.179  12.751  22.691  0.00  0.00    -0.285 N 
ATOM     12  C   UNL d   1     -45.703  13.141  22.147  0.00  0.00     0.072 A 
ATOM     13  C   UNL d   1     -44.887  13.256  22.217  0.00  0.00     0.020 C 
ATOM     14  C   UNL d   1     -46.171  13.394  21.528  0.00  0.00     0.056 A 
ATOM     15  S   UNL d   1     -46.947  13.163  21.681  0.00  0.00    -0.048 SA
BRANCH  11  16
ATOM     16  C   UNL d   1     -45.929  12.412  23.393  0.00  0.00     0.082 C 
BRANCH  16  17
ATOM     17  C   UNL d   1     -45.547  11.672  23.394  0.00  0.00     0.018 A 
ATOM     18  C   UNL d   1     -44.766  11.512  23.165  0.00  0.00     0.002 A 
ATOM     19  C   UNL d   1     -44.465  10.729  23.200  0.00  0.00     0.000 A 
ATOM     20  C   UNL d   1     -44.958  10.109  23.466  0.00  0.00     0.000 A 
ATOM     21  C   UNL d   1     -45.748  10.270  23.697  0.00  0.00     0.000 A 
ATOM     22  C   UNL d   1     -46.045  11.050  23.662  0.00  0.00     0.002 A 
ENDBRANCH  16  17
ENDBRANCH  11  16
ENDBRANCH   9  10
ENDBRANCH   1   9
BRANCH   4  23
ATOM     23  C   UNL d   1     -49.957  14.131  22.884  0.00  0.00     0.085 A 
ATOM     24  C   UNL d   1     -49.931  14.846  22.487  0.00  0.00     0.019 A 
ATOM     25  C   UNL d   1     -50.452  15.446  22.695  0.00  0.00     0.002 A 
ATOM     26  C   UNL d   1     -51.001  15.338  23.299  0.00  0.00     0.000 A 
ATOM     27  C   UNL d   1     -51.025  14.615  23.698  0.00  0.00     0.002 A 
ATOM     28  C   UNL d   1     -50.503  14.011  23.491  0.00  0.00     0.019 A 
ENDBRANCH   4  23
TORSDOF 5
ENDMDL
MODEL 4
REMARK VINA RESULT:      -5.5      1.329      4.898
REMARK  5 active torsions:
REMARK  status: ('A' for Active; 'I' for Inactive)
REMARK    1  A    between atoms: N_7  and  C_1 
REMARK    2  A    between atoms: C_14  and  N_4 
REMARK    3  A    between atoms: C_6  and  N_7 
REMARK    4  A    between atoms: C_13  and  N_8 
REMARK    5  A    between atoms: C_17  and  C_13 
ROOT
ATOM      1  C   UNL d   1     -47.648  12.252  22.634  0.00  0.00     0.159 A 
ATOM      2  C   UNL d   1     -48.187  12.663  22.168  0.00  0.00     0.298 A 
ATOM      3  N   UNL d   1     -48.869  11.870  22.977  0.00  0.00    -0.238 N 
ATOM      4  N   UNL d   1     -48.944  12.425  22.382  0.00  0.00    -0.209 N 
ATOM      5  C   UNL d   1     -48.072  11.760  23.136  0.00  0.00     0.104 A 
ATOM      6  O   UNL d   1     -48.000  13.217  21.588  0.00  0.00    -0.263 OA
ATOM      7  C   UNL d   1     -49.490  11.482  23.358  0.00  0.00     0.120 C 
ATOM      8  C   UNL d   1     -47.754  11.251  23.695  0.00  0.00     0.022 C 
ENDROOT
BRANCH   1   9
ATOM      9  N   UNL d   1     -46.831  12.323  22.600  0.00  0.00    -0.216 NA
BRANCH   9  10
ATOM     10  C   UNL d   1     -46.473  13.048  22.762  0.00  0.00     0.180 A 
ATOM     11  N   UNL d   1     -45.820  13.366  22.378  0.00  0.00    -0.285 N 
ATOM     12  C   UNL d   1     -45.656  14.095  22.720  0.00  0.00     0.072 A 
ATOM     13  C   UNL d   1     -45.042  14.603  22.500  0.00  0.00     0.020 C 
ATOM     14  C   UNL d   1     -46.202  14.230  23.313  0.00  0.00     0.056 A 
ATOM     15  S   UNL d   1     -46.713  13.584  23.345  0.00  0.00    -0.048 SA
BRANCH  11  16
ATOM     16  C   UNL d   1     -45.405  13.021  21.762  0.00  0.00     0.082 C 
BRANCH  16  17
ATOM     17  C   UNL d   1     -44.671  12.653  21.900  0.00  0.00     0.018 A 
ATOM     18  C   UNL d   1     -44.491  12.104  22.496  0.00  0.00     0.002 A 
ATOM     19  C   UNL d   1     -43.717  11.784  22.559  0.00  0.00     0.000 A 
ATOM     20  C   UNL d   1     -43.127  12.020  22.016  0.00  0.00     0.000 A 
ATOM     21  C   UNL d   1     -43.308  12.575  21.413  0.00  0.00     0.000 A 
ATOM     22  C   UNL d   1     -44.080  12.892  21.354  0.00  0.00     0.002 A 
ENDBRANCH  16  17
ENDBRANCH  11  16
ENDBRANCH   9  10
ENDBRANCH   1   9
BRANCH   4  23
ATOM     23  C   UNL d   1     -49.649  12.698  22.055  0.00  0.00     0.085 A 
ATOM     24  C   UNL d   1     -49.871  12.456  21.306  0.00  0.00     0.019 A 
ATOM     25  C   UNL d   1     -50.574  12.729  20.981  0.00  0.00     0.002 A 
ATOM     26  C   UNL d   1     -51.060  13.244  21.401  0.00  0.00     0.000 A 
ATOM     27  C   UNL d   1     -50.834  13.487  22.158  0.00  0.00     0.002 A 
ATOM     28  C   UNL d   1     -50.128  13.214  22.485  0.00  0.00     0.019 A 
ENDBRANCH   4  23
TORSDOF 5
ENDMDL
MODEL 5
REMARK VINA RESULT:      -4.9      6.460      8.909
REMARK  5 active torsions:
REMARK  status: ('A' for Active; 'I' for Inactive)
REMARK    1  A    between atoms: N_7  and  C_1 
REMARK    2  A    between atoms: C_14  and  N_4 
REMARK    3  A    between atoms: C_6  and  N_7 
REMARK    4  A    between atoms: C_13  and  N_8 
REMARK    5  A    between atoms: C_17  and  C_13 
ROOT
ATOM      1  C   UNL d   1     -40.360  15.030  17.999  0.00  0.00     0.159 A 
ATOM      2  C   UNL d   1     -39.692  14.724  17.630  0.00  0.00     0.298 A 
ATOM      3  N   UNL d   1     -40.322  15.491  16.758  0.00  0.00    -0.238 N 
ATOM      4  N   UNL d   1     -39.670  15.011  16.861  0.00  0.00    -0.209 N 
ATOM      5  C   UNL d   1     -40.751  15.506  17.457  0.00  0.00     0.104 A 
ATOM      6  O   UNL d   1     -39.140  14.217  17.974  0.00  0.00    -0.263 OA
ATOM      7  C   UNL d   1     -40.521  15.897  16.067  0.00  0.00     0.120 C 
ATOM      8  C   UNL d   1     -41.445  15.922  17.593  0.00  0.00     0.022 C 
ENDROOT
BRANCH   1   9
ATOM      9  N   UNL d   1     -40.592  14.883  18.773  0.00  0.00    -0.216 NA
BRANCH   9  10
ATOM     10  C   UNL d   1     -40.181  15.229  19.399  0.00  0.00     0.180 A 
ATOM     11  N   UNL d   1     -40.465  15.344  20.162  0.00  0.00    -0.285 N 
ATOM     12  C   UNL d   1     -39.869  15.705  20.599  0.00  0.00     0.072 A 
ATOM     13  C   UNL d   1     -39.921  15.921  21.395  0.00  0.00     0.020 C 
ATOM     14  C   UNL d   1     -39.222  15.813  20.113  0.00  0.00     0.056 A 
ATOM     15  S   UNL d   1     -39.408  15.520  19.366  0.00  0.00    -0.048 SA
BRANCH  11  16
ATOM     16  C   UNL d   1     -41.206  15.138  20.440  0.00  0.00     0.082 C 
BRANCH  16  17
ATOM     17  C   UNL d   1     -41.315  14.442  20.883  0.00  0.00     0.018 A 
ATOM     18  C   UNL d   1     -40.801  14.127  21.454  0.00  0.00     0.002 A 
ATOM     19  C   UNL d   1     -40.994  13.414  21.853  0.00  0.00     0.000 A 
ATOM     20  C   UNL d   1     -41.709  13.021  21.673  0.00  0.00     0.000 A 
ATOM     21  C   UNL d   1     -42.230  13.338  21.096  0.00  0.00     0.000 A 
ATOM     22  C   UNL d   1     -42.034  14.048  20.700  0.00  0.00     0.002 A 
ENDBRANCH  16  17
ENDBRANCH  11  16
ENDBRANCH   9  10
ENDBRANCH   1   9
BRANCH   4  23
ATOM     23  C   UNL d   1     -39.094  14.843  16.297  0.00  0.00     0.085 A 
ATOM     24  C   UNL d   1     -38.711  15.455  15.911  0.00  0.00     0.019 A 
ATOM     25  C   UNL d   1     -38.137  15.286  15.349  0.00  0.00     0.002 A 
ATOM     26  C   UNL d   1     -37.940  14.507  15.167  0.00  0.00     0.000 A 
ATOM     27  C   UNL d   1     -38.328  13.891  15.558  0.00  0.00     0.002 A 
ATOM     28  C   UNL d   1     -38.905  14.058  16.123  0.00  0.00     0.019 A 
ENDBRANCH   4  23
TORSDOF 5
ENDMDL
MODEL 6
REMARK VINA RESULT:      -4.4      1.392      1.854
REMARK  5 active torsions:
REMARK  status: ('A' for Active; 'I' for Inactive)
REMARK    1  A    between atoms: N_7  and  C_1 
REMARK    2  A    between atoms: C_14  and  N_4 
REMARK    3  A    between atoms: C_6  and  N_7 
REMARK    4  A    between atoms: C_13  and  N_8 
REMARK    5  A    between atoms: C_17  and  C_13 
ROOT
ATOM      1  C   UNL d   1     -46.632  13.279  22.098  0.00  0.00     0.159 A 
ATOM      2  C   UNL d   1     -45.992  12.831  21.841  0.00  0.00     0.298 A 
ATOM      3  N   UNL d   1     -45.518  13.906  22.448  0.00  0.00    -0.238 N 
ATOM      4  N   UNL d   1     -45.302  13.220  22.058  0.00  0.00    -0.209 N 
ATOM      5  C   UNL d   1     -46.337  13.946  22.474  0.00  0.00     0.104 A 
ATOM      6  O   UNL d   1     -46.036  12.115  21.436  0.00  0.00    -0.263 OA
ATOM      7  C   UNL d   1     -45.001  14.467  22.763  0.00  0.00     0.120 C 
ATOM      8  C   UNL d   1     -46.783  14.544  22.815  0.00  0.00     0.022 C 
ENDROOT
BRANCH   1   9
ATOM      9  N   UNL d   1     -47.424  13.090  21.995  0.00  0.00    -0.216 NA
BRANCH   9  10
ATOM     10  C   UNL d   1     -47.817  12.637  22.560  0.00  0.00     0.180 A 
ATOM     11  N   UNL d   1     -48.544  12.264  22.467  0.00  0.00    -0.285 N 
ATOM     12  C   UNL d   1     -48.720  11.877  23.170  0.00  0.00     0.072 A 
ATOM     13  C   UNL d   1     -49.401  11.433  23.316  0.00  0.00     0.020 C 
ATOM     14  C   UNL d   1     -48.109  12.007  23.696  0.00  0.00     0.056 A 
ATOM     15  S   UNL d   1     -47.544  12.478  23.325  0.00  0.00    -0.048 SA
BRANCH  11  16
ATOM     16  C   UNL d   1     -49.011  12.276  21.795  0.00  0.00     0.082 C 
BRANCH  16  17
ATOM     17  C   UNL d   1     -49.637  12.820  21.722  0.00  0.00     0.018 A 
ATOM     18  C   UNL d   1     -49.592  13.598  21.439  0.00  0.00     0.002 A 
ATOM     19  C   UNL d   1     -50.281  14.077  21.401  0.00  0.00     0.000 A 
ATOM     20  C   UNL d   1     -51.014  13.765  21.652  0.00  0.00     0.000 A 
ATOM     21  C   UNL d   1     -51.061  12.978  21.938  0.00  0.00     0.000 A 
ATOM     22  C   UNL d   1     -50.373  12.504  21.974  0.00  0.00     0.002 A 
ENDBRANCH  16  17
ENDBRANCH  11  16
ENDBRANCH   9  10
ENDBRANCH   1   9
BRANCH   4  23
ATOM     23  C   UNL d   1     -44.534  12.965  21.910  0.00  0.00     0.085 A 
ATOM     24  C   UNL d   1     -44.052  13.393  21.406  0.00  0.00     0.019 A 
ATOM     25  C   UNL d   1     -43.286  13.138  21.259  0.00  0.00     0.002 A 
ATOM     26  C   UNL d   1     -42.994  12.454  21.614  0.00  0.00     0.000 A 
ATOM     27  C   UNL d   1     -43.482  12.024  22.124  0.00  0.00     0.002 A 
ATOM     28  C   UNL d   1     -44.252  12.279  22.272  0.00  0.00     0.019 A 
ENDBRANCH   4  23
TORSDOF 5
ENDMDL
