MODEL 1
REMARK VINA RESULT:      20.9      0.000      0.000
REMARK  6 active torsions:
REMARK  status: ('A' for Active; 'I' for Inactive)
REMARK    1  A    between atoms: C_6  and  C_1 
REMARK    2  A    between atoms: C_9  and  N_3 
REMARK       I    between atoms: N_7  and  C_6 
REMARK    3  A    between atoms: C_8  and  N_7 
REMARK    4  A    between atoms: C_10  and  C_9 
REMARK    5  A    between atoms: O_25  and  C_15 
REMARK    6  A    between atoms: O_26  and  C_20 
ROOT
ATOM      1  C   UNL d   1      45.437 -16.653  44.117  0.00  0.00     0.199 A 
ATOM      2  C   UNL d   1      45.761 -15.926  44.318  0.00  0.00     0.211 A 
ATOM      3  N   UNL d   1      45.165 -15.469  44.654  0.00  0.00    -0.190 N 
ATOM      4  N   UNL d   1      44.639 -16.651  44.328  0.00  0.00    -0.122 NA
ATOM      5  N   UNL d   1      44.466 -15.910  44.665  0.00  0.00    -0.058 NA
ATOM      6  N   UNL d   1      46.541 -15.695  44.203  0.00  0.00    -0.125 N 
ENDROOT
BRANCH   1   7
ATOM      7  C   UNL d   1      45.835 -17.281  43.765  0.00  0.00     0.302 C 
ATOM      8  N   UNL d   1      45.429 -17.974  43.577  0.00  0.00    -0.204 NA
ATOM      9  O   UNL d   1      46.645 -17.217  43.600  0.00  0.00    -0.263 OA
BRANCH   8  10
ATOM     10  C   UNL d   1      45.834 -18.604  43.223  0.00  0.00     0.109 A 
ATOM     11  C   UNL d   1      45.915 -18.637  42.403  0.00  0.00     0.045 A 
ATOM     12  C   UNL d   1      46.315 -19.260  42.054  0.00  0.00     0.096 A 
ATOM     13  C   UNL d   1      46.641 -19.859  42.517  0.00  0.00     0.026 A 
ATOM     14  C   UNL d   1      46.561 -19.828  43.344  0.00  0.00     0.028 A 
ATOM     15  C   UNL d   1      46.155 -19.197  43.692  0.00  0.00     0.112 A 
BRANCH  12  16
ATOM     16  O   UNL d   1      46.396 -19.293  41.232  0.00  0.00    -0.328 OA
ATOM     17  C   UNL d   1      46.575 -19.999  40.863  0.00  0.00     0.181 C 
ENDBRANCH  12  16
BRANCH  15  18
ATOM     18  O   UNL d   1      46.072 -19.160  44.505  0.00  0.00    -0.327 OA
ATOM     19  C   UNL d   1      45.990 -19.850  44.950  0.00  0.00     0.181 C 
ENDBRANCH  15  18
ENDBRANCH   8  10
ENDBRANCH   1   7
BRANCH   3  20
ATOM     20  C   UNL d   1      45.245 -14.702  44.935  0.00  0.00     0.106 C 
BRANCH  20  21
ATOM     21  C   UNL d   1      45.150 -14.055  44.428  0.00  0.00     0.047 A 
ATOM     22  C   UNL d   1      44.422 -13.688  44.361  0.00  0.00     0.142 A 
ATOM     23  C   UNL d   1      44.332 -13.042  43.853  0.00  0.00     0.036 A 
ATOM     24  F   UNL d   1      43.778 -13.957  44.794  0.00  0.00    -0.204 F 
ATOM     25  C   UNL d   1      44.973 -12.763  43.413  0.00  0.00     0.037 A 
ATOM     26  C   UNL d   1      45.713 -13.142  43.487  0.00  0.00     0.007 A 
ATOM     27 BR   UNL d   1      44.891 -12.119  42.905  0.00  0.00    -0.049 Br
ATOM     28  C   UNL d   1      45.795 -13.786  43.995  0.00  0.00     0.004 A 
ENDBRANCH  20  21
ENDBRANCH   3  20
TORSDOF 6
ENDMDL
