MODEL 1
REMARK VINA RESULT:      -0.7      0.000      0.000
REMARK  3 active torsions:
REMARK  status: ('A' for Active; 'I' for Inactive)
REMARK    1  A    between atoms: C_7  and  C_1 
REMARK    2  A    between atoms: C_9  and  C_6 
REMARK    3  A    between atoms: O_13  and  C_7 
ROOT
ATOM      1  C   UNL d   1     -42.735-123.141 -49.353  0.00  0.00     0.097 A 
ATOM      2  C   UNL d   1     -43.002-123.212 -48.579  0.00  0.00     0.073 A 
ATOM      3  C   UNL d   1     -41.659-123.383 -48.130  0.00  0.00     0.206 A 
ATOM      4  N   UNL d   1     -42.470-123.332 -47.964  0.00  0.00    -0.280 N 
ATOM      5  N   UNL d   1     -41.391-123.312 -48.904  0.00  0.00    -0.218 NA
ATOM      6  C   UNL d   1     -41.929-123.189 -49.529  0.00  0.00     0.090 A 
ATOM      7  S   UNL d   1     -41.123-123.504 -47.514  0.00  0.00    -0.038 SA
ATOM      8  C   UNL d   1     -43.825-123.160 -48.417  0.00  0.00     0.019 C 
ATOM      9  C   UNL d   1     -42.739-123.404 -47.186  0.00  0.00     0.101 C 
ENDROOT
BRANCH   6  10
ATOM     10  C   UNL d   1     -41.658-123.118 -50.311  0.00  0.00     0.018 A 
ATOM     11  C   UNL d   1     -41.583-123.794 -50.779  0.00  0.00     0.002 A 
ATOM     12  C   UNL d   1     -41.315-123.723 -51.553  0.00  0.00     0.000 A 
ATOM     13  C   UNL d   1     -41.123-122.976 -51.860  0.00  0.00     0.000 A 
ATOM     14  C   UNL d   1     -41.202-122.310 -51.385  0.00  0.00     0.000 A 
ATOM     15  C   UNL d   1     -41.469-122.381 -50.611  0.00  0.00     0.002 A 
ENDBRANCH   6  10
BRANCH   1  16
ATOM     16  C   UNL d   1     -43.284-123.017 -49.982  0.00  0.00     0.299 C 
ATOM     17  O   UNL d   1     -43.574-123.664 -50.416  0.00  0.00    -0.259 OA
BRANCH  16  18
ATOM     18  O   UNL d   1     -43.528-122.244 -50.158  0.00  0.00    -0.296 OA
ATOM     19  C   UNL d   1     -44.285-122.097 -50.443  0.00  0.00     0.185 C 
ENDBRANCH  16  18
ENDBRANCH   1  16
TORSDOF 3
ENDMDL
MODEL 2
REMARK VINA RESULT:       0.1      2.597      4.064
REMARK  3 active torsions:
REMARK  status: ('A' for Active; 'I' for Inactive)
REMARK    1  A    between atoms: C_7  and  C_1 
REMARK    2  A    between atoms: C_9  and  C_6 
REMARK    3  A    between atoms: O_13  and  C_7 
ROOT
ATOM      1  C   UNL d   1     -41.698-122.129 -52.418  0.00  0.00     0.097 A 
ATOM      2  C   UNL d   1     -41.604-121.891 -53.199  0.00  0.00     0.073 A 
ATOM      3  C   UNL d   1     -41.461-123.253 -53.598  0.00  0.00     0.206 A 
ATOM      4  N   UNL d   1     -41.485-122.447 -53.792  0.00  0.00    -0.280 N 
ATOM      5  N   UNL d   1     -41.555-123.492 -52.817  0.00  0.00    -0.218 NA
ATOM      6  C   UNL d   1     -41.676-122.929 -52.214  0.00  0.00     0.090 A 
ATOM      7  S   UNL d   1     -41.342-123.813 -54.193  0.00  0.00    -0.038 SA
ATOM      8  C   UNL d   1     -41.629-121.073 -53.390  0.00  0.00     0.019 C 
ATOM      9  C   UNL d   1     -41.390-122.207 -54.577  0.00  0.00     0.101 C 
ENDROOT
BRANCH   6  10
ATOM     10  C   UNL d   1     -41.771-123.171 -51.424  0.00  0.00     0.018 A 
ATOM     11  C   UNL d   1     -41.126-123.144 -50.910  0.00  0.00     0.002 A 
ATOM     12  C   UNL d   1     -41.220-123.383 -50.129  0.00  0.00     0.000 A 
ATOM     13  C   UNL d   1     -41.959-123.649 -49.861  0.00  0.00     0.000 A 
ATOM     14  C   UNL d   1     -42.594-123.671 -50.383  0.00  0.00     0.000 A 
ATOM     15  C   UNL d   1     -42.500-123.433 -51.164  0.00  0.00     0.002 A 
ENDBRANCH   6  10
BRANCH   1  16
ATOM     16  C   UNL d   1     -41.819-121.555 -51.811  0.00  0.00     0.299 C 
ATOM     17  O   UNL d   1     -42.545-121.522 -51.408  0.00  0.00    -0.259 OA
BRANCH  16  18
ATOM     18  O   UNL d   1     -41.206-121.029 -51.624  0.00  0.00    -0.296 OA
ATOM     19  C   UNL d   1     -41.371-120.271 -51.353  0.00  0.00     0.185 C 
ENDBRANCH  16  18
ENDBRANCH   1  16
TORSDOF 3
ENDMDL
