MODEL 1
REMARK VINA RESULT:      16.2      0.000      0.000
REMARK  3 active torsions:
REMARK  status: ('A' for Active; 'I' for Inactive)
REMARK    1  A    between atoms: C_9  and  C_1 
REMARK    2  A    between atoms: C_11  and  C_2 
REMARK    3  A    between atoms: C_3  and  C_9 
ROOT
ATOM      1  C   UNL d   1      46.396 -18.024  43.964  0.00  0.00     0.003 A 
ATOM      2  C   UNL d   1      46.482 -19.164  42.791  0.00  0.00    -0.023 A 
ATOM      3  C   UNL d   1      46.469 -17.806  43.174  0.00  0.00    -0.000 A 
ATOM      4  C   UNL d   1      46.367 -18.812  44.159  0.00  0.00    -0.000 A 
ATOM      5  C   UNL d   1      46.409 -19.385  43.578  0.00  0.00    -0.004 A 
ATOM      6  C   UNL d   1      46.511 -18.376  42.596  0.00  0.00    -0.004 A 
ATOM      7  C   UNL d   1      46.293 -19.037  44.955  0.00  0.00    -0.000 C 
ATOM      8  C   UNL d   1      46.499 -17.006  42.967  0.00  0.00    -0.000 C 
ENDROOT
BRANCH   1   9
ATOM      9  C   UNL d   1      46.353 -17.446  44.550  0.00  0.00     0.039 C 
BRANCH   9  10
ATOM     10  C   UNL d   1      45.896 -16.766  44.666  0.00  0.00     0.163 A 
ATOM     11  N   UNL d   1      45.105 -16.746  44.904  0.00  0.00    -0.224 NA
ATOM     12  C   UNL d   1      44.879 -15.956  44.947  0.00  0.00     0.121 A 
ATOM     13  C   UNL d   1      45.519 -15.480  44.739  0.00  0.00     0.121 A 
ATOM     14  N   UNL d   1      46.153 -15.978  44.564  0.00  0.00    -0.224 NA
ENDBRANCH   9  10
ENDBRANCH   1   9
BRANCH   2  15
ATOM     15  C   UNL d   1      46.524 -19.742  42.205  0.00  0.00     0.019 C 
ATOM     16  C   UNL d   1      46.567 -20.321  41.618  0.00  0.00     0.004 C 
ATOM     17  C   UNL d   1      46.447 -20.330  42.779  0.00  0.00     0.004 C 
ATOM     18  C   UNL d   1      46.602 -19.155  41.631  0.00  0.00     0.004 C 
ENDBRANCH   2  15
TORSDOF 3
ENDMDL
MODEL 2
REMARK VINA RESULT:      17.0      1.784      4.722
REMARK  3 active torsions:
REMARK  status: ('A' for Active; 'I' for Inactive)
REMARK    1  A    between atoms: C_9  and  C_1 
REMARK    2  A    between atoms: C_11  and  C_2 
REMARK    3  A    between atoms: C_3  and  C_9 
ROOT
ATOM      1  C   UNL d   1      45.276 -15.192  44.574  0.00  0.00     0.003 A 
ATOM      2  C   UNL d   1      45.280 -13.643  44.045  0.00  0.00    -0.023 A 
ATOM      3  C   UNL d   1      45.957 -14.863  44.251  0.00  0.00    -0.000 A 
ATOM      4  C   UNL d   1      44.602 -14.741  44.629  0.00  0.00    -0.000 A 
ATOM      5  C   UNL d   1      44.599 -13.967  44.367  0.00  0.00    -0.004 A 
ATOM      6  C   UNL d   1      45.954 -14.093  43.989  0.00  0.00    -0.004 A 
ATOM      7  C   UNL d   1      43.912 -15.069  44.955  0.00  0.00    -0.000 C 
ATOM      8  C   UNL d   1      46.647 -15.316  44.191  0.00  0.00    -0.000 C 
ENDROOT
BRANCH   1   9
ATOM      9  C   UNL d   1      45.279 -15.973  44.839  0.00  0.00     0.039 C 
BRANCH   9  10
ATOM     10  C   UNL d   1      45.526 -16.696  44.520  0.00  0.00     0.163 A 
ATOM     11  N   UNL d   1      45.600 -16.874  43.717  0.00  0.00    -0.224 NA
ATOM     12  C   UNL d   1      45.860 -17.652  43.659  0.00  0.00     0.121 A 
ATOM     13  C   UNL d   1      45.950 -17.965  44.416  0.00  0.00     0.121 A 
ATOM     14  N   UNL d   1      45.744 -17.376  44.955  0.00  0.00    -0.224 NA
ENDBRANCH   9  10
ENDBRANCH   1   9
BRANCH   2  15
ATOM     15  C   UNL d   1      45.277 -12.861  43.780  0.00  0.00     0.019 C 
ATOM     16  C   UNL d   1      45.273 -12.080  43.514  0.00  0.00     0.004 C 
ATOM     17  C   UNL d   1      45.591 -12.615  44.501  0.00  0.00     0.004 C 
ATOM     18  C   UNL d   1      44.962 -13.108  43.058  0.00  0.00     0.004 C 
ENDBRANCH   2  15
TORSDOF 3
ENDMDL
