MODEL 1
REMARK VINA RESULT:     151.0      0.000      0.000
REMARK  6 active torsions:
REMARK  status: ('A' for Active; 'I' for Inactive)
REMARK    1  A    between atoms: S_5  and  C_2 
REMARK    2  A    between atoms: C_16  and  S_5 
REMARK    3  A    between atoms: N_11  and  C_8 
REMARK    4  A    between atoms: C_18  and  N_11 
REMARK    5  A    between atoms: C_19  and  N_12 
REMARK    6  A    between atoms: C_27  and  C_19 
ROOT
ATOM      1  C   UNL d   1      59.843  48.738  50.415  0.00  0.00     0.197 A 
ATOM      2  C   UNL d   1      59.252  49.281  50.229  0.00  0.00     0.227 A 
ATOM      3  N   UNL d   1      60.449  48.824  49.864  0.00  0.00    -0.192 N 
ATOM      4  N   UNL d   1      59.906  48.174  51.019  0.00  0.00    -0.206 NA
ATOM      5  N   UNL d   1      59.496  49.708  49.555  0.00  0.00    -0.115 NA
ATOM      6  N   UNL d   1      60.242  49.419  49.333  0.00  0.00    -0.058 NA
ATOM      7  C   UNL d   1      60.576  47.692  51.076  0.00  0.00     0.166 A 
ATOM      8  C   UNL d   1      61.182  47.783  50.519  0.00  0.00     0.054 A 
ATOM      9  C   UNL d   1      61.123  48.344  49.917  0.00  0.00     0.089 A 
ATOM     10  C   UNL d   1      61.730  48.432  49.363  0.00  0.00     0.020 A 
ATOM     11  C   UNL d   1      61.856  47.305  50.569  0.00  0.00     0.016 A 
ATOM     12  C   UNL d   1      62.463  47.391  50.018  0.00  0.00     0.058 A 
ATOM     13  C   UNL d   1      62.400  47.955  49.414  0.00  0.00     0.013 A 
ATOM     14 CL   UNL d   1      63.132  46.914  50.069  0.00  0.00    -0.082 Cl
ENDROOT
BRANCH   7  15
ATOM     15  N   UNL d   1      60.639  47.130  51.677  0.00  0.00    -0.227 NA
BRANCH  15  16
ATOM     16  C   UNL d   1      60.660  46.328  51.492  0.00  0.00     0.086 A 
ATOM     17  C   UNL d   1      61.038  46.071  50.805  0.00  0.00     0.038 A 
ATOM     18  C   UNL d   1      61.055  45.271  50.628  0.00  0.00     0.082 A 
ATOM     19  N   UNL d   1      60.694  44.718  51.132  0.00  0.00    -0.302 N 
ATOM     20  C   UNL d   1      60.317  44.983  51.817  0.00  0.00     0.082 A 
ATOM     21  C   UNL d   1      60.301  45.783  51.995  0.00  0.00     0.038 A 
BRANCH  19  22
ATOM     22  C   UNL d   1      60.712  43.917  50.952  0.00  0.00     0.080 C 
BRANCH  22  23
ATOM     23  C   UNL d   1      61.431  43.512  50.936  0.00  0.00     0.018 A 
ATOM     24  C   UNL d   1      61.551  42.857  51.421  0.00  0.00     0.002 A 
ATOM     25  C   UNL d   1      62.268  42.450  51.408  0.00  0.00     0.000 A 
ATOM     26  C   UNL d   1      62.870  42.704  50.905  0.00  0.00     0.000 A 
ATOM     27  C   UNL d   1      62.753  43.364  50.415  0.00  0.00     0.000 A 
ATOM     28  C   UNL d   1      62.032  43.766  50.433  0.00  0.00     0.002 A 
ENDBRANCH  22  23
ENDBRANCH  19  22
ENDBRANCH  15  16
ENDBRANCH   7  15
BRANCH   2  29
ATOM     29  S   UNL d   1      58.536  49.394  50.632  0.00  0.00     0.231 S 
ATOM     30  O   UNL d   1      58.925  49.509  51.346  0.00  0.00    -0.215 OA
ATOM     31  O   UNL d   1      58.148  49.277  49.911  0.00  0.00    -0.215 OA
BRANCH  29  32
ATOM     32  C   UNL d   1      57.797  49.498  50.983  0.00  0.00     0.090 A 
ATOM     33  C   UNL d   1      57.743  49.601  51.794  0.00  0.00     0.011 A 
ATOM     34  C   UNL d   1      57.005  49.705  52.146  0.00  0.00     0.001 A 
ATOM     35  C   UNL d   1      56.326  49.704  51.675  0.00  0.00     0.000 A 
ATOM     36  C   UNL d   1      56.383  49.599  50.856  0.00  0.00     0.001 A 
ATOM     37  C   UNL d   1      57.121  49.496  50.516  0.00  0.00     0.011 A 
ENDBRANCH  29  32
ENDBRANCH   2  29
TORSDOF 6
ENDMDL
MODEL 2
REMARK VINA RESULT:     153.9      1.358      1.984
REMARK  6 active torsions:
REMARK  status: ('A' for Active; 'I' for Inactive)
REMARK    1  A    between atoms: S_5  and  C_2 
REMARK    2  A    between atoms: C_16  and  S_5 
REMARK    3  A    between atoms: N_11  and  C_8 
REMARK    4  A    between atoms: C_18  and  N_11 
REMARK    5  A    between atoms: C_19  and  N_12 
REMARK    6  A    between atoms: C_27  and  C_19 
ROOT
ATOM      1  C   UNL d   1      61.038  47.636  50.424  0.00  0.00     0.197 A 
ATOM      2  C   UNL d   1      60.953  48.434  50.610  0.00  0.00     0.227 A 
ATOM      3  N   UNL d   1      61.694  47.558  49.934  0.00  0.00    -0.192 N 
ATOM      4  N   UNL d   1      60.598  46.967  50.641  0.00  0.00    -0.206 NA
ATOM      5  N   UNL d   1      61.565  48.854  50.229  0.00  0.00    -0.115 NA
ATOM      6  N   UNL d   1      62.023  48.303  49.810  0.00  0.00    -0.058 NA
ATOM      7  C   UNL d   1      60.812  46.216  50.368  0.00  0.00     0.166 A 
ATOM      8  C   UNL d   1      61.474  46.144  49.875  0.00  0.00     0.054 A 
ATOM      9  C   UNL d   1      61.914  46.807  49.657  0.00  0.00     0.089 A 
ATOM     10  C   UNL d   1      62.573  46.732  49.165  0.00  0.00     0.020 A 
ATOM     11  C   UNL d   1      61.695  45.397  49.597  0.00  0.00     0.016 A 
ATOM     12  C   UNL d   1      62.352  45.318  49.106  0.00  0.00     0.058 A 
ATOM     13  C   UNL d   1      62.792  45.987  48.890  0.00  0.00     0.013 A 
ATOM     14 CL   UNL d   1      62.571  44.574  48.831  0.00  0.00    -0.082 Cl
ENDROOT
BRANCH   7  15
ATOM     15  N   UNL d   1      60.375  45.551  50.583  0.00  0.00    -0.227 NA
BRANCH  15  16
ATOM     16  C   UNL d   1      60.729  44.946  51.014  0.00  0.00     0.086 A 
ATOM     17  C   UNL d   1      60.265  44.427  51.458  0.00  0.00     0.038 A 
ATOM     18  C   UNL d   1      60.625  43.827  51.885  0.00  0.00     0.082 A 
ATOM     19  N   UNL d   1      61.451  43.736  51.874  0.00  0.00    -0.302 N 
ATOM     20  C   UNL d   1      61.908  44.258  51.428  0.00  0.00     0.082 A 
ATOM     21  C   UNL d   1      61.548  44.859  51.001  0.00  0.00     0.038 A 
BRANCH  19  22
ATOM     22  C   UNL d   1      61.808  43.133  52.303  0.00  0.00     0.080 C 
BRANCH  22  23
ATOM     23  C   UNL d   1      62.135  42.485  51.911  0.00  0.00     0.018 A 
ATOM     24  C   UNL d   1      61.848  41.726  52.050  0.00  0.00     0.002 A 
ATOM     25  C   UNL d   1      62.172  41.075  51.660  0.00  0.00     0.000 A 
ATOM     26  C   UNL d   1      62.790  41.188  51.127  0.00  0.00     0.000 A 
ATOM     27  C   UNL d   1      63.082  41.953  50.984  0.00  0.00     0.000 A 
ATOM     28  C   UNL d   1      62.753  42.598  51.377  0.00  0.00     0.002 A 
ENDBRANCH  22  23
ENDBRANCH  19  22
ENDBRANCH  15  16
ENDBRANCH   7  15
BRANCH   2  29
ATOM     29  S   UNL d   1      60.367  48.773  51.089  0.00  0.00     0.231 S 
ATOM     30  O   UNL d   1      60.001  49.121  50.442  0.00  0.00    -0.215 OA
ATOM     31  O   UNL d   1      60.739  48.421  51.739  0.00  0.00    -0.215 OA
BRANCH  29  32
ATOM     32  C   UNL d   1      59.810  49.086  51.611  0.00  0.00     0.090 A 
ATOM     33  C   UNL d   1      60.045  49.330  52.357  0.00  0.00     0.011 A 
ATOM     34  C   UNL d   1      59.489  49.643  52.880  0.00  0.00     0.001 A 
ATOM     35  C   UNL d   1      58.700  49.707  52.644  0.00  0.00     0.000 A 
ATOM     36  C   UNL d   1      58.465  49.460  51.889  0.00  0.00     0.001 A 
ATOM     37  C   UNL d   1      59.025  49.150  51.377  0.00  0.00     0.011 A 
ENDBRANCH  29  32
ENDBRANCH   2  29
TORSDOF 6
ENDMDL
