MODEL 1
REMARK VINA RESULT:      70.9      0.000      0.000
REMARK  5 active torsions:
REMARK  status: ('A' for Active; 'I' for Inactive)
REMARK    1  A    between atoms: C_12  and  N_3 
REMARK    2  A    between atoms: C_11  and  C_5 
REMARK       I    between atoms: N_16  and  C_11 
REMARK    3  A    between atoms: C_15  and  C_12 
REMARK    4  A    between atoms: C_26  and  N_16 
REMARK    5  A    between atoms: C_27  and  C_26 
ROOT
ATOM      1  C   UNL d   1      45.774 -17.704  42.724  0.00  0.00     0.155 A 
ATOM      2  C   UNL d   1      45.142 -17.211  42.527  0.00  0.00     0.091 A 
ATOM      3  N   UNL d   1      46.013 -17.791  43.501  0.00  0.00    -0.272 N 
ATOM      4  N   UNL d   1      46.170 -18.116  42.122  0.00  0.00    -0.210 NA
ATOM      5  C   UNL d   1      44.984 -16.883  43.913  0.00  0.00     0.094 A 
ATOM      6  C   UNL d   1      45.617 -17.378  44.102  0.00  0.00     0.175 A 
ATOM      7  C   UNL d   1      44.905 -17.127  41.744  0.00  0.00     0.269 A 
ATOM      8  N   UNL d   1      45.299 -17.537  41.149  0.00  0.00    -0.258 N 
ATOM      9  C   UNL d   1      45.931 -18.032  41.338  0.00  0.00     0.152 A 
ATOM     10  C   UNL d   1      44.748 -16.801  43.123  0.00  0.00     0.016 A 
ATOM     11  N   UNL d   1      45.860 -17.467  44.892  0.00  0.00    -0.128 N 
ATOM     12  C   UNL d   1      45.062 -17.453  40.366  0.00  0.00     0.084 A 
ATOM     13  O   UNL d   1      44.272 -16.632  41.555  0.00  0.00    -0.266 OA
ATOM     14  C   UNL d   1      46.327 -18.442  40.744  0.00  0.00     0.038 A 
ATOM     15  C   UNL d   1      45.456 -17.864  39.767  0.00  0.00     0.019 A 
ATOM     16  C   UNL d   1      46.089 -18.359  39.956  0.00  0.00     0.005 A 
ENDROOT
BRANCH   5  17
ATOM     17  C   UNL d   1      44.589 -16.472  44.513  0.00  0.00     0.282 C 
ATOM     18  N   UNL d   1      44.810 -15.701  44.699  0.00  0.00    -0.206 NA
ATOM     19  O   UNL d   1      43.972 -16.829  44.928  0.00  0.00    -0.265 OA
BRANCH  18  20
ATOM     20  C   UNL d   1      45.426 -15.337  44.288  0.00  0.00     0.102 C 
BRANCH  20  21
ATOM     21  C   UNL d   1      45.566 -14.526  44.370  0.00  0.00     0.019 A 
ATOM     22  C   UNL d   1      45.093 -13.995  43.947  0.00  0.00     0.002 A 
ATOM     23  C   UNL d   1      45.225 -13.178  44.022  0.00  0.00     0.000 A 
ATOM     24  C   UNL d   1      45.831 -12.900  44.522  0.00  0.00     0.000 A 
ATOM     25  C   UNL d   1      46.299 -13.443  44.942  0.00  0.00     0.000 A 
ATOM     26  C   UNL d   1      46.166 -14.252  44.865  0.00  0.00     0.002 A 
ENDBRANCH  20  21
ENDBRANCH  18  20
ENDBRANCH   5  17
BRANCH   3  27
ATOM     27  C   UNL d   1      46.645 -18.285  43.690  0.00  0.00     0.107 C 
BRANCH  27  28
ATOM     28  C   UNL d   1      46.510 -18.994  44.084  0.00  0.00     0.118 A 
ATOM     29  O   UNL d   1      46.460 -19.706  43.659  0.00  0.00    -0.304 OA
ATOM     30  C   UNL d   1      46.322 -20.322  44.201  0.00  0.00     0.123 A 
ATOM     31  C   UNL d   1      46.288 -19.988  44.946  0.00  0.00     0.029 A 
ATOM     32  C   UNL d   1      46.402 -19.174  44.885  0.00  0.00     0.028 A 
ENDBRANCH  27  28
ENDBRANCH   3  27
TORSDOF 5
ENDMDL
