MODEL 1
REMARK VINA RESULT:      44.2      0.000      0.000
REMARK  3 active torsions:
REMARK  status: ('A' for Active; 'I' for Inactive)
REMARK    1  A    between atoms: C_9  and  N_1 
REMARK    2  A    between atoms: C_8  and  C_3 
REMARK    3  A    between atoms: C_17  and  C_9 
ROOT
ATOM      1  N   UNL d   1     -54.787-101.737 -37.810  0.00  0.00    -0.269 N 
ATOM      2  N   UNL d   1     -54.715-100.476 -38.249  0.00  0.00    -0.204 NA
ATOM      3  C   UNL d   1     -54.748-100.946 -37.572  0.00  0.00     0.174 A 
ATOM      4  C   UNL d   1     -54.777-101.754 -38.635  0.00  0.00     0.185 A 
ATOM      5  C   UNL d   1     -54.733-100.972 -38.910  0.00  0.00     0.199 A 
ATOM      6  N   UNL d   1     -54.803-102.377 -39.176  0.00  0.00    -0.224 NA
ATOM      7  N   UNL d   1     -54.714-100.818 -39.713  0.00  0.00    -0.223 NA
ATOM      8  C   UNL d   1     -54.784-102.215 -39.989  0.00  0.00     0.101 A 
ATOM      9  C   UNL d   1     -54.740-101.432 -40.255  0.00  0.00     0.101 A 
ATOM     10  C   UNL d   1     -54.810-102.839 -40.536  0.00  0.00     0.021 A 
ATOM     11  C   UNL d   1     -54.722-101.278 -41.058  0.00  0.00     0.021 A 
ATOM     12  C   UNL d   1     -54.791-102.675 -41.339  0.00  0.00     0.002 A 
ATOM     13  C   UNL d   1     -54.747-101.894 -41.601  0.00  0.00     0.002 A 
ENDROOT
BRANCH   1  14
ATOM     14  C   UNL d   1     -54.827-102.393 -37.320  0.00  0.00     0.108 C 
BRANCH  14  15
ATOM     15  C   UNL d   1     -55.535-102.573 -36.940  0.00  0.00     0.118 A 
ATOM     16  O   UNL d   1     -56.274-102.657 -37.299  0.00  0.00    -0.304 OA
ATOM     17  C   UNL d   1     -56.825-102.837 -36.715  0.00  0.00     0.123 A 
ATOM     18  C   UNL d   1     -56.431-102.867 -35.993  0.00  0.00     0.029 A 
ATOM     19  C   UNL d   1     -55.635-102.704 -36.131  0.00  0.00     0.028 A 
ENDBRANCH  14  15
ENDBRANCH   1  14
BRANCH   3  20
ATOM     20  C   UNL d   1     -54.743-100.670 -36.799  0.00  0.00     0.135 A 
ATOM     21  O   UNL d   1     -54.752 -99.865 -36.588  0.00  0.00    -0.302 OA
ATOM     22  C   UNL d   1     -54.743 -99.831 -35.692  0.00  0.00     0.123 A 
ATOM     23  C   UNL d   1     -54.729-100.634 -35.394  0.00  0.00     0.029 A 
ATOM     24  C   UNL d   1     -54.729-101.165 -36.094  0.00  0.00     0.030 A 
ENDBRANCH   3  20
TORSDOF 3
ENDMDL
