MODEL 1
REMARK VINA RESULT:      15.3      0.000      0.000
REMARK  1 active torsions:
REMARK  status: ('A' for Active; 'I' for Inactive)
REMARK    1  A    between atoms: C_7  and  C_1 
ROOT
ATOM      1  C   UNL d   1      59.820  49.692  50.922  0.00  0.00     0.102 A 
ATOM      2  C   UNL d   1      59.856  49.684  50.111  0.00  0.00     0.303 A 
ATOM      3  C   UNL d   1      59.083  49.700  51.302  0.00  0.00     0.011 A 
ATOM      4  O   UNL d   1      59.158  49.684  49.665  0.00  0.00    -0.273 OA
ATOM      5  C   UNL d   1      58.425  49.691  50.045  0.00  0.00     0.106 A 
ATOM      6  C   UNL d   1      58.388  49.699  50.856  0.00  0.00     0.023 A 
ATOM      7  C   UNL d   1      57.727  49.691  49.600  0.00  0.00     0.067 A 
ATOM      8  O   UNL d   1      60.586  49.677  49.731  0.00  0.00    -0.259 OA
ATOM      9  C   UNL d   1      57.652  49.707  51.236  0.00  0.00     0.005 A 
ATOM     10  C   UNL d   1      56.989  49.698  49.980  0.00  0.00     0.198 A 
ATOM     11  C   UNL d   1      56.953  49.706  50.791  0.00  0.00     0.042 A 
ATOM     12  O   UNL d   1      56.247  49.699  49.616  0.00  0.00    -0.286 OA
ENDROOT
BRANCH   1  13
ATOM     13  C   UNL d   1      60.511  49.693  51.367  0.00  0.00     0.201 C 
ATOM     14  O   UNL d   1      60.473  49.693  52.194  0.00  0.00    -0.286 OA
ATOM     15  C   UNL d   1      61.231  49.692  51.002  0.00  0.00     0.045 C 
ENDBRANCH   1  13
TORSDOF 1
ENDMDL
MODEL 2
REMARK VINA RESULT:      15.9      0.932      3.357
REMARK  1 active torsions:
REMARK  status: ('A' for Active; 'I' for Inactive)
REMARK    1  A    between atoms: C_7  and  C_1 
ROOT
ATOM      1  C   UNL d   1      57.676  49.671  50.231  0.00  0.00     0.102 A 
ATOM      2  C   UNL d   1      57.605  49.689  51.040  0.00  0.00     0.303 A 
ATOM      3  C   UNL d   1      58.427  49.663  49.882  0.00  0.00     0.011 A 
ATOM      4  O   UNL d   1      58.284  49.700  51.513  0.00  0.00    -0.273 OA
ATOM      5  C   UNL d   1      59.033  49.693  51.164  0.00  0.00     0.106 A 
ATOM      6  C   UNL d   1      59.103  49.675  50.356  0.00  0.00     0.023 A 
ATOM      7  C   UNL d   1      59.712  49.704  51.638  0.00  0.00     0.067 A 
ATOM      8  O   UNL d   1      56.861  49.696  51.389  0.00  0.00    -0.259 OA
ATOM      9  C   UNL d   1      59.854  49.667  50.007  0.00  0.00     0.005 A 
ATOM     10  C   UNL d   1      60.464  49.697  51.289  0.00  0.00     0.198 A 
ATOM     11  C   UNL d   1      60.535  49.678  50.480  0.00  0.00     0.042 A 
ATOM     12  O   UNL d   1      61.191  49.706  51.683  0.00  0.00    -0.286 OA
ENDROOT
BRANCH   1  13
ATOM     13  C   UNL d   1      57.003  49.659  49.758  0.00  0.00     0.201 C 
ATOM     14  O   UNL d   1      57.074  49.698  48.934  0.00  0.00    -0.286 OA
ATOM     15  C   UNL d   1      56.270  49.611  50.092  0.00  0.00     0.045 C 
ENDBRANCH   1  13
TORSDOF 1
ENDMDL
