MODEL 1
REMARK VINA RESULT:       9.2      0.000      0.000
REMARK  8 active torsions:
REMARK  status: ('A' for Active; 'I' for Inactive)
REMARK    1  A    between atoms: C_2  and  P_1 
REMARK    2  A    between atoms: O_5  and  P_1 
REMARK    3  A    between atoms: O_6  and  P_1 
REMARK    4  A    between atoms: N_3  and  C_2 
REMARK       I    between atoms: C_4  and  N_3 
REMARK    5  A    between atoms: C_9  and  C_4 
REMARK    6  A    between atoms: C_12  and  O_5 
REMARK    7  A    between atoms: C_11  and  O_6 
REMARK    8  A    between atoms: C_10  and  C_9 
ROOT
ATOM      1  C   UNL d   1      46.126 -17.920  43.584  0.00  0.00     0.165 C 
ATOM      2  C   UNL d   1      45.949 -17.578  42.854  0.00  0.00     0.029 C 
ENDROOT
BRANCH   1   3
ATOM      3  P   UNL d   1      46.363 -18.711  43.631  0.00  0.00     0.392 P 
ATOM      4  O   UNL d   1      46.071 -18.741  44.428  0.00  0.00    -0.251 OA
BRANCH   3   5
ATOM      5  O   UNL d   1      46.603 -19.523  43.691  0.00  0.00    -0.265 OA
BRANCH   5   6
ATOM      6  C   UNL d   1      46.249 -20.019  44.247  0.00  0.00     0.103 C 
ATOM      7  C   UNL d   1      46.647 -20.212  44.936  0.00  0.00     0.027 C 
ATOM      8  C   UNL d   1      45.497 -20.330  44.125  0.00  0.00     0.027 C 
ENDBRANCH   5   6
ENDBRANCH   3   5
BRANCH   3   9
ATOM      9  O   UNL d   1      46.645 -18.672  42.854  0.00  0.00    -0.265 OA
BRANCH   9  10
ATOM     10  C   UNL d   1      46.352 -19.190  42.285  0.00  0.00     0.103 C 
ATOM     11  C   UNL d   1      46.573 -19.972  42.294  0.00  0.00     0.027 C 
ATOM     12  C   UNL d   1      45.849 -18.922  41.719  0.00  0.00     0.027 C 
ENDBRANCH   9  10
ENDBRANCH   3   9
ENDBRANCH   1   3
BRANCH   1  13
ATOM     13  N   UNL d   1      46.063 -17.468  44.270  0.00  0.00    -0.200 NA
ATOM     14  C   UNL d   1      45.839 -16.667  44.216  0.00  0.00     0.280 C 
ATOM     15  O   UNL d   1      45.680 -16.326  43.480  0.00  0.00    -0.265 OA
BRANCH  14  16
ATOM     16  C   UNL d   1      45.779 -16.214  44.927  0.00  0.00     0.062 C 
BRANCH  16  17
ATOM     17  C   UNL d   1      45.574 -15.388  44.856  0.00  0.00     0.005 A 
ATOM     18  C   UNL d   1      46.190 -14.833  44.757  0.00  0.00     0.000 A 
ATOM     19  C   UNL d   1      46.019 -14.021  44.685  0.00  0.00     0.000 A 
ATOM     20  C   UNL d   1      45.232 -13.775  44.713  0.00  0.00     0.000 A 
ATOM     21  C   UNL d   1      44.619 -14.343  44.814  0.00  0.00     0.000 A 
ATOM     22  C   UNL d   1      44.789 -15.143  44.884  0.00  0.00     0.000 A 
ENDBRANCH  16  17
ENDBRANCH  14  16
ENDBRANCH   1  13
TORSDOF 8
ENDMDL
