MODEL 1
REMARK VINA RESULT:      -4.1      0.000      0.000
REMARK  8 active torsions:
REMARK  status: ('A' for Active; 'I' for Inactive)
REMARK    1  A    between atoms: C_9  and  C_2 
REMARK    2  A    between atoms: S_7  and  C_4 
REMARK    3  A    between atoms: C_6  and  C_13 
REMARK       I    between atoms: N_10  and  C_6 
REMARK    4  A    between atoms: C_13  and  S_7 
REMARK    5  A    between atoms: C_8  and  C_14 
REMARK    6  A    between atoms: O_15  and  C_8 
REMARK    7  A    between atoms: C_14  and  N_10 
REMARK    8  A    between atoms: C_18  and  O_15 
ROOT
ATOM      1  N   UNL d   1      58.791  -1.562  29.576  0.00  0.00    -0.212 NA
ATOM      2  C   UNL d   1      59.396  -1.785  29.072  0.00  0.00     0.171 A 
ATOM      3  N   UNL d   1      59.692  -1.105  28.706  0.00  0.00    -0.188 NA
ATOM      4  C   UNL d   1      58.700  -0.743  29.533  0.00  0.00     0.160 A 
ATOM      5  S   UNL d   1      59.262  -0.461  28.991  0.00  0.00     0.041 SA
ENDROOT
BRANCH   4   6
ATOM      6  S   UNL d   1      58.155  -0.283  29.948  0.00  0.00    -0.054 SA
BRANCH   6   7
ATOM      7  C   UNL d   1      57.896  -0.521  30.686  0.00  0.00     0.100 C 
BRANCH   7   8
ATOM      8  C   UNL d   1      57.315  -0.089  31.090  0.00  0.00     0.286 C 
ATOM      9  N   UNL d   1      56.971  -0.401  31.770  0.00  0.00    -0.200 NA
ATOM     10  O   UNL d   1      57.089   0.648  30.805  0.00  0.00    -0.265 OA
BRANCH   9  11
ATOM     11  C   UNL d   1      56.395   0.035  32.166  0.00  0.00     0.171 C 
BRANCH  11  12
ATOM     12  C   UNL d   1      55.973  -0.323  32.788  0.00  0.00     0.320 C 
ATOM     13  O   UNL d   1      56.222  -1.050  33.094  0.00  0.00    -0.257 OA
BRANCH  12  14
ATOM     14  O   UNL d   1      55.302   0.058  33.094  0.00  0.00    -0.270 OA
BRANCH  14  15
ATOM     15  C   UNL d   1      55.291   0.279  33.897  0.00  0.00     0.126 C 
ATOM     16  C   UNL d   1      54.624   0.632  34.210  0.00  0.00     0.029 C 
ENDBRANCH  14  15
ENDBRANCH  12  14
ENDBRANCH  11  12
ENDBRANCH   9  11
ENDBRANCH   7   8
ENDBRANCH   6   7
ENDBRANCH   4   6
BRANCH   2  17
ATOM     17  C   UNL d   1      59.670  -2.553  28.944  0.00  0.00     0.036 A 
ATOM     18  C   UNL d   1      60.444  -2.773  29.160  0.00  0.00     0.003 A 
ATOM     19  C   UNL d   1      60.711  -3.532  29.032  0.00  0.00     0.000 A 
ATOM     20  C   UNL d   1      60.213  -4.085  28.685  0.00  0.00     0.000 A 
ATOM     21  C   UNL d   1      59.442  -3.873  28.467  0.00  0.00     0.000 A 
ATOM     22  C   UNL d   1      59.183  -3.108  28.600  0.00  0.00     0.003 A 
ENDBRANCH   2  17
TORSDOF 8
ENDMDL
MODEL 2
REMARK VINA RESULT:      -2.0      8.115      8.707
REMARK  8 active torsions:
REMARK  status: ('A' for Active; 'I' for Inactive)
REMARK    1  A    between atoms: C_9  and  C_2 
REMARK    2  A    between atoms: S_7  and  C_4 
REMARK    3  A    between atoms: C_6  and  C_13 
REMARK       I    between atoms: N_10  and  C_6 
REMARK    4  A    between atoms: C_13  and  S_7 
REMARK    5  A    between atoms: C_8  and  C_14 
REMARK    6  A    between atoms: O_15  and  C_8 
REMARK    7  A    between atoms: C_14  and  N_10 
REMARK    8  A    between atoms: C_18  and  O_15 
ROOT
ATOM      1  N   UNL d   1      58.914  -9.804  31.401  0.00  0.00    -0.212 NA
ATOM      2  C   UNL d   1      58.931  -9.713  30.588  0.00  0.00     0.171 A 
ATOM      3  N   UNL d   1      59.716  -9.599  30.357  0.00  0.00    -0.188 NA
ATOM      4  C   UNL d   1      59.685  -9.749  31.688  0.00  0.00     0.160 A 
ATOM      5  S   UNL d   1      60.182  -9.622  31.037  0.00  0.00     0.041 SA
ENDROOT
BRANCH   4   6
ATOM      6  S   UNL d   1      59.925  -9.809  32.476  0.00  0.00    -0.054 SA
BRANCH   6   7
ATOM      7  C   UNL d   1      59.856  -9.166  32.975  0.00  0.00     0.100 C 
BRANCH   7   8
ATOM      8  C   UNL d   1      60.104  -9.214  33.765  0.00  0.00     0.286 C 
ATOM      9  N   UNL d   1      59.837  -8.661  34.313  0.00  0.00    -0.200 NA
ATOM     10  O   UNL d   1      60.616  -9.817  33.991  0.00  0.00    -0.265 OA
BRANCH   9  11
ATOM     11  C   UNL d   1      60.088  -8.716  35.096  0.00  0.00     0.171 C 
BRANCH  11  12
ATOM     12  C   UNL d   1      59.764  -8.199  35.662  0.00  0.00     0.320 C 
ATOM     13  O   UNL d   1      59.155  -8.456  36.158  0.00  0.00    -0.257 OA
BRANCH  12  14
ATOM     14  O   UNL d   1      60.062  -7.426  35.721  0.00  0.00    -0.270 OA
BRANCH  14  15
ATOM     15  C   UNL d   1      59.643  -6.863  36.169  0.00  0.00     0.126 C 
ATOM     16  C   UNL d   1      59.822  -6.069  36.090  0.00  0.00     0.029 C 
ENDBRANCH  14  15
ENDBRANCH  12  14
ENDBRANCH  11  12
ENDBRANCH   9  11
ENDBRANCH   7   8
ENDBRANCH   6   7
ENDBRANCH   4   6
BRANCH   2  17
ATOM     17  C   UNL d   1      58.281  -9.729  30.078  0.00  0.00     0.036 A 
ATOM     18  C   UNL d   1      58.384  -9.723  29.252  0.00  0.00     0.003 A 
ATOM     19  C   UNL d   1      57.742  -9.739  28.752  0.00  0.00     0.000 A 
ATOM     20  C   UNL d   1      56.984  -9.762  29.066  0.00  0.00     0.000 A 
ATOM     21  C   UNL d   1      56.873  -9.769  29.888  0.00  0.00     0.000 A 
ATOM     22  C   UNL d   1      57.525  -9.752  30.381  0.00  0.00     0.003 A 
ENDBRANCH   2  17
TORSDOF 8
ENDMDL
MODEL 3
REMARK VINA RESULT:      -1.1      1.242      1.591
REMARK  8 active torsions:
REMARK  status: ('A' for Active; 'I' for Inactive)
REMARK    1  A    between atoms: C_9  and  C_2 
REMARK    2  A    between atoms: S_7  and  C_4 
REMARK    3  A    between atoms: C_6  and  C_13 
REMARK       I    between atoms: N_10  and  C_6 
REMARK    4  A    between atoms: C_13  and  S_7 
REMARK    5  A    between atoms: C_8  and  C_14 
REMARK    6  A    between atoms: O_15  and  C_8 
REMARK    7  A    between atoms: C_14  and  N_10 
REMARK    8  A    between atoms: C_18  and  O_15 
ROOT
ATOM      1  N   UNL d   1      58.886  -0.410  30.168  0.00  0.00    -0.212 NA
ATOM      2  C   UNL d   1      59.677  -0.437  29.960  0.00  0.00     0.171 A 
ATOM      3  N   UNL d   1      60.048   0.235  30.268  0.00  0.00    -0.188 NA
ATOM      4  C   UNL d   1      58.752   0.276  30.606  0.00  0.00     0.160 A 
ATOM      5  S   UNL d   1      59.476   0.675  30.667  0.00  0.00     0.041 SA
ENDROOT
BRANCH   4   6
ATOM      6  S   UNL d   1      58.033   0.525  30.927  0.00  0.00    -0.054 SA
BRANCH   6   7
ATOM      7  C   UNL d   1      57.745   0.175  31.606  0.00  0.00     0.100 C 
BRANCH   7   8
ATOM      8  C   UNL d   1      56.980   0.343  31.878  0.00  0.00     0.286 C 
ATOM      9  N   UNL d   1      56.821   0.334  32.686  0.00  0.00    -0.200 NA
ATOM     10  O   UNL d   1      56.389   0.518  31.335  0.00  0.00    -0.265 OA
BRANCH   9  11
ATOM     11  C   UNL d   1      56.058   0.503  32.947  0.00  0.00     0.171 C 
BRANCH  11  12
ATOM     12  C   UNL d   1      55.890   0.459  33.761  0.00  0.00     0.320 C 
ATOM     13  O   UNL d   1      56.462   0.682  34.315  0.00  0.00    -0.257 OA
BRANCH  12  14
ATOM     14  O   UNL d   1      55.143   0.190  34.007  0.00  0.00    -0.270 OA
BRANCH  14  15
ATOM     15  C   UNL d   1      54.466   0.626  33.798  0.00  0.00     0.126 C 
ATOM     16  C   UNL d   1      53.751   0.458  34.156  0.00  0.00     0.029 C 
ENDBRANCH  14  15
ENDBRANCH  12  14
ENDBRANCH  11  12
ENDBRANCH   9  11
ENDBRANCH   7   8
ENDBRANCH   6   7
ENDBRANCH   4   6
BRANCH   2  17
ATOM     17  C   UNL d   1      60.050  -1.028  29.521  0.00  0.00     0.036 A 
ATOM     18  C   UNL d   1      59.936  -1.833  29.700  0.00  0.00     0.003 A 
ATOM     19  C   UNL d   1      60.305  -2.414  29.265  0.00  0.00     0.000 A 
ATOM     20  C   UNL d   1      60.795  -2.203  28.641  0.00  0.00     0.000 A 
ATOM     21  C   UNL d   1      60.914  -1.403  28.455  0.00  0.00     0.000 A 
ATOM     22  C   UNL d   1      60.538  -0.828  28.900  0.00  0.00     0.003 A 
ENDBRANCH   2  17
TORSDOF 8
ENDMDL
