MODEL 1
REMARK VINA RESULT:      68.8      0.000      0.000
REMARK  9 active torsions:
REMARK  status: ('A' for Active; 'I' for Inactive)
REMARK    1  A    between atoms: C_21  and  N_1 
REMARK    2  A    between atoms: S_7  and  C_2 
REMARK       I    between atoms: C_6  and  N_18 
REMARK    3  A    between atoms: C_15  and  C_6 
REMARK    4  A    between atoms: C_19  and  S_7 
REMARK    5  A    between atoms: C_8  and  C_19 
REMARK       I    between atoms: N_11  and  C_8 
REMARK    6  A    between atoms: C_9  and  C_20 
REMARK    7  A    between atoms: C_20  and  N_11 
REMARK    8  A    between atoms: N_18  and  C_23 
REMARK    9  A    between atoms: C_23  and  C_21 
ROOT
ATOM      1  N   UNL d   1     -49.825  27.296  33.896  0.00  0.00    -0.302 N 
ATOM      2  C   UNL d   1     -50.570  26.252  33.509  0.00  0.00     0.049 A 
ATOM      3  C   UNL d   1     -49.817  26.471  33.750  0.00  0.00     0.087 A 
ATOM      4  C   UNL d   1     -51.052  26.929  33.500  0.00  0.00     0.024 A 
ATOM      5  C   UNL d   1     -50.590  27.571  33.740  0.00  0.00     0.065 A 
ATOM      6  C   UNL d   1     -51.844  27.032  33.306  0.00  0.00     0.002 A 
ATOM      7  C   UNL d   1     -50.927  28.317  33.783  0.00  0.00     0.018 A 
ATOM      8  C   UNL d   1     -52.179  27.786  33.351  0.00  0.00     0.000 A 
ATOM      9  C   UNL d   1     -51.724  28.431  33.589  0.00  0.00     0.002 A 
ENDROOT
BRANCH   1  10
ATOM     10  C   UNL d   1     -49.191  27.756  34.149  0.00  0.00     0.101 C 
BRANCH  10  11
ATOM     11  C   UNL d   1     -48.798  27.570  34.851  0.00  0.00     0.121 C 
BRANCH  11  12
ATOM     12  N   UNL d   1     -48.176  28.052  35.116  0.00  0.00    -0.205 NA
ATOM     13  C   UNL d   1     -48.339  28.802  35.429  0.00  0.00     0.279 C 
ATOM     14  O   UNL d   1     -49.126  29.069  35.478  0.00  0.00    -0.265 OA
BRANCH  13  15
ATOM     15  C   UNL d   1     -47.721  29.279  35.692  0.00  0.00     0.058 A 
ATOM     16  C   UNL d   1     -47.875  29.997  36.034  0.00  0.00     0.005 A 
ATOM     17  C   UNL d   1     -47.268  30.489  36.303  0.00  0.00     0.000 A 
ATOM     18  C   UNL d   1     -46.481  30.245  36.221  0.00  0.00     0.000 A 
ATOM     19  C   UNL d   1     -46.314  29.508  35.870  0.00  0.00     0.000 A 
ATOM     20  C   UNL d   1     -46.935  29.027  35.606  0.00  0.00     0.005 A 
ENDBRANCH  13  15
ENDBRANCH  11  12
ENDBRANCH  10  11
ENDBRANCH   1  10
BRANCH   2  21
ATOM     21  S   UNL d   1     -50.813  25.486  33.306  0.00  0.00    -0.080 SA
BRANCH  21  22
ATOM     22  C   UNL d   1     -50.970  24.938  33.904  0.00  0.00     0.098 C 
BRANCH  22  23
ATOM     23  C   UNL d   1     -51.050  24.140  33.728  0.00  0.00     0.286 C 
ATOM     24  N   UNL d   1     -51.791  23.786  33.701  0.00  0.00    -0.204 NA
ATOM     25  O   UNL d   1     -50.375  23.688  33.576  0.00  0.00    -0.265 OA
BRANCH  24  26
ATOM     26  C   UNL d   1     -52.458  24.237  33.852  0.00  0.00     0.127 C 
BRANCH  26  27
ATOM     27  C   UNL d   1     -53.188  23.866  33.962  0.00  0.00     0.119 A 
ATOM     28  O   UNL d   1     -53.621  23.486  33.380  0.00  0.00    -0.304 OA
ATOM     29  C   UNL d   1     -54.308  23.197  33.727  0.00  0.00     0.123 A 
ATOM     30  C   UNL d   1     -54.299  23.397  34.517  0.00  0.00     0.029 A 
ATOM     31  C   UNL d   1     -53.606  23.811  34.665  0.00  0.00     0.028 A 
ENDBRANCH  26  27
ENDBRANCH  24  26
ENDBRANCH  22  23
ENDBRANCH  21  22
ENDBRANCH   2  21
TORSDOF 9
ENDMDL
