MODEL 1
REMARK VINA RESULT:      -5.4      0.000      0.000
REMARK  5 active torsions:
REMARK  status: ('A' for Active; 'I' for Inactive)
REMARK    1  A    between atoms: C_14  and  N_3 
REMARK    2  A    between atoms: C_15  and  C_9 
REMARK    3  A    between atoms: O_22  and  C_12 
REMARK    4  A    between atoms: O_23  and  C_13 
REMARK    5  A    between atoms: C_16  and  C_14 
ROOT
ATOM      1  C   UNL d   1     -47.427  13.446  22.889  0.00  0.00     0.056 A 
ATOM      2  C   UNL d   1     -46.601  13.359  22.878  0.00  0.00     0.107 A 
ATOM      3  N   UNL d   1     -47.563  12.030  23.058  0.00  0.00    -0.304 N 
ATOM      4  C   UNL d   1     -46.263  12.613  22.957  0.00  0.00     0.038 A 
ATOM      5  N   UNL d   1     -46.275  14.109  22.782  0.00  0.00    -0.148 NA
ATOM      6  C   UNL d   1     -47.908  12.782  22.979  0.00  0.00     0.083 A 
ATOM      7  N   UNL d   1     -46.893  14.653  22.734  0.00  0.00    -0.148 NA
ATOM      8  C   UNL d   1     -46.744  11.949  23.047  0.00  0.00     0.068 A 
ATOM      9  C   UNL d   1     -47.606  14.251  22.799  0.00  0.00     0.106 A 
ATOM     10  C   UNL d   1     -46.405  11.202  23.125  0.00  0.00     0.044 A 
ATOM     11  C   UNL d   1     -45.444  12.531  22.945  0.00  0.00     0.029 A 
ATOM     12  C   UNL d   1     -45.586  11.121  23.114  0.00  0.00     0.118 A 
ATOM     13  C   UNL d   1     -45.106  11.785  23.024  0.00  0.00     0.116 A 
ENDROOT
BRANCH   3  14
ATOM     14  C   UNL d   1     -48.043  11.366  23.148  0.00  0.00     0.080 C 
BRANCH  14  15
ATOM     15  C   UNL d   1     -48.858  11.430  23.048  0.00  0.00     0.020 A 
ATOM     16  C   UNL d   1     -49.173  11.616  22.300  0.00  0.00     0.031 A 
ATOM     17  C   UNL d   1     -49.988  11.681  22.199  0.00  0.00     0.140 A 
ATOM     18  F   UNL d   1     -50.296  11.865  21.456  0.00  0.00    -0.204 F 
ATOM     19  C   UNL d   1     -50.502  11.561  22.845  0.00  0.00     0.030 A 
ATOM     20  C   UNL d   1     -50.187  11.375  23.593  0.00  0.00     0.002 A 
ATOM     21  C   UNL d   1     -49.368  11.311  23.692  0.00  0.00     0.002 A 
ENDBRANCH  14  15
ENDBRANCH   3  14
BRANCH   9  22
ATOM     22  C   UNL d   1     -48.319  14.665  22.769  0.00  0.00     0.020 A 
ATOM     23  C   UNL d   1     -48.708  14.762  22.045  0.00  0.00     0.004 A 
ATOM     24  C   UNL d   1     -49.425  15.179  22.019  0.00  0.00     0.030 A 
ATOM     25  C   UNL d   1     -49.743  15.490  22.701  0.00  0.00     0.140 A 
ATOM     26  C   UNL d   1     -49.357  15.394  23.424  0.00  0.00     0.030 A 
ATOM     27  F   UNL d   1     -50.459  15.904  22.662  0.00  0.00    -0.204 F 
ATOM     28  C   UNL d   1     -48.641  14.980  23.459  0.00  0.00     0.004 A 
ENDBRANCH   9  22
BRANCH  12  29
ATOM     29  O   UNL d   1     -45.245  10.357  23.195  0.00  0.00    -0.326 OA
ATOM     30  C   UNL d   1     -45.713   9.723  23.446  0.00  0.00     0.181 C 
ENDBRANCH  12  29
BRANCH  13  31
ATOM     31  O   UNL d   1     -44.277  11.695  23.014  0.00  0.00    -0.326 OA
ATOM     32  C   UNL d   1     -43.833  12.034  22.403  0.00  0.00     0.181 C 
ENDBRANCH  13  31
TORSDOF 5
ENDMDL
MODEL 2
REMARK VINA RESULT:      -3.9      8.669      9.585
REMARK  5 active torsions:
REMARK  status: ('A' for Active; 'I' for Inactive)
REMARK    1  A    between atoms: C_14  and  N_3 
REMARK    2  A    between atoms: C_15  and  C_9 
REMARK    3  A    between atoms: O_22  and  C_12 
REMARK    4  A    between atoms: O_23  and  C_13 
REMARK    5  A    between atoms: C_16  and  C_14 
ROOT
ATOM      1  C   UNL d   1     -39.873  14.893  19.588  0.00  0.00     0.056 A 
ATOM      2  C   UNL d   1     -40.000  15.053  20.393  0.00  0.00     0.107 A 
ATOM      3  N   UNL d   1     -38.716  14.123  19.936  0.00  0.00    -0.304 N 
ATOM      4  C   UNL d   1     -39.489  14.749  20.961  0.00  0.00     0.038 A 
ATOM      5  N   UNL d   1     -40.674  15.524  20.449  0.00  0.00    -0.148 NA
ATOM      6  C   UNL d   1     -39.231  14.429  19.360  0.00  0.00     0.083 A 
ATOM      7  N   UNL d   1     -40.959  15.653  19.685  0.00  0.00    -0.148 NA
ATOM      8  C   UNL d   1     -38.847  14.284  20.733  0.00  0.00     0.068 A 
ATOM      9  C   UNL d   1     -40.470  15.268  19.151  0.00  0.00     0.106 A 
ATOM     10  C   UNL d   1     -38.334  13.980  21.302  0.00  0.00     0.044 A 
ATOM     11  C   UNL d   1     -39.619  14.909  21.759  0.00  0.00     0.029 A 
ATOM     12  C   UNL d   1     -38.465  14.140  22.098  0.00  0.00     0.118 A 
ATOM     13  C   UNL d   1     -39.107  14.605  22.327  0.00  0.00     0.116 A 
ENDROOT
BRANCH   3  14
ATOM     14  C   UNL d   1     -38.074  13.659  19.708  0.00  0.00     0.080 C 
BRANCH  14  15
ATOM     15  C   UNL d   1     -38.096  13.247  18.995  0.00  0.00     0.020 A 
ATOM     16  C   UNL d   1     -38.276  12.434  18.989  0.00  0.00     0.031 A 
ATOM     17  C   UNL d   1     -38.298  12.021  18.277  0.00  0.00     0.140 A 
ATOM     18  F   UNL d   1     -38.477  11.216  18.275  0.00  0.00    -0.204 F 
ATOM     19  C   UNL d   1     -38.141  12.415  17.558  0.00  0.00     0.030 A 
ATOM     20  C   UNL d   1     -37.962  13.228  17.564  0.00  0.00     0.002 A 
ATOM     21  C   UNL d   1     -37.940  13.640  18.281  0.00  0.00     0.002 A 
ENDBRANCH  14  15
ENDBRANCH   3  14
BRANCH   9  22
ATOM     22  C   UNL d   1     -40.628  15.306  18.342  0.00  0.00     0.020 A 
ATOM     23  C   UNL d   1     -41.147  14.761  17.998  0.00  0.00     0.004 A 
ATOM     24  C   UNL d   1     -41.303  14.803  17.184  0.00  0.00     0.030 A 
ATOM     25  C   UNL d   1     -40.950  15.377  16.728  0.00  0.00     0.140 A 
ATOM     26  C   UNL d   1     -40.432  15.922  17.068  0.00  0.00     0.030 A 
ATOM     27  F   UNL d   1     -41.114  15.408  15.917  0.00  0.00    -0.204 F 
ATOM     28  C   UNL d   1     -40.270  15.887  17.880  0.00  0.00     0.004 A 
ENDBRANCH   9  22
BRANCH  12  29
ATOM     29  O   UNL d   1     -37.940  13.828  22.675  0.00  0.00    -0.326 OA
ATOM     30  C   UNL d   1     -38.203  13.241  23.194  0.00  0.00     0.181 C 
ENDBRANCH  12  29
BRANCH  13  31
ATOM     31  O   UNL d   1     -39.234  14.764  23.135  0.00  0.00    -0.326 OA
ATOM     32  C   UNL d   1     -39.350  15.543  23.390  0.00  0.00     0.181 C 
ENDBRANCH  13  31
TORSDOF 5
ENDMDL
