MODEL 1
REMARK VINA RESULT:      36.6      0.000      0.000
REMARK  1 active torsions:
REMARK  status: ('A' for Active; 'I' for Inactive)
REMARK    1  A    between atoms: C_7  and  C_4 
ROOT
ATOM      1  N   UNL d   1     -59.442 -98.838 -44.475  0.00  0.00    -0.242 NA
ATOM      2  C   UNL d   1     -58.038 -98.788 -44.773  0.00  0.00     0.156 A 
ATOM      3  N   UNL d   1     -57.869 -98.795 -43.964  0.00  0.00    -0.231 NA
ATOM      4  C   UNL d   1     -58.830 -98.810 -45.029  0.00  0.00     0.110 A 
ATOM      5  C   UNL d   1     -59.264 -98.845 -43.668  0.00  0.00     0.099 A 
ATOM      6  C   UNL d   1     -58.478 -98.824 -43.419  0.00  0.00     0.100 A 
ATOM      7 CL   UNL d   1     -57.430 -98.759 -45.328  0.00  0.00    -0.060 Cl
ATOM      8  C   UNL d   1     -59.875 -98.874 -43.105  0.00  0.00     0.021 A 
ATOM      9  C   UNL d   1     -58.302 -98.831 -42.607  0.00  0.00     0.021 A 
ATOM     10  C   UNL d   1     -58.909 -98.860 -42.052  0.00  0.00     0.002 A 
ATOM     11  C   UNL d   1     -59.696 -98.881 -42.300  0.00  0.00     0.002 A 
ENDROOT
BRANCH   4  12
ATOM     12  C   UNL d   1     -59.001 -98.803 -45.829  0.00  0.00     0.020 A 
ATOM     13  C   UNL d   1     -59.779 -98.765 -46.085  0.00  0.00     0.002 A 
ATOM     14  C   UNL d   1     -59.956 -98.758 -46.886  0.00  0.00     0.000 A 
ATOM     15  C   UNL d   1     -59.340 -98.789 -47.446  0.00  0.00     0.000 A 
ATOM     16  C   UNL d   1     -58.550 -98.827 -47.185  0.00  0.00     0.000 A 
ATOM     17  C   UNL d   1     -59.507 -98.782 -48.255  0.00  0.00     0.000 C 
ATOM     18  C   UNL d   1     -58.385 -98.833 -46.377  0.00  0.00     0.002 A 
ENDBRANCH   4  12
TORSDOF 1
ENDMDL
