MODEL 1
REMARK VINA RESULT:      29.7      0.000      0.000
REMARK  5 active torsions:
REMARK  status: ('A' for Active; 'I' for Inactive)
REMARK    1  A    between atoms: C_2  and  C_1 
REMARK    2  A    between atoms: N_5  and  C_2 
REMARK    3  A    between atoms: C_12  and  C_4 
REMARK    4  A    between atoms: C_24  and  N_9 
REMARK    5  A    between atoms: C_19  and  C_24 
ROOT
ATOM      1  N   UNL d   1      46.551 -19.886  39.648  0.00  0.00    -0.191 NA
ATOM      2  C   UNL d   1      46.334 -19.443  40.309  0.00  0.00     0.103 C 
ATOM      3  C   UNL d   1      46.115 -19.000  40.967  0.00  0.00     0.097 C 
ENDROOT
BRANCH   3   4
ATOM      4  C   UNL d   1      46.642 -18.903  41.588  0.00  0.00     0.091 C 
BRANCH   4   5
ATOM      5  N   UNL d   1      46.401 -18.526  42.284  0.00  0.00    -0.299 N 
ATOM      6  C   UNL d   1      46.592 -18.858  43.013  0.00  0.00     0.100 A 
ATOM      7  C   UNL d   1      46.353 -18.485  43.709  0.00  0.00     0.100 A 
ATOM      8  N   UNL d   1      45.925 -17.781  43.674  0.00  0.00    -0.291 N 
ATOM      9  C   UNL d   1      45.732 -17.445  42.945  0.00  0.00     0.100 A 
ATOM     10  C   UNL d   1      45.973 -17.823  42.248  0.00  0.00     0.100 A 
BRANCH   8  11
ATOM     11  C   UNL d   1      45.690 -17.413  44.367  0.00  0.00     0.143 C 
ATOM     12  S   UNL d   1      45.295 -17.842  44.949  0.00  0.00    -0.057 SA
BRANCH  11  13
ATOM     13  C   UNL d   1      45.847 -16.612  44.486  0.00  0.00     0.126 A 
ATOM     14  O   UNL d   1      45.384 -15.980  44.232  0.00  0.00    -0.305 OA
ATOM     15  C   UNL d   1      45.746 -15.275  44.470  0.00  0.00     0.100 A 
ATOM     16  C   UNL d   1      46.439 -15.479  44.876  0.00  0.00     0.027 A 
ATOM     17  C   UNL d   1      46.499 -16.302  44.884  0.00  0.00     0.029 A 
BRANCH  15  18
ATOM     18  C   UNL d   1      45.472 -14.511  44.332  0.00  0.00     0.023 A 
ATOM     19  C   UNL d   1      44.682 -14.332  44.457  0.00  0.00     0.003 A 
ATOM     20  C   UNL d   1      44.405 -13.570  44.321  0.00  0.00     0.011 A 
ATOM     21  C   UNL d   1      44.929 -12.980  44.054  0.00  0.00     0.058 A 
ATOM     22  C   UNL d   1      45.728 -13.167  43.930  0.00  0.00     0.011 A 
ATOM     23 CL   UNL d   1      44.657 -12.214  43.916  0.00  0.00    -0.082 Cl
ATOM     24  C   UNL d   1      45.997 -13.935  44.070  0.00  0.00     0.003 A 
ENDBRANCH  15  18
ENDBRANCH  11  13
ENDBRANCH   8  11
ENDBRANCH   4   5
ENDBRANCH   3   4
TORSDOF 5
ENDMDL
