MODEL 1
REMARK VINA RESULT:      -2.9      0.000      0.000
REMARK  6 active torsions:
REMARK  status: ('A' for Active; 'I' for Inactive)
REMARK    1  A    between atoms: C_3  and  C_1 
REMARK    2  A    between atoms: C_5  and  C_1 
REMARK    3  A    between atoms: C_2  and  C_5 
REMARK    4  A    between atoms: C_4  and  C_2 
REMARK    5  A    between atoms: C_8  and  C_3 
REMARK    6  A    between atoms: C_7  and  C_4 
ROOT
ATOM      1  C   UNL d   1      33.061  19.864 -22.968  0.00  0.00     0.196 C 
ATOM      2  O   UNL d   1      33.241  20.237 -23.692  0.00  0.00    -0.287 OA
ENDROOT
BRANCH   1   3
ATOM      3  C   UNL d   1      33.039  20.302 -22.275  0.00  0.00     0.042 C 
BRANCH   3   4
ATOM      4  C   UNL d   1      32.849  21.105 -22.282  0.00  0.00     0.003 C 
BRANCH   4   5
ATOM      5  C   UNL d   1      32.794  21.565 -21.561  0.00  0.00     0.000 A 
ATOM      6  C   UNL d   1      33.240  22.251 -21.462  0.00  0.00     0.002 A 
ATOM      7  C   UNL d   1      33.182  22.684 -20.773  0.00  0.00     0.030 A 
ATOM      8  C   UNL d   1      32.677  22.432 -20.177  0.00  0.00     0.140 A 
ATOM      9  C   UNL d   1      32.230  21.745 -20.276  0.00  0.00     0.030 A 
ATOM     10  F   UNL d   1      32.610  22.867 -19.467  0.00  0.00    -0.204 F 
ATOM     11  C   UNL d   1      32.276  21.289 -20.973  0.00  0.00     0.002 A 
ENDBRANCH   4   5
ENDBRANCH   3   4
ENDBRANCH   1   3
BRANCH   1  12
ATOM     12  C   UNL d   1      32.905  19.063 -22.946  0.00  0.00     0.042 C 
BRANCH  12  13
ATOM     13  C   UNL d   1      32.678  18.665 -23.633  0.00  0.00     0.003 C 
BRANCH  13  14
ATOM     14  C   UNL d   1      32.444  17.857 -23.584  0.00  0.00     0.000 A 
ATOM     15  C   UNL d   1      31.735  17.633 -23.953  0.00  0.00     0.002 A 
ATOM     16  C   UNL d   1      31.497  16.848 -23.912  0.00  0.00     0.030 A 
ATOM     17  C   UNL d   1      31.966  16.289 -23.505  0.00  0.00     0.140 A 
ATOM     18  C   UNL d   1      32.673  16.531 -23.143  0.00  0.00     0.030 A 
ATOM     19  F   UNL d   1      31.713  15.502 -23.473  0.00  0.00    -0.204 F 
ATOM     20  C   UNL d   1      32.911  17.316 -23.184  0.00  0.00     0.002 A 
ENDBRANCH  13  14
ENDBRANCH  12  13
ENDBRANCH   1  12
TORSDOF 6
ENDMDL
MODEL 2
REMARK VINA RESULT:      -2.8      1.680      2.809
REMARK  6 active torsions:
REMARK  status: ('A' for Active; 'I' for Inactive)
REMARK    1  A    between atoms: C_3  and  C_1 
REMARK    2  A    between atoms: C_5  and  C_1 
REMARK    3  A    between atoms: C_2  and  C_5 
REMARK    4  A    between atoms: C_4  and  C_2 
REMARK    5  A    between atoms: C_8  and  C_3 
REMARK    6  A    between atoms: C_7  and  C_4 
ROOT
ATOM      1  C   UNL d   1      32.624  17.253 -23.647  0.00  0.00     0.196 C 
ATOM      2  O   UNL d   1      33.236  16.811 -23.999  0.00  0.00    -0.287 OA
ENDROOT
BRANCH   1   3
ATOM      3  C   UNL d   1      32.802  17.832 -23.093  0.00  0.00     0.042 C 
BRANCH   3   4
ATOM      4  C   UNL d   1      33.071  18.577 -23.323  0.00  0.00     0.003 C 
BRANCH   4   5
ATOM      5  C   UNL d   1      33.100  19.237 -22.779  0.00  0.00     0.000 A 
ATOM      6  C   UNL d   1      33.214  19.115 -21.971  0.00  0.00     0.002 A 
ATOM      7  C   UNL d   1      33.241  19.750 -21.459  0.00  0.00     0.030 A 
ATOM      8  C   UNL d   1      33.154  20.512 -21.751  0.00  0.00     0.140 A 
ATOM      9  C   UNL d   1      33.040  20.634 -22.559  0.00  0.00     0.030 A 
ATOM     10  F   UNL d   1      33.179  21.168 -21.236  0.00  0.00    -0.204 F 
ATOM     11  C   UNL d   1      33.009  19.998 -23.099  0.00  0.00     0.002 A 
ENDBRANCH   4   5
ENDBRANCH   3   4
ENDBRANCH   1   3
BRANCH   1  12
ATOM     12  C   UNL d   1      31.846  17.113 -23.851  0.00  0.00     0.042 C 
BRANCH  12  13
ATOM     13  C   UNL d   1      31.576  16.340 -23.950  0.00  0.00     0.003 C 
BRANCH  13  14
ATOM     14  C   UNL d   1      30.747  16.190 -23.965  0.00  0.00     0.000 A 
ATOM     15  C   UNL d   1      30.424  15.720 -23.362  0.00  0.00     0.002 A 
ATOM     16  C   UNL d   1      29.617  15.567 -23.367  0.00  0.00     0.030 A 
ATOM     17  C   UNL d   1      29.134  15.883 -23.972  0.00  0.00     0.140 A 
ATOM     18  C   UNL d   1      29.475  16.350 -24.567  0.00  0.00     0.030 A 
ATOM     19  F   UNL d   1      28.323  15.720 -23.963  0.00  0.00    -0.204 F 
ATOM     20  C   UNL d   1      30.283  16.503 -24.562  0.00  0.00     0.002 A 
ENDBRANCH  13  14
ENDBRANCH  12  13
ENDBRANCH   1  12
TORSDOF 6
ENDMDL
MODEL 3
REMARK VINA RESULT:      -1.8      0.966      1.674
REMARK  6 active torsions:
REMARK  status: ('A' for Active; 'I' for Inactive)
REMARK    1  A    between atoms: C_3  and  C_1 
REMARK    2  A    between atoms: C_5  and  C_1 
REMARK    3  A    between atoms: C_2  and  C_5 
REMARK    4  A    between atoms: C_4  and  C_2 
REMARK    5  A    between atoms: C_8  and  C_3 
REMARK    6  A    between atoms: C_7  and  C_4 
ROOT
ATOM      1  C   UNL d   1      32.936  21.458 -22.553  0.00  0.00     0.196 C 
ATOM      2  O   UNL d   1      32.884  21.849 -23.286  0.00  0.00    -0.287 OA
ENDROOT
BRANCH   1   3
ATOM      3  C   UNL d   1      33.098  21.883 -21.871  0.00  0.00     0.042 C 
BRANCH   3   4
ATOM      4  C   UNL d   1      32.492  22.183 -21.398  0.00  0.00     0.003 C 
BRANCH   4   5
ATOM      5  C   UNL d   1      32.645  22.545 -20.638  0.00  0.00     0.000 A 
ATOM      6  C   UNL d   1      32.646  23.365 -20.552  0.00  0.00     0.002 A 
ATOM      7  C   UNL d   1      32.792  23.702 -19.823  0.00  0.00     0.030 A 
ATOM      8  C   UNL d   1      32.940  23.221 -19.175  0.00  0.00     0.140 A 
ATOM      9  C   UNL d   1      32.939  22.401 -19.261  0.00  0.00     0.030 A 
ATOM     10  F   UNL d   1      33.091  23.556 -18.425  0.00  0.00    -0.204 F 
ATOM     11  C   UNL d   1      32.791  22.036 -19.997  0.00  0.00     0.002 A 
ENDBRANCH   4   5
ENDBRANCH   3   4
ENDBRANCH   1   3
BRANCH   1  12
ATOM     12  C   UNL d   1      32.825  20.650 -22.510  0.00  0.00     0.042 C 
BRANCH  12  13
ATOM     13  C   UNL d   1      33.239  20.146 -23.015  0.00  0.00     0.003 C 
BRANCH  13  14
ATOM     14  C   UNL d   1      32.983  19.349 -23.107  0.00  0.00     0.000 A 
ATOM     15  C   UNL d   1      33.241  18.789 -22.551  0.00  0.00     0.002 A 
ATOM     16  C   UNL d   1      32.997  18.009 -22.631  0.00  0.00     0.030 A 
ATOM     17  C   UNL d   1      32.497  17.789 -23.263  0.00  0.00     0.140 A 
ATOM     18  C   UNL d   1      32.249  18.362 -23.809  0.00  0.00     0.030 A 
ATOM     19  F   UNL d   1      32.260  16.999 -23.330  0.00  0.00    -0.204 F 
ATOM     20  C   UNL d   1      32.493  19.143 -23.730  0.00  0.00     0.002 A 
ENDBRANCH  13  14
ENDBRANCH  12  13
ENDBRANCH   1  12
TORSDOF 6
ENDMDL
MODEL 4
REMARK VINA RESULT:      -1.8      3.809      6.018
REMARK  6 active torsions:
REMARK  status: ('A' for Active; 'I' for Inactive)
REMARK    1  A    between atoms: C_3  and  C_1 
REMARK    2  A    between atoms: C_5  and  C_1 
REMARK    3  A    between atoms: C_2  and  C_5 
REMARK    4  A    between atoms: C_4  and  C_2 
REMARK    5  A    between atoms: C_8  and  C_3 
REMARK    6  A    between atoms: C_7  and  C_4 
ROOT
ATOM      1  C   UNL d   1      32.496  22.334 -20.484  0.00  0.00     0.196 C 
ATOM      2  O   UNL d   1      32.480  21.503 -20.422  0.00  0.00    -0.287 OA
ENDROOT
BRANCH   1   3
ATOM      3  C   UNL d   1      32.551  22.690 -21.221  0.00  0.00     0.042 C 
BRANCH   3   4
ATOM      4  C   UNL d   1      32.555  22.241 -21.914  0.00  0.00     0.003 C 
BRANCH   4   5
ATOM      5  C   UNL d   1      32.724  22.588 -22.678  0.00  0.00     0.000 A 
ATOM      6  C   UNL d   1      32.545  23.378 -22.833  0.00  0.00     0.002 A 
ATOM      7  C   UNL d   1      32.709  23.700 -23.565  0.00  0.00     0.030 A 
ATOM      8  C   UNL d   1      33.055  23.236 -24.145  0.00  0.00     0.140 A 
ATOM      9  C   UNL d   1      33.235  22.446 -23.990  0.00  0.00     0.030 A 
ATOM     10  F   UNL d   1      33.228  23.556 -24.897  0.00  0.00    -0.204 F 
ATOM     11  C   UNL d   1      33.075  22.097 -23.249  0.00  0.00     0.002 A 
ENDBRANCH   4   5
ENDBRANCH   3   4
ENDBRANCH   1   3
BRANCH   1  12
ATOM     12  C   UNL d   1      32.458  22.797 -19.812  0.00  0.00     0.042 C 
BRANCH  12  13
ATOM     13  C   UNL d   1      33.109  22.852 -19.308  0.00  0.00     0.003 C 
BRANCH  13  14
ATOM     14  C   UNL d   1      32.985  22.943 -18.480  0.00  0.00     0.000 A 
ATOM     15  C   UNL d   1      33.226  22.325 -17.979  0.00  0.00     0.002 A 
ATOM     16  C   UNL d   1      33.109  22.403 -17.169  0.00  0.00     0.030 A 
ATOM     17  C   UNL d   1      32.755  23.094 -16.862  0.00  0.00     0.140 A 
ATOM     18  C   UNL d   1      32.521  23.701 -17.378  0.00  0.00     0.030 A 
ATOM     19  F   UNL d   1      32.645  23.157 -16.044  0.00  0.00    -0.204 F 
ATOM     20  C   UNL d   1      32.637  23.623 -18.188  0.00  0.00     0.002 A 
ENDBRANCH  13  14
ENDBRANCH  12  13
ENDBRANCH   1  12
TORSDOF 6
ENDMDL
MODEL 5
REMARK VINA RESULT:      -0.4      3.431      5.687
REMARK  6 active torsions:
REMARK  status: ('A' for Active; 'I' for Inactive)
REMARK    1  A    between atoms: C_3  and  C_1 
REMARK    2  A    between atoms: C_5  and  C_1 
REMARK    3  A    between atoms: C_2  and  C_5 
REMARK    4  A    between atoms: C_4  and  C_2 
REMARK    5  A    between atoms: C_8  and  C_3 
REMARK    6  A    between atoms: C_7  and  C_4 
ROOT
ATOM      1  C   UNL d   1      32.014  16.167 -24.312  0.00  0.00     0.196 C 
ATOM      2  O   UNL d   1      32.429  15.454 -24.429  0.00  0.00    -0.287 OA
ENDROOT
BRANCH   1   3
ATOM      3  C   UNL d   1      31.199  16.158 -24.222  0.00  0.00     0.042 C 
BRANCH   3   4
ATOM      4  C   UNL d   1      30.824  15.576 -23.773  0.00  0.00     0.003 C 
BRANCH   4   5
ATOM      5  C   UNL d   1      29.978  15.576 -23.645  0.00  0.00     0.000 A 
ATOM      6  C   UNL d   1      29.454  15.660 -24.277  0.00  0.00     0.002 A 
ATOM      7  C   UNL d   1      28.648  15.659 -24.146  0.00  0.00     0.030 A 
ATOM      8  C   UNL d   1      28.361  15.575 -23.382  0.00  0.00     0.140 A 
ATOM      9  C   UNL d   1      28.885  15.491 -22.750  0.00  0.00     0.030 A 
ATOM     10  F   UNL d   1      27.539  15.573 -23.237  0.00  0.00    -0.204 F 
ATOM     11  C   UNL d   1      29.712  15.489 -22.863  0.00  0.00     0.002 A 
ENDBRANCH   4   5
ENDBRANCH   3   4
ENDBRANCH   1   3
BRANCH   1  12
ATOM     12  C   UNL d   1      32.417  16.877 -24.286  0.00  0.00     0.042 C 
BRANCH  12  13
ATOM     13  C   UNL d   1      32.535  17.313 -24.976  0.00  0.00     0.003 C 
BRANCH  13  14
ATOM     14  C   UNL d   1      32.548  18.155 -24.938  0.00  0.00     0.000 A 
ATOM     15  C   UNL d   1      31.843  18.563 -25.097  0.00  0.00     0.002 A 
ATOM     16  C   UNL d   1      31.844  19.384 -25.062  0.00  0.00     0.030 A 
ATOM     17  C   UNL d   1      32.546  19.794 -24.869  0.00  0.00     0.140 A 
ATOM     18  C   UNL d   1      33.241  19.369 -24.713  0.00  0.00     0.030 A 
ATOM     19  F   UNL d   1      32.530  20.621 -24.838  0.00  0.00    -0.204 F 
ATOM     20  C   UNL d   1      33.240  18.547 -24.748  0.00  0.00     0.002 A 
ENDBRANCH  13  14
ENDBRANCH  12  13
ENDBRANCH   1  12
TORSDOF 6
ENDMDL
