MODEL 1
REMARK VINA RESULT:     101.7      0.000      0.000
REMARK  3 active torsions:
REMARK  status: ('A' for Active; 'I' for Inactive)
REMARK    1  A    between atoms: S_2  and  C_1 
REMARK    2  A    between atoms: C_8  and  S_2 
REMARK    3  A    between atoms: C_20  and  C_13 
ROOT
ATOM      1  C   UNL d   1      61.643  45.456  50.229  0.00  0.00     0.151 A 
ATOM      2  C   UNL d   1      61.771  45.239  49.434  0.00  0.00     0.311 A 
ATOM      3  C   UNL d   1      61.748  44.895  50.822  0.00  0.00     0.019 A 
ATOM      4  O   UNL d   1      62.001  44.467  49.249  0.00  0.00    -0.273 OA
ATOM      5  C   UNL d   1      61.976  44.129  50.644  0.00  0.00     0.024 A 
ATOM      6  C   UNL d   1      62.104  43.912  49.849  0.00  0.00     0.103 A 
ATOM      7  O   UNL d   1      61.667  45.799  48.828  0.00  0.00    -0.258 OA
ATOM      8  C   UNL d   1      62.080  43.573  51.236  0.00  0.00     0.009 A 
ATOM      9  C   UNL d   1      62.333  43.144  49.663  0.00  0.00     0.025 A 
ATOM     10  C   UNL d   1      62.310  42.799  51.060  0.00  0.00     0.035 A 
ATOM     11  C   UNL d   1      62.438  42.582  50.265  0.00  0.00     0.009 A 
ATOM     12 BR   UNL d   1      62.414  42.234  51.668  0.00  0.00    -0.049 Br
ENDROOT
BRANCH   1  13
ATOM     13  S   UNL d   1      61.413  46.229  50.405  0.00  0.00     0.215 S 
ATOM     14  O   UNL d   1      61.959  46.526  49.859  0.00  0.00    -0.217 OA
ATOM     15  O   UNL d   1      60.861  45.935  50.957  0.00  0.00    -0.217 OA
BRANCH  13  16
ATOM     16  C   UNL d   1      61.177  47.001  50.588  0.00  0.00     0.088 A 
ATOM     17  C   UNL d   1      61.559  47.650  50.237  0.00  0.00     0.011 A 
ATOM     18  C   UNL d   1      61.322  48.417  50.421  0.00  0.00     0.001 A 
ATOM     19  C   UNL d   1      60.705  48.548  50.952  0.00  0.00     0.000 A 
ATOM     20  C   UNL d   1      60.323  47.902  51.301  0.00  0.00     0.001 A 
ATOM     21  C   UNL d   1      60.559  47.135  51.119  0.00  0.00     0.011 A 
BRANCH  19  22
ATOM     22  C   UNL d   1      60.470  49.323  51.134  0.00  0.00     0.000 C 
ATOM     23  C   UNL d   1      59.928  49.706  50.658  0.00  0.00     0.000 C 
ATOM     24  C   UNL d   1      60.785  49.702  51.795  0.00  0.00     0.000 C 
ENDBRANCH  19  22
ENDBRANCH  13  16
ENDBRANCH   1  13
TORSDOF 3
ENDMDL
MODEL 2
REMARK VINA RESULT:     103.9      2.710      5.267
REMARK  3 active torsions:
REMARK  status: ('A' for Active; 'I' for Inactive)
REMARK    1  A    between atoms: S_2  and  C_1 
REMARK    2  A    between atoms: C_8  and  S_2 
REMARK    3  A    between atoms: C_20  and  C_13 
ROOT
ATOM      1  C   UNL d   1      59.542  48.184  50.745  0.00  0.00     0.151 A 
ATOM      2  C   UNL d   1      59.707  48.710  51.371  0.00  0.00     0.311 A 
ATOM      3  C   UNL d   1      58.789  48.176  50.413  0.00  0.00     0.019 A 
ATOM      4  O   UNL d   1      59.116  49.216  51.652  0.00  0.00    -0.273 OA
ATOM      5  C   UNL d   1      58.200  48.675  50.688  0.00  0.00     0.024 A 
ATOM      6  C   UNL d   1      58.366  49.201  51.314  0.00  0.00     0.103 A 
ATOM      7  O   UNL d   1      60.466  48.725  51.713  0.00  0.00    -0.258 OA
ATOM      8  C   UNL d   1      57.452  48.665  50.356  0.00  0.00     0.009 A 
ATOM      9  C   UNL d   1      57.779  49.705  51.594  0.00  0.00     0.025 A 
ATOM     10  C   UNL d   1      56.856  49.167  50.630  0.00  0.00     0.035 A 
ATOM     11  C   UNL d   1      57.021  49.693  51.256  0.00  0.00     0.009 A 
ATOM     12 BR   UNL d   1      56.092  49.153  50.288  0.00  0.00    -0.049 Br
ENDROOT
BRANCH   1  13
ATOM     13  S   UNL d   1      60.137  47.682  50.471  0.00  0.00     0.215 S 
ATOM     14  O   UNL d   1      59.691  47.020  50.686  0.00  0.00    -0.217 OA
ATOM     15  O   UNL d   1      60.591  48.347  50.254  0.00  0.00    -0.217 OA
BRANCH  13  16
ATOM     16  C   UNL d   1      60.739  47.187  50.194  0.00  0.00     0.088 A 
ATOM     17  C   UNL d   1      60.795  46.403  50.465  0.00  0.00     0.011 A 
ATOM     18  C   UNL d   1      61.395  45.911  50.188  0.00  0.00     0.001 A 
ATOM     19  C   UNL d   1      61.944  46.192  49.641  0.00  0.00     0.000 A 
ATOM     20  C   UNL d   1      61.890  46.971  49.370  0.00  0.00     0.001 A 
ATOM     21  C   UNL d   1      61.291  47.464  49.646  0.00  0.00     0.011 A 
BRANCH  19  22
ATOM     22  C   UNL d   1      62.547  45.692  49.364  0.00  0.00     0.000 C 
ATOM     23  C   UNL d   1      62.534  44.898  49.549  0.00  0.00     0.000 C 
ATOM     24  C   UNL d   1      63.157  46.003  48.903  0.00  0.00     0.000 C 
ENDBRANCH  19  22
ENDBRANCH  13  16
ENDBRANCH   1  13
TORSDOF 3
ENDMDL
