MODEL 1
REMARK VINA RESULT:      56.1      0.000      0.000
REMARK  7 active torsions:
REMARK  status: ('A' for Active; 'I' for Inactive)
REMARK    1  A    between atoms: C_10  and  C_3 
REMARK    2  A    between atoms: N_12  and  C_4 
REMARK    3  A    between atoms: O_23  and  C_11 
REMARK    4  A    between atoms: C_25  and  N_12 
REMARK    5  A    between atoms: O_26  and  C_13 
REMARK    6  A    between atoms: C_18  and  C_28 
REMARK    7  A    between atoms: C_28  and  C_25 
ROOT
ATOM      1  C   UNL d   1     -54.929-101.279 -42.646  0.00  0.00     0.168 A 
ATOM      2  N   UNL d   1     -54.913-101.926 -42.115  0.00  0.00    -0.184 N 
ATOM      3  C   UNL d   1     -55.005-101.408 -43.431  0.00  0.00     0.057 A 
ATOM      4  C   UNL d   1     -54.837-101.782 -41.337  0.00  0.00     0.218 A 
ATOM      5  N   UNL d   1     -55.052-102.803 -43.199  0.00  0.00    -0.160 NA
ATOM      6  N   UNL d   1     -54.867-100.530 -42.365  0.00  0.00    -0.227 NA
ATOM      7  C   UNL d   1     -54.774-101.027 -41.044  0.00  0.00     0.071 A 
ATOM      8  C   UNL d   1     -55.068-102.176 -43.714  0.00  0.00     0.124 A 
ATOM      9  C   UNL d   1     -54.789-100.390 -41.568  0.00  0.00     0.087 A 
ATOM     10  C   UNL d   1     -54.724 -99.599 -41.270  0.00  0.00     0.021 C 
ENDROOT
BRANCH   4  11
ATOM     11  N   UNL d   1     -54.820-102.433 -40.798  0.00  0.00    -0.380 NA
BRANCH  11  12
ATOM     12  C   UNL d   1     -54.717-102.880 -40.089  0.00  0.00     0.163 C 
BRANCH  12  13
ATOM     13  C   UNL d   1     -55.314-102.845 -39.499  0.00  0.00     0.035 C 
BRANCH  13  14
ATOM     14  C   UNL d   1     -55.177-102.378 -38.810  0.00  0.00     0.005 A 
ATOM     15  C   UNL d   1     -55.282-102.736 -38.041  0.00  0.00     0.026 A 
ATOM     16  C   UNL d   1     -55.145-102.268 -37.338  0.00  0.00     0.116 A 
ATOM     17  C   UNL d   1     -54.905-101.452 -37.415  0.00  0.00     0.116 A 
ATOM     18  C   UNL d   1     -54.806-101.113 -38.175  0.00  0.00     0.026 A 
ATOM     19  C   UNL d   1     -54.944-101.584 -38.876  0.00  0.00     0.002 A 
BRANCH  16  20
ATOM     20  O   UNL d   1     -55.245-102.609 -36.583  0.00  0.00    -0.326 OA
ATOM     21  C   UNL d   1     -54.747-102.378 -35.944  0.00  0.00     0.181 C 
ENDBRANCH  16  20
BRANCH  17  22
ATOM     22  O   UNL d   1     -54.770-100.993 -36.724  0.00  0.00    -0.326 OA
ATOM     23  C   UNL d   1     -55.311-100.380 -36.502  0.00  0.00     0.181 C 
ENDBRANCH  17  22
ENDBRANCH  13  14
ENDBRANCH  12  13
ENDBRANCH  11  12
ENDBRANCH   4  11
BRANCH   3  24
ATOM     24  C   UNL d   1     -55.020-100.781 -43.946  0.00  0.00     0.005 A 
ATOM     25  C   UNL d   1     -54.906-100.905 -44.731  0.00  0.00     0.001 A 
ATOM     26  C   UNL d   1     -54.921-100.277 -45.246  0.00  0.00     0.011 A 
ATOM     27  C   UNL d   1     -55.051 -99.535 -44.969  0.00  0.00     0.058 A 
ATOM     28  C   UNL d   1     -55.165 -99.422 -44.176  0.00  0.00     0.011 A 
ATOM     29 CL   UNL d   1     -55.067 -98.879 -45.508  0.00  0.00    -0.082 Cl
ATOM     30  C   UNL d   1     -55.150-100.039 -43.669  0.00  0.00     0.001 A 
ENDBRANCH   3  24
TORSDOF 7
ENDMDL
