MODEL 1
REMARK VINA RESULT:      12.9      0.000      0.000
REMARK  4 active torsions:
REMARK  status: ('A' for Active; 'I' for Inactive)
REMARK    1  A    between atoms: C_2  and  S_1 
REMARK    2  A    between atoms: C_4  and  S_1 
REMARK    3  A    between atoms: C_3  and  C_2 
REMARK    4  A    between atoms: C_8  and  C_3 
ROOT
ATOM      1  S   UNL d   1      45.739 -16.010  44.714  0.00  0.00     0.214 S 
ATOM      2  O   UNL d   1      44.957 -16.096  44.469  0.00  0.00    -0.217 OA
ATOM      3  O   UNL d   1      46.507 -15.932  44.955  0.00  0.00    -0.217 OA
ENDROOT
BRANCH   1   4
ATOM      4  C   UNL d   1      45.795 -16.821  44.760  0.00  0.00     0.141 C 
BRANCH   4   5
ATOM      5  C   UNL d   1      46.090 -17.243  44.129  0.00  0.00     0.207 C 
ATOM      6  O   UNL d   1      46.226 -16.833  43.454  0.00  0.00    -0.286 OA
BRANCH   5   7
ATOM      7  C   UNL d   1      46.239 -18.052  44.189  0.00  0.00     0.040 A 
ATOM      8  C   UNL d   1      46.379 -18.490  43.503  0.00  0.00     0.003 A 
ATOM      9  C   UNL d   1      46.529 -19.299  43.561  0.00  0.00     0.000 A 
ATOM     10  C   UNL d   1      46.543 -19.686  44.275  0.00  0.00     0.000 A 
ATOM     11  C   UNL d   1      46.403 -19.249  44.955  0.00  0.00     0.000 A 
ATOM     12  C   UNL d   1      46.254 -18.439  44.896  0.00  0.00     0.003 A 
ENDBRANCH   5   7
ENDBRANCH   4   5
ENDBRANCH   1   4
BRANCH   1  13
ATOM     13  C   UNL d   1      45.667 -15.207  44.664  0.00  0.00     0.088 A 
ATOM     14  C   UNL d   1      44.922 -14.863  44.692  0.00  0.00     0.011 A 
ATOM     15  C   UNL d   1      44.815 -14.043  44.644  0.00  0.00     0.001 A 
ATOM     16  C   UNL d   1      45.510 -13.566  44.563  0.00  0.00     0.000 A 
ATOM     17  C   UNL d   1      46.233 -13.910  44.537  0.00  0.00     0.001 A 
ATOM     18  C   UNL d   1      45.448 -12.729  44.510  0.00  0.00     0.000 C 
ATOM     19  C   UNL d   1      46.323 -14.731  44.587  0.00  0.00     0.011 A 
ENDBRANCH   1  13
TORSDOF 4
ENDMDL
MODEL 2
REMARK VINA RESULT:      13.3      0.755      4.278
REMARK  4 active torsions:
REMARK  status: ('A' for Active; 'I' for Inactive)
REMARK    1  A    between atoms: C_2  and  S_1 
REMARK    2  A    between atoms: C_4  and  S_1 
REMARK    3  A    between atoms: C_3  and  C_2 
REMARK    4  A    between atoms: C_8  and  C_3 
ROOT
ATOM      1  S   UNL d   1      46.259 -17.367  44.208  0.00  0.00     0.214 S 
ATOM      2  O   UNL d   1      46.183 -17.727  44.946  0.00  0.00    -0.217 OA
ATOM      3  O   UNL d   1      46.332 -17.007  43.488  0.00  0.00    -0.217 OA
ENDROOT
BRANCH   1   4
ATOM      4  C   UNL d   1      46.195 -16.642  44.576  0.00  0.00     0.141 C 
BRANCH   4   5
ATOM      5  C   UNL d   1      45.523 -16.194  44.475  0.00  0.00     0.207 C 
ATOM      6  O   UNL d   1      44.869 -16.578  44.216  0.00  0.00    -0.286 OA
BRANCH   5   7
ATOM      7  C   UNL d   1      45.522 -15.384  44.633  0.00  0.00     0.040 A 
ATOM      8  C   UNL d   1      44.805 -14.999  44.771  0.00  0.00     0.003 A 
ATOM      9  C   UNL d   1      44.803 -14.190  44.929  0.00  0.00     0.000 A 
ATOM     10  C   UNL d   1      45.486 -13.752  44.955  0.00  0.00     0.000 A 
ATOM     11  C   UNL d   1      46.198 -14.137  44.818  0.00  0.00     0.000 A 
ATOM     12  C   UNL d   1      46.199 -14.948  44.659  0.00  0.00     0.003 A 
ENDBRANCH   5   7
ENDBRANCH   4   5
ENDBRANCH   1   4
BRANCH   1  13
ATOM     13  C   UNL d   1      46.320 -18.092  43.859  0.00  0.00     0.088 A 
ATOM     14  C   UNL d   1      46.312 -18.769  44.324  0.00  0.00     0.011 A 
ATOM     15  C   UNL d   1      46.373 -19.527  43.997  0.00  0.00     0.001 A 
ATOM     16  C   UNL d   1      46.445 -19.580  43.155  0.00  0.00     0.000 A 
ATOM     17  C   UNL d   1      46.452 -18.915  42.709  0.00  0.00     0.001 A 
ATOM     18  C   UNL d   1      46.510 -20.330  42.780  0.00  0.00     0.000 C 
ATOM     19  C   UNL d   1      46.390 -18.165  43.052  0.00  0.00     0.011 A 
ENDBRANCH   1  13
TORSDOF 4
ENDMDL
MODEL 3
REMARK VINA RESULT:      15.4      0.706      4.258
REMARK  4 active torsions:
REMARK  status: ('A' for Active; 'I' for Inactive)
REMARK    1  A    between atoms: C_2  and  S_1 
REMARK    2  A    between atoms: C_4  and  S_1 
REMARK    3  A    between atoms: C_3  and  C_2 
REMARK    4  A    between atoms: C_8  and  C_3 
ROOT
ATOM      1  S   UNL d   1      46.067 -16.587  44.245  0.00  0.00     0.214 S 
ATOM      2  O   UNL d   1      45.811 -16.919  44.955  0.00  0.00    -0.217 OA
ATOM      3  O   UNL d   1      46.317 -16.255  43.552  0.00  0.00    -0.217 OA
ENDROOT
BRANCH   1   4
ATOM      4  C   UNL d   1      45.979 -15.849  44.580  0.00  0.00     0.141 C 
BRANCH   4   5
ATOM      5  C   UNL d   1      45.401 -15.346  44.306  0.00  0.00     0.207 C 
ATOM      6  O   UNL d   1      44.756 -15.685  43.973  0.00  0.00    -0.286 OA
BRANCH   5   7
ATOM      7  C   UNL d   1      45.482 -14.527  44.370  0.00  0.00     0.040 A 
ATOM      8  C   UNL d   1      46.043 -14.215  44.890  0.00  0.00     0.003 A 
ATOM      9  C   UNL d   1      46.125 -13.397  44.955  0.00  0.00     0.000 A 
ATOM     10  C   UNL d   1      45.670 -12.881  44.524  0.00  0.00     0.000 A 
ATOM     11  C   UNL d   1      45.114 -13.193  44.008  0.00  0.00     0.000 A 
ATOM     12  C   UNL d   1      45.032 -14.012  43.943  0.00  0.00     0.003 A 
ENDBRANCH   5   7
ENDBRANCH   4   5
ENDBRANCH   1   4
BRANCH   1  13
ATOM     13  C   UNL d   1      46.148 -17.325  43.928  0.00  0.00     0.088 A 
ATOM     14  C   UNL d   1      46.189 -17.978  44.424  0.00  0.00     0.011 A 
ATOM     15  C   UNL d   1      46.273 -18.748  44.130  0.00  0.00     0.001 A 
ATOM     16  C   UNL d   1      46.315 -18.838  43.289  0.00  0.00     0.000 A 
ATOM     17  C   UNL d   1      46.275 -18.196  42.813  0.00  0.00     0.001 A 
ATOM     18  C   UNL d   1      46.400 -19.602  42.947  0.00  0.00     0.000 C 
ATOM     19  C   UNL d   1      46.191 -17.433  43.122  0.00  0.00     0.011 A 
ENDBRANCH   1  13
TORSDOF 4
ENDMDL
