MODEL 1
REMARK VINA RESULT:      58.8      0.000      0.000
REMARK  6 active torsions:
REMARK  status: ('A' for Active; 'I' for Inactive)
REMARK    1  A    between atoms: C_7  and  C_1 
REMARK    2  A    between atoms: C_6  and  C_2 
REMARK       I    between atoms: N_9  and  C_6 
REMARK    3  A    between atoms: O_16  and  C_7 
REMARK       I    between atoms: C_8  and  N_10 
REMARK    4  A    between atoms: C_14  and  C_8 
REMARK    5  A    between atoms: N_10  and  N_9 
REMARK    6  A    between atoms: C_20  and  O_16 
ROOT
ATOM      1  C   UNL d   1     -50.952  25.509  33.450  0.00  0.00     0.083 A 
ATOM      2  C   UNL d   1     -50.628  26.797  33.455  0.00  0.00     0.141 A 
ATOM      3  C   UNL d   1     -51.261  26.271  33.496  0.00  0.00     0.029 A 
ATOM      4  N   UNL d   1     -49.939  26.369  33.385  0.00  0.00    -0.240 NA
ATOM      5  C   UNL d   1     -50.128  25.564  33.382  0.00  0.00     0.087 A 
ATOM      6  C   UNL d   1     -52.061  26.465  33.569  0.00  0.00     0.002 C 
ATOM      7  C   UNL d   1     -49.602  24.944  33.322  0.00  0.00     0.021 C 
ENDROOT
BRANCH   2   8
ATOM      8  C   UNL d   1     -50.690  27.626  33.481  0.00  0.00     0.314 C 
ATOM      9  N   UNL d   1     -50.036  28.080  33.677  0.00  0.00    -0.101 NA
ATOM     10  O   UNL d   1     -51.409  27.990  33.308  0.00  0.00    -0.262 OA
BRANCH   9  11
ATOM     11  N   UNL d   1     -50.093  28.904  33.704  0.00  0.00    -0.102 NA
ATOM     12  C   UNL d   1     -49.552  29.348  34.137  0.00  0.00     0.297 C 
ATOM     13  O   UNL d   1     -49.620  30.172  34.156  0.00  0.00    -0.264 OA
BRANCH  12  14
ATOM     14  C   UNL d   1     -48.950  28.966  34.545  0.00  0.00     0.059 A 
ATOM     15  C   UNL d   1     -49.143  28.338  35.049  0.00  0.00     0.005 A 
ATOM     16  C   UNL d   1     -48.538  27.948  35.464  0.00  0.00     0.000 A 
ATOM     17  C   UNL d   1     -47.757  28.194  35.367  0.00  0.00     0.000 A 
ATOM     18  C   UNL d   1     -47.572  28.818  34.867  0.00  0.00     0.000 A 
ATOM     19  C   UNL d   1     -48.173  29.206  34.453  0.00  0.00     0.005 A 
ENDBRANCH  12  14
ENDBRANCH   9  11
ENDBRANCH   2   8
BRANCH   1  20
ATOM     20  C   UNL d   1     -51.387  24.805  33.470  0.00  0.00     0.302 C 
ATOM     21  O   UNL d   1     -52.207  24.831  33.553  0.00  0.00    -0.259 OA
BRANCH  20  22
ATOM     22  O   UNL d   1     -51.001  24.075  33.406  0.00  0.00    -0.271 OA
BRANCH  22  23
ATOM     23  C   UNL d   1     -51.436  23.395  33.306  0.00  0.00     0.126 C 
ATOM     24  C   UNL d   1     -52.046  23.210  33.830  0.00  0.00     0.029 C 
ENDBRANCH  22  23
ENDBRANCH  20  22
ENDBRANCH   1  20
TORSDOF 6
ENDMDL
MODEL 2
REMARK VINA RESULT:      61.0      2.476      3.949
REMARK  6 active torsions:
REMARK  status: ('A' for Active; 'I' for Inactive)
REMARK    1  A    between atoms: C_7  and  C_1 
REMARK    2  A    between atoms: C_6  and  C_2 
REMARK       I    between atoms: N_9  and  C_6 
REMARK    3  A    between atoms: O_16  and  C_7 
REMARK       I    between atoms: C_8  and  N_10 
REMARK    4  A    between atoms: C_14  and  C_8 
REMARK    5  A    between atoms: N_10  and  N_9 
REMARK    6  A    between atoms: C_20  and  O_16 
ROOT
ATOM      1  C   UNL d   1     -49.121  28.361  34.211  0.00  0.00     0.083 A 
ATOM      2  C   UNL d   1     -48.540  29.395  34.808  0.00  0.00     0.141 A 
ATOM      3  C   UNL d   1     -48.543  28.573  34.758  0.00  0.00     0.029 A 
ATOM      4  N   UNL d   1     -49.106  29.688  34.301  0.00  0.00    -0.240 NA
ATOM      5  C   UNL d   1     -49.475  29.052  33.923  0.00  0.00     0.087 A 
ATOM      6  C   UNL d   1     -48.058  28.051  35.177  0.00  0.00     0.002 C 
ATOM      7  C   UNL d   1     -50.074  29.099  33.372  0.00  0.00     0.021 C 
ENDROOT
BRANCH   2   8
ATOM      8  C   UNL d   1     -48.040  29.845  35.296  0.00  0.00     0.314 C 
ATOM      9  N   UNL d   1     -47.830  30.608  35.078  0.00  0.00    -0.101 NA
ATOM     10  O   UNL d   1     -47.754  29.524  36.000  0.00  0.00    -0.262 OA
BRANCH   9  11
ATOM     11  N   UNL d   1     -47.333  31.058  35.561  0.00  0.00    -0.102 NA
ATOM     12  C   UNL d   1     -47.158  31.839  35.369  0.00  0.00     0.297 C 
ATOM     13  O   UNL d   1     -46.659  32.280  35.859  0.00  0.00    -0.264 OA
BRANCH  12  14
ATOM     14  C   UNL d   1     -47.481  32.171  34.691  0.00  0.00     0.059 A 
ATOM     15  C   UNL d   1     -48.247  32.483  34.723  0.00  0.00     0.005 A 
ATOM     16  C   UNL d   1     -48.579  32.821  34.039  0.00  0.00     0.000 A 
ATOM     17  C   UNL d   1     -48.138  32.838  33.342  0.00  0.00     0.000 A 
ATOM     18  C   UNL d   1     -47.380  32.528  33.316  0.00  0.00     0.000 A 
ATOM     19  C   UNL d   1     -47.049  32.192  33.996  0.00  0.00     0.005 A 
ENDBRANCH  12  14
ENDBRANCH   9  11
ENDBRANCH   2   8
BRANCH   1  20
ATOM     20  C   UNL d   1     -49.318  27.588  33.985  0.00  0.00     0.302 C 
ATOM     21  O   UNL d   1     -48.892  26.950  34.289  0.00  0.00    -0.259 OA
BRANCH  20  22
ATOM     22  O   UNL d   1     -49.941  27.456  33.456  0.00  0.00    -0.271 OA
BRANCH  22  23
ATOM     23  C   UNL d   1     -50.188  26.696  33.306  0.00  0.00     0.126 C 
ATOM     24  C   UNL d   1     -50.990  26.502  33.350  0.00  0.00     0.029 C 
ENDBRANCH  22  23
ENDBRANCH  20  22
ENDBRANCH   1  20
TORSDOF 6
ENDMDL
