MODEL 1
REMARK VINA RESULT:      -8.5      0.000      0.000
REMARK  6 active torsions:
REMARK  status: ('A' for Active; 'I' for Inactive)
REMARK    1  A    between atoms: C_13  and  N_1 
REMARK    2  A    between atoms: S_9  and  C_2 
REMARK    3  A    between atoms: C_10  and  C_7 
REMARK    4  A    between atoms: C_19  and  S_9 
REMARK    5  A    between atoms: O_23  and  C_10 
REMARK    6  A    between atoms: C_14  and  C_19 
ROOT
ATOM      1  N   UNL d   1      52.645  33.577  53.600  0.00  0.00    -0.254 N 
ATOM      2  C   UNL d   1      52.376  32.869  53.272  0.00  0.00     0.182 A 
ATOM      3  C   UNL d   1      52.196  34.264  53.519  0.00  0.00     0.274 A 
ATOM      4  C   UNL d   1      51.484  34.243  53.112  0.00  0.00     0.104 A 
ATOM      5  N   UNL d   1      51.660  32.850  52.863  0.00  0.00    -0.222 NA
ATOM      6  C   UNL d   1      51.216  33.535  52.783  0.00  0.00     0.095 A 
ATOM      7  S   UNL d   1      50.928  34.826  52.944  0.00  0.00    -0.080 SA
ATOM      8  O   UNL d   1      52.464  34.972  53.848  0.00  0.00    -0.266 OA
ATOM      9  C   UNL d   1      50.495  33.682  52.413  0.00  0.00     0.027 A 
ATOM     10  C   UNL d   1      50.317  34.472  52.510  0.00  0.00     0.037 A 
ENDROOT
BRANCH   2  11
ATOM     11  S   UNL d   1      52.825  32.171  53.351  0.00  0.00    -0.047 SA
BRANCH  11  12
ATOM     12  C   UNL d   1      52.568  31.477  52.989  0.00  0.00     0.063 C 
BRANCH  12  13
ATOM     13  C   UNL d   1      52.863  30.747  53.236  0.00  0.00     0.107 A 
ATOM     14  O   UNL d   1      52.791  30.331  53.950  0.00  0.00    -0.301 OA
ATOM     15  C   UNL d   1      53.207  29.630  53.875  0.00  0.00     0.163 A 
ATOM     16  C   UNL d   1      53.540  29.603  53.118  0.00  0.00     0.032 A 
ATOM     17  C   UNL d   1      53.326  30.295  52.725  0.00  0.00     0.027 A 
BRANCH  15  18
ATOM     18  C   UNL d   1      53.286  29.042  54.451  0.00  0.00     0.319 C 
ATOM     19  O   UNL d   1      53.374  28.251  54.236  0.00  0.00    -0.257 OA
BRANCH  18  20
ATOM     20  O   UNL d   1      53.277  29.255  55.248  0.00  0.00    -0.294 OA
ATOM     21  C   UNL d   1      53.280  28.670  55.831  0.00  0.00     0.185 C 
ENDBRANCH  18  20
ENDBRANCH  15  18
ENDBRANCH  12  13
ENDBRANCH  11  12
ENDBRANCH   2  11
BRANCH   1  22
ATOM     22  C   UNL d   1      53.353  33.600  54.006  0.00  0.00     0.069 A 
ATOM     23  C   UNL d   1      54.065  33.681  53.597  0.00  0.00     0.018 A 
ATOM     24  C   UNL d   1      54.778  33.704  54.011  0.00  0.00     0.002 A 
ATOM     25  C   UNL d   1      54.780  33.647  54.834  0.00  0.00     0.000 A 
ATOM     26  C   UNL d   1      54.068  33.566  55.243  0.00  0.00     0.002 A 
ATOM     27  C   UNL d   1      55.499  33.670  55.259  0.00  0.00     0.000 C 
ATOM     28  C   UNL d   1      53.355  33.543  54.829  0.00  0.00     0.018 A 
ENDBRANCH   1  22
TORSDOF 6
ENDMDL
MODEL 2
REMARK VINA RESULT:      -7.9      1.851      4.631
REMARK  6 active torsions:
REMARK  status: ('A' for Active; 'I' for Inactive)
REMARK    1  A    between atoms: C_13  and  N_1 
REMARK    2  A    between atoms: S_9  and  C_2 
REMARK    3  A    between atoms: C_10  and  C_7 
REMARK    4  A    between atoms: C_19  and  S_9 
REMARK    5  A    between atoms: O_23  and  C_10 
REMARK    6  A    between atoms: C_14  and  C_19 
ROOT
ATOM      1  N   UNL d   1      52.835  33.217  53.623  0.00  0.00    -0.254 N 
ATOM      2  C   UNL d   1      52.130  33.032  53.236  0.00  0.00     0.182 A 
ATOM      3  C   UNL d   1      53.406  32.633  53.738  0.00  0.00     0.274 A 
ATOM      4  C   UNL d   1      53.272  31.869  53.469  0.00  0.00     0.104 A 
ATOM      5  N   UNL d   1      51.997  32.264  52.967  0.00  0.00    -0.222 NA
ATOM      6  C   UNL d   1      52.567  31.684  53.083  0.00  0.00     0.095 A 
ATOM      7  S   UNL d   1      53.727  31.185  53.503  0.00  0.00    -0.080 SA
ATOM      8  O   UNL d   1      54.112  32.818  54.125  0.00  0.00    -0.266 OA
ATOM      9  C   UNL d   1      52.588  30.887  52.879  0.00  0.00     0.027 A 
ATOM     10  C   UNL d   1      53.299  30.579  53.136  0.00  0.00     0.037 A 
ENDROOT
BRANCH   2  11
ATOM     11  S   UNL d   1      51.549  33.618  53.117  0.00  0.00    -0.047 SA
BRANCH  11  12
ATOM     12  C   UNL d   1      50.828  33.414  52.774  0.00  0.00     0.063 C 
BRANCH  12  13
ATOM     13  C   UNL d   1      50.257  33.993  52.636  0.00  0.00     0.107 A 
ATOM     14  O   UNL d   1      49.821  34.477  53.149  0.00  0.00    -0.301 OA
ATOM     15  C   UNL d   1      49.332  34.951  52.693  0.00  0.00     0.163 A 
ATOM     16  C   UNL d   1      49.459  34.767  51.896  0.00  0.00     0.032 A 
ATOM     17  C   UNL d   1      50.032  34.175  51.864  0.00  0.00     0.027 A 
BRANCH  15  18
ATOM     18  C   UNL d   1      48.800  35.518  52.972  0.00  0.00     0.319 C 
ATOM     19  O   UNL d   1      48.980  35.976  53.633  0.00  0.00    -0.257 OA
BRANCH  18  20
ATOM     20  O   UNL d   1      48.081  35.624  52.580  0.00  0.00    -0.294 OA
ATOM     21  C   UNL d   1      47.541  36.184  52.854  0.00  0.00     0.185 C 
ENDBRANCH  18  20
ENDBRANCH  15  18
ENDBRANCH  12  13
ENDBRANCH  11  12
ENDBRANCH   2  11
BRANCH   1  22
ATOM     22  C   UNL d   1      52.971  33.976  53.891  0.00  0.00     0.069 A 
ATOM     23  C   UNL d   1      53.249  34.556  53.375  0.00  0.00     0.018 A 
ATOM     24  C   UNL d   1      53.385  35.322  53.651  0.00  0.00     0.002 A 
ATOM     25  C   UNL d   1      53.243  35.507  54.442  0.00  0.00     0.000 A 
ATOM     26  C   UNL d   1      52.965  34.927  54.958  0.00  0.00     0.002 A 
ATOM     27  C   UNL d   1      53.379  36.281  54.728  0.00  0.00     0.000 C 
ATOM     28  C   UNL d   1      52.829  34.162  54.683  0.00  0.00     0.018 A 
ENDBRANCH   1  22
TORSDOF 6
ENDMDL
MODEL 3
REMARK VINA RESULT:      -7.8      1.428      4.272
REMARK  6 active torsions:
REMARK  status: ('A' for Active; 'I' for Inactive)
REMARK    1  A    between atoms: C_13  and  N_1 
REMARK    2  A    between atoms: S_9  and  C_2 
REMARK    3  A    between atoms: C_10  and  C_7 
REMARK    4  A    between atoms: C_19  and  S_9 
REMARK    5  A    between atoms: O_23  and  C_10 
REMARK    6  A    between atoms: C_14  and  C_19 
ROOT
ATOM      1  N   UNL d   1      53.484  31.696  53.800  0.00  0.00    -0.254 N 
ATOM      2  C   UNL d   1      52.840  31.851  53.309  0.00  0.00     0.182 A 
ATOM      3  C   UNL d   1      53.695  30.917  53.970  0.00  0.00     0.274 A 
ATOM      4  C   UNL d   1      53.263  30.297  53.649  0.00  0.00     0.104 A 
ATOM      5  N   UNL d   1      52.407  31.226  52.988  0.00  0.00    -0.222 NA
ATOM      6  C   UNL d   1      52.618  30.451  53.158  0.00  0.00     0.095 A 
ATOM      7  S   UNL d   1      53.338  29.480  53.717  0.00  0.00    -0.080 SA
ATOM      8  O   UNL d   1      54.340  30.762  54.461  0.00  0.00    -0.266 OA
ATOM      9  C   UNL d   1      52.296  29.730  52.923  0.00  0.00     0.027 A 
ATOM     10  C   UNL d   1      52.736  29.134  53.265  0.00  0.00     0.037 A 
ENDROOT
BRANCH   2  11
ATOM     11  S   UNL d   1      52.623  32.636  53.134  0.00  0.00    -0.047 SA
BRANCH  11  12
ATOM     12  C   UNL d   1      52.055  32.783  52.554  0.00  0.00     0.063 C 
BRANCH  12  13
ATOM     13  C   UNL d   1      51.606  33.475  52.582  0.00  0.00     0.107 A 
ATOM     14  O   UNL d   1      50.877  33.650  52.937  0.00  0.00    -0.301 OA
ATOM     15  C   UNL d   1      50.702  34.434  52.778  0.00  0.00     0.163 A 
ATOM     16  C   UNL d   1      51.317  34.753  52.325  0.00  0.00     0.032 A 
ATOM     17  C   UNL d   1      51.874  34.157  52.205  0.00  0.00     0.027 A 
BRANCH  15  18
ATOM     18  C   UNL d   1      50.029  34.847  53.024  0.00  0.00     0.319 C 
ATOM     19  O   UNL d   1      50.042  35.302  53.711  0.00  0.00    -0.257 OA
BRANCH  18  20
ATOM     20  O   UNL d   1      49.340  34.799  52.573  0.00  0.00    -0.294 OA
ATOM     21  C   UNL d   1      48.680  35.251  52.780  0.00  0.00     0.185 C 
ENDBRANCH  18  20
ENDBRANCH  15  18
ENDBRANCH  12  13
ENDBRANCH  11  12
ENDBRANCH   2  11
BRANCH   1  22
ATOM     22  C   UNL d   1      53.916  32.311  54.120  0.00  0.00     0.069 A 
ATOM     23  C   UNL d   1      54.546  32.639  53.700  0.00  0.00     0.018 A 
ATOM     24  C   UNL d   1      54.979  33.261  54.028  0.00  0.00     0.002 A 
ATOM     25  C   UNL d   1      54.783  33.554  54.773  0.00  0.00     0.000 A 
ATOM     26  C   UNL d   1      54.153  33.226  55.192  0.00  0.00     0.002 A 
ATOM     27  C   UNL d   1      55.218  34.184  55.109  0.00  0.00     0.000 C 
ATOM     28  C   UNL d   1      53.720  32.605  54.865  0.00  0.00     0.018 A 
ENDBRANCH   1  22
TORSDOF 6
ENDMDL
MODEL 4
REMARK VINA RESULT:      -7.7      0.990      2.753
REMARK  6 active torsions:
REMARK  status: ('A' for Active; 'I' for Inactive)
REMARK    1  A    between atoms: C_13  and  N_1 
REMARK    2  A    between atoms: S_9  and  C_2 
REMARK    3  A    between atoms: C_10  and  C_7 
REMARK    4  A    between atoms: C_19  and  S_9 
REMARK    5  A    between atoms: O_23  and  C_10 
REMARK    6  A    between atoms: C_14  and  C_19 
ROOT
ATOM      1  N   UNL d   1      52.887  33.811  53.826  0.00  0.00    -0.254 N 
ATOM      2  C   UNL d   1      53.294  33.095  53.789  0.00  0.00     0.182 A 
ATOM      3  C   UNL d   1      53.180  34.429  54.288  0.00  0.00     0.274 A 
ATOM      4  C   UNL d   1      53.878  34.330  54.709  0.00  0.00     0.104 A 
ATOM      5  N   UNL d   1      53.995  32.998  54.214  0.00  0.00    -0.222 NA
ATOM      6  C   UNL d   1      54.285  33.613  54.672  0.00  0.00     0.095 A 
ATOM      7  S   UNL d   1      54.297  34.833  55.206  0.00  0.00    -0.080 SA
ATOM      8  O   UNL d   1      52.772  35.145  54.325  0.00  0.00    -0.266 OA
ATOM      9  C   UNL d   1      54.956  33.676  55.146  0.00  0.00     0.027 A 
ATOM     10  C   UNL d   1      54.965  34.423  55.474  0.00  0.00     0.037 A 
ENDROOT
BRANCH   2  11
ATOM     11  S   UNL d   1      53.002  32.468  53.324  0.00  0.00    -0.047 SA
BRANCH  11  12
ATOM     12  C   UNL d   1      53.514  31.870  53.080  0.00  0.00     0.063 C 
BRANCH  12  13
ATOM     13  C   UNL d   1      53.291  31.079  53.157  0.00  0.00     0.107 A 
ATOM     14  O   UNL d   1      53.366  30.539  53.782  0.00  0.00    -0.301 OA
ATOM     15  C   UNL d   1      53.041  29.827  53.539  0.00  0.00     0.163 A 
ATOM     16  C   UNL d   1      52.763  29.917  52.765  0.00  0.00     0.032 A 
ATOM     17  C   UNL d   1      52.919  30.692  52.531  0.00  0.00     0.027 A 
BRANCH  15  18
ATOM     18  C   UNL d   1      52.995  29.131  53.984  0.00  0.00     0.319 C 
ATOM     19  O   UNL d   1      52.615  28.465  53.683  0.00  0.00    -0.257 OA
BRANCH  18  20
ATOM     20  O   UNL d   1      53.334  29.110  54.735  0.00  0.00    -0.294 OA
ATOM     21  C   UNL d   1      53.355  28.401  55.158  0.00  0.00     0.185 C 
ENDBRANCH  18  20
ENDBRANCH  15  18
ENDBRANCH  12  13
ENDBRANCH  11  12
ENDBRANCH   2  11
BRANCH   1  22
ATOM     22  C   UNL d   1      52.193  33.913  53.408  0.00  0.00     0.069 A 
ATOM     23  C   UNL d   1      52.207  34.239  52.650  0.00  0.00     0.018 A 
ATOM     24  C   UNL d   1      51.504  34.339  52.231  0.00  0.00     0.002 A 
ATOM     25  C   UNL d   1      50.786  34.114  52.569  0.00  0.00     0.000 A 
ATOM     26  C   UNL d   1      50.772  33.788  53.327  0.00  0.00     0.002 A 
ATOM     27  C   UNL d   1      50.069  34.213  52.149  0.00  0.00     0.000 C 
ATOM     28  C   UNL d   1      51.474  33.687  53.745  0.00  0.00     0.018 A 
ENDBRANCH   1  22
TORSDOF 6
ENDMDL
MODEL 5
REMARK VINA RESULT:      -6.3      1.616      4.649
REMARK  6 active torsions:
REMARK  status: ('A' for Active; 'I' for Inactive)
REMARK    1  A    between atoms: C_13  and  N_1 
REMARK    2  A    between atoms: S_9  and  C_2 
REMARK    3  A    between atoms: C_10  and  C_7 
REMARK    4  A    between atoms: C_19  and  S_9 
REMARK    5  A    between atoms: O_23  and  C_10 
REMARK    6  A    between atoms: C_14  and  C_19 
ROOT
ATOM      1  N   UNL d   1      53.411  32.670  53.984  0.00  0.00    -0.254 N 
ATOM      2  C   UNL d   1      53.052  33.382  53.773  0.00  0.00     0.182 A 
ATOM      3  C   UNL d   1      54.017  32.664  54.543  0.00  0.00     0.274 A 
ATOM      4  C   UNL d   1      54.263  33.367  54.888  0.00  0.00     0.104 A 
ATOM      5  N   UNL d   1      53.300  34.087  54.121  0.00  0.00    -0.222 NA
ATOM      6  C   UNL d   1      53.904  34.079  54.677  0.00  0.00     0.095 A 
ATOM      7  S   UNL d   1      54.841  33.533  55.450  0.00  0.00    -0.080 SA
ATOM      8  O   UNL d   1      54.376  31.952  54.754  0.00  0.00    -0.266 OA
ATOM      9  C   UNL d   1      54.261  34.684  55.108  0.00  0.00     0.027 A 
ATOM     10  C   UNL d   1      54.835  34.350  55.582  0.00  0.00     0.037 A 
ENDROOT
BRANCH   2  11
ATOM     11  S   UNL d   1      52.439  33.393  53.208  0.00  0.00    -0.047 SA
BRANCH  11  12
ATOM     12  C   UNL d   1      52.242  34.101  52.834  0.00  0.00     0.063 C 
BRANCH  12  13
ATOM     13  C   UNL d   1      51.476  34.221  52.553  0.00  0.00     0.107 A 
ATOM     14  O   UNL d   1      50.790  34.512  52.916  0.00  0.00    -0.301 OA
ATOM     15  C   UNL d   1      50.188  34.506  52.360  0.00  0.00     0.163 A 
ATOM     16  C   UNL d   1      50.493  34.212  51.649  0.00  0.00     0.032 A 
ATOM     17  C   UNL d   1      51.289  34.037  51.771  0.00  0.00     0.027 A 
BRANCH  15  18
ATOM     18  C   UNL d   1      49.407  34.749  52.479  0.00  0.00     0.319 C 
ATOM     19  O   UNL d   1      48.814  34.530  51.951  0.00  0.00    -0.257 OA
BRANCH  18  20
ATOM     20  O   UNL d   1      49.225  35.217  53.134  0.00  0.00    -0.294 OA
ATOM     21  C   UNL d   1      48.489  35.587  53.184  0.00  0.00     0.185 C 
ENDBRANCH  18  20
ENDBRANCH  15  18
ENDBRANCH  12  13
ENDBRANCH  11  12
ENDBRANCH   2  11
BRANCH   1  22
ATOM     22  C   UNL d   1      53.168  31.969  53.642  0.00  0.00     0.069 A 
ATOM     23  C   UNL d   1      52.522  31.557  53.949  0.00  0.00     0.018 A 
ATOM     24  C   UNL d   1      52.281  30.850  53.600  0.00  0.00     0.002 A 
ATOM     25  C   UNL d   1      52.684  30.553  52.945  0.00  0.00     0.000 A 
ATOM     26  C   UNL d   1      53.330  30.965  52.638  0.00  0.00     0.002 A 
ATOM     27  C   UNL d   1      52.444  29.837  52.587  0.00  0.00     0.000 C 
ATOM     28  C   UNL d   1      53.572  31.672  52.986  0.00  0.00     0.018 A 
ENDBRANCH   1  22
TORSDOF 6
ENDMDL
