MODEL 1
REMARK VINA RESULT:      18.1      0.000      0.000
REMARK  7 active torsions:
REMARK  status: ('A' for Active; 'I' for Inactive)
REMARK    1  A    between atoms: C_4  and  S_1 
REMARK    2  A    between atoms: N_6  and  S_1 
REMARK    3  A    between atoms: N_3  and  C_2 
REMARK    4  A    between atoms: C_15  and  N_6 
REMARK    5  A    between atoms: C_16  and  N_6 
REMARK    6  A    between atoms: C_18  and  C_15 
REMARK    7  A    between atoms: C_17  and  C_16 
ROOT
ATOM      1  C   UNL d   1      13.484  13.550  -3.760  0.00  0.00     0.138 A 
ATOM      2  C   UNL d   1      13.872  12.637  -2.731  0.00  0.00     0.106 A 
ATOM      3  C   UNL d   1      13.846  13.404  -3.033  0.00  0.00     0.037 A 
ATOM      4  C   UNL d   1      13.149  12.929  -4.185  0.00  0.00     0.080 A 
ATOM      5  C   UNL d   1      13.536  12.014  -3.158  0.00  0.00     0.014 A 
ATOM      6  C   UNL d   1      13.175  12.160  -3.885  0.00  0.00     0.014 A 
ATOM      7 CL   UNL d   1      12.788  13.075  -4.912  0.00  0.00    -0.081 Cl
ENDROOT
BRANCH   2   8
ATOM      8  S   UNL d   1      14.234  12.491  -2.004  0.00  0.00     0.271 S 
ATOM      9  O   UNL d   1      14.548  11.789  -2.301  0.00  0.00    -0.200 OA
ATOM     10  O   UNL d   1      13.920  13.194  -1.707  0.00  0.00    -0.200 OA
BRANCH   8  11
ATOM     11  N   UNL d   1      14.595  12.345  -1.277  0.00  0.00    -0.229 N 
BRANCH  11  12
ATOM     12  C   UNL d   1      14.278  11.779  -0.766  0.00  0.00     0.092 C 
BRANCH  12  13
ATOM     13  C   UNL d   1      13.774  12.013  -0.154  0.00  0.00     0.020 C 
ATOM     14  C   UNL d   1      12.979  11.793  -0.165  0.00  0.00     0.002 C 
ENDBRANCH  12  13
ENDBRANCH  11  12
BRANCH  11  15
ATOM     15  C   UNL d   1      15.271  12.764  -1.062  0.00  0.00     0.092 C 
BRANCH  15  16
ATOM     16  C   UNL d   1      15.438  12.896  -0.264  0.00  0.00     0.020 C 
ATOM     17  C   UNL d   1      15.788  13.613  -0.025  0.00  0.00     0.002 C 
ENDBRANCH  15  16
ENDBRANCH  11  15
ENDBRANCH   8  11
ENDBRANCH   2   8
BRANCH   1  18
ATOM     18  N   UNL d   1      13.460  14.324  -4.060  0.00  0.00    -0.113 N 
ATOM     19  O   UNL d   1      14.105  14.630  -4.468  0.00  0.00    -0.532 OA
ATOM     20  O   UNL d   1      12.785  14.785  -3.946  0.00  0.00    -0.532 OA
ENDBRANCH   1  18
TORSDOF 7
ENDMDL
