MODEL 1
REMARK VINA RESULT:      78.5      0.000      0.000
REMARK  3 active torsions:
REMARK  status: ('A' for Active; 'I' for Inactive)
REMARK    1  A    between atoms: N_5  and  S_1 
REMARK    2  A    between atoms: C_6  and  S_1 
REMARK    3  A    between atoms: C_2  and  C_13 
ROOT
ATOM      1  N   UNL d   1     -49.280  28.077  34.493  0.00  0.00    -0.229 N 
ATOM      2  C   UNL d   1     -50.369  26.584  34.076  0.00  0.00     0.039 A 
ATOM      3  C   UNL d   1     -49.720  27.604  35.187  0.00  0.00     0.092 A 
ATOM      4  C   UNL d   1     -49.386  27.802  33.588  0.00  0.00     0.092 A 
ATOM      5  C   UNL d   1     -50.267  26.854  34.979  0.00  0.00     0.023 A 
ATOM      6  C   UNL d   1     -49.929  27.057  33.382  0.00  0.00     0.023 A 
ENDROOT
BRANCH   1   7
ATOM      7  S   UNL d   1     -48.785  28.755  34.679  0.00  0.00     0.271 S 
ATOM      8  O   UNL d   1     -48.763  28.528  35.471  0.00  0.00    -0.200 OA
ATOM      9  O   UNL d   1     -48.807  28.984  33.886  0.00  0.00    -0.200 OA
BRANCH   7  10
ATOM     10  C   UNL d   1     -48.311  29.408  34.853  0.00  0.00     0.106 A 
ATOM     11  C   UNL d   1     -48.546  30.161  34.592  0.00  0.00     0.040 A 
ATOM     12  C   UNL d   1     -48.070  30.802  34.769  0.00  0.00     0.123 A 
ATOM     13  O   UNL d   1     -48.288  31.561  34.517  0.00  0.00    -0.301 OA
ATOM     14  C   UNL d   1     -47.364  30.708  35.200  0.00  0.00     0.123 A 
ATOM     15  C   UNL d   1     -47.818  32.433  34.653  0.00  0.00     0.149 A 
ATOM     16  C   UNL d   1     -46.973  32.225  35.185  0.00  0.00     0.149 A 
ATOM     17  O   UNL d   1     -46.894  31.354  35.372  0.00  0.00    -0.301 OA
ATOM     18  C   UNL d   1     -47.148  29.941  35.451  0.00  0.00     0.028 A 
ATOM     19  C   UNL d   1     -47.616  29.298  35.280  0.00  0.00     0.015 A 
ENDBRANCH   7  10
ENDBRANCH   1   7
BRANCH   2  20
ATOM     20  C   UNL d   1     -50.916  25.833  33.868  0.00  0.00     0.163 A 
ATOM     21  N   UNL d   1     -50.654  25.099  33.769  0.00  0.00    -0.225 NA
ATOM     22  C   UNL d   1     -51.273  24.643  33.606  0.00  0.00     0.101 A 
ATOM     23  C   UNL d   1     -51.316  23.865  33.459  0.00  0.00     0.021 A 
ATOM     24  C   UNL d   1     -51.917  25.093  33.603  0.00  0.00     0.101 A 
ATOM     25  C   UNL d   1     -52.026  23.553  33.309  0.00  0.00     0.002 A 
ATOM     26  C   UNL d   1     -52.675  24.002  33.306  0.00  0.00     0.002 A 
ATOM     27  C   UNL d   1     -52.614  24.763  33.452  0.00  0.00     0.021 A 
ATOM     28  N   UNL d   1     -51.698  25.831  33.765  0.00  0.00    -0.225 NA
ENDBRANCH   2  20
TORSDOF 3
ENDMDL
