MODEL 1
REMARK VINA RESULT:      78.5      0.000      0.000
REMARK  4 active torsions:
REMARK  status: ('A' for Active; 'I' for Inactive)
REMARK    1  A    between atoms: C_8  and  N_1 
REMARK    2  A    between atoms: C_7  and  C_2 
REMARK    3  A    between atoms: C_9  and  C_7 
REMARK    4  A    between atoms: C_17  and  C_8 
ROOT
ATOM      1  N   UNL d   1      56.778  39.424  55.041  0.00  0.00    -0.224 N 
ATOM      2  C   UNL d   1      58.020  39.549  55.728  0.00  0.00     0.117 A 
ATOM      3  C   UNL d   1      57.315  39.889  55.457  0.00  0.00     0.273 A 
ATOM      4  C   UNL d   1      56.936  38.641  54.898  0.00  0.00     0.359 A 
ATOM      5  N   UNL d   1      57.633  38.313  55.169  0.00  0.00    -0.153 NA
ATOM      6  C   UNL d   1      58.178  38.766  55.585  0.00  0.00     0.288 A 
ATOM      7  O   UNL d   1      56.404  38.176  54.485  0.00  0.00    -0.244 OA
ATOM      8  O   UNL d   1      57.157  40.675  55.601  0.00  0.00    -0.266 OA
ATOM      9  O   UNL d   1      58.874  38.424  55.851  0.00  0.00    -0.265 OA
ENDROOT
BRANCH   1  10
ATOM     10  C   UNL d   1      56.076  39.764  54.771  0.00  0.00     0.087 C 
BRANCH  10  11
ATOM     11  C   UNL d   1      56.063  40.134  54.032  0.00  0.00     0.018 A 
ATOM     12  C   UNL d   1      56.047  40.944  53.980  0.00  0.00     0.002 A 
ATOM     13  C   UNL d   1      56.034  41.315  53.241  0.00  0.00     0.000 A 
ATOM     14  C   UNL d   1      56.036  40.852  52.556  0.00  0.00     0.000 A 
ATOM     15  C   UNL d   1      56.052  40.042  52.608  0.00  0.00     0.000 A 
ATOM     16  C   UNL d   1      56.065  39.672  53.347  0.00  0.00     0.002 A 
ENDBRANCH  10  11
ENDBRANCH   1  10
BRANCH   2  17
ATOM     17  C   UNL d   1      58.570  40.015  56.151  0.00  0.00     0.034 C 
BRANCH  17  18
ATOM     18  C   UNL d   1      59.284  40.210  55.811  0.00  0.00     0.100 A 
ATOM     19  O   UNL d   1      59.504  40.392  55.037  0.00  0.00    -0.305 OA
ATOM     20  C   UNL d   1      60.295  40.539  55.033  0.00  0.00     0.123 A 
ATOM     21  C   UNL d   1      60.591  40.457  55.780  0.00  0.00     0.029 A 
ATOM     22  C   UNL d   1      59.967  40.252  56.271  0.00  0.00     0.027 A 
ENDBRANCH  17  18
ENDBRANCH   2  17
TORSDOF 4
ENDMDL
