MODEL 1
REMARK VINA RESULT:      -6.8      0.000      0.000
REMARK  7 active torsions:
REMARK  status: ('A' for Active; 'I' for Inactive)
REMARK       I    between atoms: C_3  and  N_1 
REMARK    1  A    between atoms: C_4  and  N_2 
REMARK    2  A    between atoms: C_15  and  C_3 
REMARK    3  A    between atoms: C_12  and  C_4 
REMARK    4  A    between atoms: C_13  and  C_4 
REMARK    5  A    between atoms: C_5  and  C_17 
REMARK    6  A    between atoms: C_16  and  C_15 
REMARK    7  A    between atoms: C_17  and  C_16 
ROOT
ATOM      1  N   UNL d   1     -46.709  13.180  22.921  0.00  0.00    -0.269 N 
ATOM      2  N   UNL d   1     -48.352  13.463  22.951  0.00  0.00    -0.301 N 
ATOM      3  C   UNL d   1     -45.896  13.040  22.898  0.00  0.00     0.265 C 
ATOM      4  C   UNL d   1     -47.131  13.275  22.207  0.00  0.00     0.102 A 
ATOM      5  C   UNL d   1     -47.118  13.228  23.646  0.00  0.00     0.102 A 
ATOM      6  C   UNL d   1     -47.936  13.370  23.658  0.00  0.00     0.100 A 
ATOM      7  C   UNL d   1     -47.961  13.418  22.219  0.00  0.00     0.100 A 
ATOM      8  O   UNL d   1     -45.492  12.949  23.604  0.00  0.00    -0.267 OA
ENDROOT
BRANCH   2   9
ATOM      9  C   UNL d   1     -49.165  13.603  22.963  0.00  0.00     0.064 C 
BRANCH   9  10
ATOM     10  C   UNL d   1     -49.458  14.384  22.970  0.00  0.00     0.016 A 
ATOM     11  C   UNL d   1     -49.583  14.778  22.256  0.00  0.00     0.001 A 
ATOM     12  C   UNL d   1     -49.872  15.546  22.276  0.00  0.00     0.000 A 
ATOM     13  C   UNL d   1     -50.036  15.922  22.991  0.00  0.00     0.000 A 
ATOM     14  C   UNL d   1     -49.908  15.519  23.698  0.00  0.00     0.000 A 
ATOM     15  C   UNL d   1     -49.617  14.743  23.695  0.00  0.00     0.001 A 
ENDBRANCH   9  10
BRANCH   9  16
ATOM     16  C   UNL d   1     -49.690  12.969  22.968  0.00  0.00     0.016 A 
ATOM     17  C   UNL d   1     -49.955  12.650  22.262  0.00  0.00     0.001 A 
ATOM     18  C   UNL d   1     -50.481  12.015  22.259  0.00  0.00     0.000 A 
ATOM     19  C   UNL d   1     -50.742  11.699  22.982  0.00  0.00     0.000 A 
ATOM     20  C   UNL d   1     -50.473  12.024  23.698  0.00  0.00     0.000 A 
ATOM     21  C   UNL d   1     -49.949  12.656  23.686  0.00  0.00     0.001 A 
ENDBRANCH   9  16
ENDBRANCH   2   9
BRANCH   3  22
ATOM     22  C   UNL d   1     -45.505  12.995  22.183  0.00  0.00     0.061 C 
BRANCH  22  23
ATOM     23  C   UNL d   1     -44.689  12.919  22.172  0.00  0.00     0.011 C 
BRANCH  23  24
ATOM     24  C   UNL d   1     -44.291  12.882  21.457  0.00  0.00     0.070 C 
BRANCH  24  25
ATOM     25  C   UNL d   1     -43.474  12.827  21.446  0.00  0.00     0.211 C 
ATOM     26  O   UNL d   1     -43.022  13.486  21.298  0.00  0.00    -0.644 OA
ATOM     27  O   UNL d   1     -43.111  12.096  21.586  0.00  0.00    -0.644 OA
ENDBRANCH  24  25
ENDBRANCH  23  24
ENDBRANCH  22  23
ENDBRANCH   3  22
TORSDOF 7
ENDMDL
MODEL 2
REMARK VINA RESULT:      -4.7      3.548      8.043
REMARK  7 active torsions:
REMARK  status: ('A' for Active; 'I' for Inactive)
REMARK       I    between atoms: C_3  and  N_1 
REMARK    1  A    between atoms: C_4  and  N_2 
REMARK    2  A    between atoms: C_15  and  C_3 
REMARK    3  A    between atoms: C_12  and  C_4 
REMARK    4  A    between atoms: C_13  and  C_4 
REMARK    5  A    between atoms: C_5  and  C_17 
REMARK    6  A    between atoms: C_16  and  C_15 
REMARK    7  A    between atoms: C_17  and  C_16 
ROOT
ATOM      1  N   UNL d   1     -42.666  13.354  21.273  0.00  0.00    -0.269 N 
ATOM      2  N   UNL d   1     -41.293  14.167  20.789  0.00  0.00    -0.301 N 
ATOM      3  C   UNL d   1     -43.350  12.959  21.512  0.00  0.00     0.265 C 
ATOM      4  C   UNL d   1     -42.693  14.177  21.138  0.00  0.00     0.102 A 
ATOM      5  C   UNL d   1     -41.948  12.945  21.163  0.00  0.00     0.102 A 
ATOM      6  C   UNL d   1     -41.265  13.352  20.922  0.00  0.00     0.100 A 
ATOM      7  C   UNL d   1     -42.000  14.590  20.893  0.00  0.00     0.100 A 
ATOM      8  O   UNL d   1     -43.313  12.150  21.642  0.00  0.00    -0.267 OA
ENDROOT
BRANCH   2   9
ATOM      9  C   UNL d   1     -40.616  14.572  20.550  0.00  0.00     0.064 C 
BRANCH   9  10
ATOM     10  C   UNL d   1     -40.457  14.687  19.739  0.00  0.00     0.016 A 
ATOM     11  C   UNL d   1     -40.689  15.389  19.375  0.00  0.00     0.001 A 
ATOM     12  C   UNL d   1     -40.527  15.490  18.577  0.00  0.00     0.000 A 
ATOM     13  C   UNL d   1     -40.141  14.905  18.142  0.00  0.00     0.000 A 
ATOM     14  C   UNL d   1     -39.914  14.207  18.516  0.00  0.00     0.000 A 
ATOM     15  C   UNL d   1     -40.070  14.090  19.321  0.00  0.00     0.001 A 
ENDBRANCH   9  10
BRANCH   9  16
ATOM     16  C   UNL d   1     -40.092  14.865  21.114  0.00  0.00     0.016 A 
ATOM     17  C   UNL d   1     -40.191  15.621  21.411  0.00  0.00     0.001 A 
ATOM     18  C   UNL d   1     -39.670  15.921  21.977  0.00  0.00     0.000 A 
ATOM     19  C   UNL d   1     -39.042  15.448  22.244  0.00  0.00     0.000 A 
ATOM     20  C   UNL d   1     -38.943  14.680  21.942  0.00  0.00     0.000 A 
ATOM     21  C   UNL d   1     -39.469  14.394  21.379  0.00  0.00     0.001 A 
ENDBRANCH   9  16
ENDBRANCH   2   9
BRANCH   3  22
ATOM     22  C   UNL d   1     -44.049  13.367  21.616  0.00  0.00     0.061 C 
BRANCH  22  23
ATOM     23  C   UNL d   1     -44.683  12.999  21.981  0.00  0.00     0.011 C 
BRANCH  23  24
ATOM     24  C   UNL d   1     -45.335  13.437  22.210  0.00  0.00     0.070 C 
BRANCH  24  25
ATOM     25  C   UNL d   1     -45.953  13.076  22.607  0.00  0.00     0.211 C 
ATOM     26  O   UNL d   1     -45.856  12.826  23.374  0.00  0.00    -0.644 OA
ATOM     27  O   UNL d   1     -46.679  12.966  22.222  0.00  0.00    -0.644 OA
ENDBRANCH  24  25
ENDBRANCH  23  24
ENDBRANCH  22  23
ENDBRANCH   3  22
TORSDOF 7
ENDMDL
MODEL 3
REMARK VINA RESULT:      -4.6      3.548      7.994
REMARK  7 active torsions:
REMARK  status: ('A' for Active; 'I' for Inactive)
REMARK       I    between atoms: C_3  and  N_1 
REMARK    1  A    between atoms: C_4  and  N_2 
REMARK    2  A    between atoms: C_15  and  C_3 
REMARK    3  A    between atoms: C_12  and  C_4 
REMARK    4  A    between atoms: C_13  and  C_4 
REMARK    5  A    between atoms: C_5  and  C_17 
REMARK    6  A    between atoms: C_16  and  C_15 
REMARK    7  A    between atoms: C_17  and  C_16 
ROOT
ATOM      1  N   UNL d   1     -42.668  13.355  21.274  0.00  0.00    -0.269 N 
ATOM      2  N   UNL d   1     -41.294  14.173  20.803  0.00  0.00    -0.301 N 
ATOM      3  C   UNL d   1     -43.352  12.958  21.506  0.00  0.00     0.265 C 
ATOM      4  C   UNL d   1     -42.695  14.179  21.144  0.00  0.00     0.102 A 
ATOM      5  C   UNL d   1     -41.948  12.948  21.166  0.00  0.00     0.102 A 
ATOM      6  C   UNL d   1     -41.265  13.358  20.931  0.00  0.00     0.100 A 
ATOM      7  C   UNL d   1     -42.001  14.595  20.906  0.00  0.00     0.100 A 
ATOM      8  O   UNL d   1     -43.315  12.149  21.631  0.00  0.00    -0.267 OA
ENDROOT
BRANCH   2   9
ATOM      9  C   UNL d   1     -40.615  14.580  20.570  0.00  0.00     0.064 C 
BRANCH   9  10
ATOM     10  C   UNL d   1     -40.085  14.878  21.142  0.00  0.00     0.016 A 
ATOM     11  C   UNL d   1     -40.192  15.640  21.437  0.00  0.00     0.001 A 
ATOM     12  C   UNL d   1     -39.664  15.922  21.999  0.00  0.00     0.000 A 
ATOM     13  C   UNL d   1     -39.037  15.458  22.266  0.00  0.00     0.000 A 
ATOM     14  C   UNL d   1     -38.939  14.698  21.963  0.00  0.00     0.000 A 
ATOM     15  C   UNL d   1     -39.464  14.399  21.396  0.00  0.00     0.001 A 
ENDBRANCH   9  10
BRANCH   9  16
ATOM     16  C   UNL d   1     -40.459  14.694  19.770  0.00  0.00     0.016 A 
ATOM     17  C   UNL d   1     -40.080  14.111  19.339  0.00  0.00     0.001 A 
ATOM     18  C   UNL d   1     -39.920  14.218  18.536  0.00  0.00     0.000 A 
ATOM     19  C   UNL d   1     -40.150  14.926  18.166  0.00  0.00     0.000 A 
ATOM     20  C   UNL d   1     -40.535  15.517  18.605  0.00  0.00     0.000 A 
ATOM     21  C   UNL d   1     -40.687  15.397  19.403  0.00  0.00     0.001 A 
ENDBRANCH   9  16
ENDBRANCH   2   9
BRANCH   3  22
ATOM     22  C   UNL d   1     -44.052  13.364  21.610  0.00  0.00     0.061 C 
BRANCH  22  23
ATOM     23  C   UNL d   1     -44.683  12.998  21.981  0.00  0.00     0.011 C 
BRANCH  23  24
ATOM     24  C   UNL d   1     -45.330  13.439  22.221  0.00  0.00     0.070 C 
BRANCH  24  25
ATOM     25  C   UNL d   1     -45.962  13.072  22.592  0.00  0.00     0.211 C 
ATOM     26  O   UNL d   1     -46.671  12.989  22.203  0.00  0.00    -0.644 OA
ATOM     27  O   UNL d   1     -45.874  12.787  23.364  0.00  0.00    -0.644 OA
ENDBRANCH  24  25
ENDBRANCH  23  24
ENDBRANCH  22  23
ENDBRANCH   3  22
TORSDOF 7
ENDMDL
