MODEL 1
REMARK VINA RESULT:      -9.3      0.000      0.000
REMARK  0 active torsions:
REMARK  status: ('A' for Active; 'I' for Inactive)
ROOT
ATOM      1  C   UNL d   1     -48.214  11.979  23.459  0.00  0.00     0.166 A 
ATOM      2  C   UNL d   1     -48.213  12.767  23.223  0.00  0.00     0.117 A 
ATOM      3  N   UNL d   1     -47.422  11.742  23.486  0.00  0.00    -0.288 N 
ATOM      4  C   UNL d   1     -47.451  13.008  23.107  0.00  0.00     0.038 A 
ATOM      5  N   UNL d   1     -48.921  11.578  23.620  0.00  0.00    -0.225 NA
ATOM      6  C   UNL d   1     -46.957  12.368  23.272  0.00  0.00     0.067 A 
ATOM      7  N   UNL d   1     -48.943  13.138  23.153  0.00  0.00    -0.241 NA
ATOM      8  C   UNL d   1     -49.631  11.969  23.542  0.00  0.00     0.101 A 
ATOM      9  C   UNL d   1     -49.629  12.753  23.307  0.00  0.00     0.099 A 
ATOM     10  C   UNL d   1     -46.140  12.450  23.201  0.00  0.00     0.018 A 
ATOM     11  C   UNL d   1     -47.128  13.730  22.872  0.00  0.00     0.015 A 
ATOM     12  C   UNL d   1     -46.311  13.811  22.802  0.00  0.00     0.058 A 
ATOM     13  C   UNL d   1     -47.161  11.003  23.693  0.00  0.00     0.101 C 
ATOM     14  C   UNL d   1     -45.816  13.171  22.966  0.00  0.00     0.013 A 
ATOM     15 CL   UNL d   1     -45.987  14.533  22.567  0.00  0.00    -0.082 Cl
ATOM     16  C   UNL d   1     -50.319  11.582  23.697  0.00  0.00     0.021 A 
ATOM     17  C   UNL d   1     -50.339  13.144  23.230  0.00  0.00     0.021 A 
ATOM     18  C   UNL d   1     -51.064  12.766  23.384  0.00  0.00     0.002 A 
ATOM     19  C   UNL d   1     -51.038  11.991  23.615  0.00  0.00     0.002 A 
ENDROOT
TORSDOF 0
ENDMDL
MODEL 2
REMARK VINA RESULT:      -9.1      1.645      3.934
REMARK  0 active torsions:
REMARK  status: ('A' for Active; 'I' for Inactive)
ROOT
ATOM      1  C   UNL d   1     -48.554  14.069  22.937  0.00  0.00     0.166 A 
ATOM      2  C   UNL d   1     -48.652  13.265  23.084  0.00  0.00     0.117 A 
ATOM      3  N   UNL d   1     -49.304  14.410  22.994  0.00  0.00    -0.288 N 
ATOM      4  C   UNL d   1     -49.432  13.115  23.226  0.00  0.00     0.038 A 
ATOM      5  N   UNL d   1     -47.807  14.388  22.772  0.00  0.00    -0.225 NA
ATOM      6  C   UNL d   1     -49.840  13.830  23.170  0.00  0.00     0.067 A 
ATOM      7  N   UNL d   1     -47.979  12.794  23.060  0.00  0.00    -0.241 NA
ATOM      8  C   UNL d   1     -47.155  13.899  22.754  0.00  0.00     0.101 A 
ATOM      9  C   UNL d   1     -47.255  13.101  22.900  0.00  0.00     0.099 A 
ATOM     10  C   UNL d   1     -50.655  13.850  23.290  0.00  0.00     0.018 A 
ATOM     11  C   UNL d   1     -49.840  12.420  23.402  0.00  0.00     0.015 A 
ATOM     12  C   UNL d   1     -50.656  12.441  23.522  0.00  0.00     0.058 A 
ATOM     13  C   UNL d   1     -49.470  15.197  22.890  0.00  0.00     0.101 C 
ATOM     14  C   UNL d   1     -51.063  13.156  23.466  0.00  0.00     0.013 A 
ATOM     15 CL   UNL d   1     -51.064  11.745  23.698  0.00  0.00    -0.082 Cl
ATOM     16  C   UNL d   1     -46.430  14.207  22.594  0.00  0.00     0.021 A 
ATOM     17  C   UNL d   1     -46.604  12.612  22.883  0.00  0.00     0.021 A 
ATOM     18  C   UNL d   1     -45.842  12.905  22.719  0.00  0.00     0.002 A 
ATOM     19  C   UNL d   1     -45.772  13.699  22.578  0.00  0.00     0.002 A 
ENDROOT
TORSDOF 0
ENDMDL
MODEL 3
REMARK VINA RESULT:      -9.0      1.478      2.288
REMARK  0 active torsions:
REMARK  status: ('A' for Active; 'I' for Inactive)
ROOT
ATOM      1  C   UNL d   1     -48.107  14.193  22.926  0.00  0.00     0.166 A 
ATOM      2  C   UNL d   1     -48.341  13.447  23.183  0.00  0.00     0.117 A 
ATOM      3  N   UNL d   1     -47.287  14.159  22.825  0.00  0.00    -0.288 N 
ATOM      4  C   UNL d   1     -47.691  12.971  23.240  0.00  0.00     0.038 A 
ATOM      5  N   UNL d   1     -48.658  14.802  22.815  0.00  0.00    -0.225 NA
ATOM      6  C   UNL d   1     -47.033  13.416  23.016  0.00  0.00     0.067 A 
ATOM      7  N   UNL d   1     -49.142  13.333  23.326  0.00  0.00    -0.241 NA
ATOM      8  C   UNL d   1     -49.447  14.663  22.964  0.00  0.00     0.101 A 
ATOM      9  C   UNL d   1     -49.677  13.921  23.220  0.00  0.00     0.099 A 
ATOM     10  C   UNL d   1     -46.284  13.072  23.019  0.00  0.00     0.018 A 
ATOM     11  C   UNL d   1     -47.600  12.183  23.466  0.00  0.00     0.015 A 
ATOM     12  C   UNL d   1     -46.850  11.840  23.468  0.00  0.00     0.058 A 
ATOM     13  C   UNL d   1     -46.820  14.773  22.576  0.00  0.00     0.101 C 
ATOM     14  C   UNL d   1     -46.192  12.285  23.245  0.00  0.00     0.013 A 
ATOM     15 CL   UNL d   1     -46.757  11.052  23.695  0.00  0.00    -0.082 Cl
ATOM     16  C   UNL d   1     -49.983  15.253  22.858  0.00  0.00     0.021 A 
ATOM     17  C   UNL d   1     -50.465  13.782  23.369  0.00  0.00     0.021 A 
ATOM     18  C   UNL d   1     -51.040  14.376  23.266  0.00  0.00     0.002 A 
ATOM     19  C   UNL d   1     -50.785  15.100  23.013  0.00  0.00     0.002 A 
ENDROOT
TORSDOF 0
ENDMDL
MODEL 4
REMARK VINA RESULT:      -8.9      1.590      3.624
REMARK  0 active torsions:
REMARK  status: ('A' for Active; 'I' for Inactive)
ROOT
ATOM      1  C   UNL d   1     -48.737  13.176  23.103  0.00  0.00     0.166 A 
ATOM      2  C   UNL d   1     -48.717  13.998  23.124  0.00  0.00     0.117 A 
ATOM      3  N   UNL d   1     -49.522  12.958  23.244  0.00  0.00    -0.288 N 
ATOM      4  C   UNL d   1     -49.460  14.278  23.272  0.00  0.00     0.038 A 
ATOM      5  N   UNL d   1     -48.051  12.732  22.961  0.00  0.00    -0.225 NA
ATOM      6  C   UNL d   1     -49.963  13.628  23.346  0.00  0.00     0.067 A 
ATOM      7  N   UNL d   1     -47.990  14.360  22.999  0.00  0.00    -0.241 NA
ATOM      8  C   UNL d   1     -47.343  13.115  22.840  0.00  0.00     0.101 A 
ATOM      9  C   UNL d   1     -47.325  13.932  22.861  0.00  0.00     0.099 A 
ATOM     10  C   UNL d   1     -50.765  13.742  23.500  0.00  0.00     0.018 A 
ATOM     11  C   UNL d   1     -49.759  15.042  23.351  0.00  0.00     0.015 A 
ATOM     12  C   UNL d   1     -50.562  15.156  23.504  0.00  0.00     0.058 A 
ATOM     13  C   UNL d   1     -49.798  12.196  23.272  0.00  0.00     0.101 C 
ATOM     14  C   UNL d   1     -51.064  14.506  23.579  0.00  0.00     0.013 A 
ATOM     15 CL   UNL d   1     -50.862  15.921  23.584  0.00  0.00    -0.082 Cl
ATOM     16  C   UNL d   1     -46.676  12.686  22.703  0.00  0.00     0.021 A 
ATOM     17  C   UNL d   1     -46.617  14.315  22.740  0.00  0.00     0.021 A 
ATOM     18  C   UNL d   1     -45.913  13.895  22.596  0.00  0.00     0.002 A 
ATOM     19  C   UNL d   1     -45.959  13.087  22.580  0.00  0.00     0.002 A 
ENDROOT
TORSDOF 0
ENDMDL
MODEL 5
REMARK VINA RESULT:      -8.7      0.890      1.760
REMARK  0 active torsions:
REMARK  status: ('A' for Active; 'I' for Inactive)
ROOT
ATOM      1  C   UNL d   1     -48.603  13.758  22.954  0.00  0.00     0.166 A 
ATOM      2  C   UNL d   1     -48.202  13.050  23.073  0.00  0.00     0.117 A 
ATOM      3  N   UNL d   1     -48.032  14.318  22.745  0.00  0.00    -0.288 N 
ATOM      4  C   UNL d   1     -47.414  13.166  22.943  0.00  0.00     0.038 A 
ATOM      5  N   UNL d   1     -49.425  13.809  23.049  0.00  0.00    -0.225 NA
ATOM      6  C   UNL d   1     -47.308  13.958  22.738  0.00  0.00     0.067 A 
ATOM      7  N   UNL d   1     -48.651  12.396  23.289  0.00  0.00    -0.241 NA
ATOM      8  C   UNL d   1     -49.847  13.146  23.263  0.00  0.00     0.101 A 
ATOM      9  C   UNL d   1     -49.446  12.442  23.381  0.00  0.00     0.099 A 
ATOM     10  C   UNL d   1     -46.552  14.243  22.571  0.00  0.00     0.018 A 
ATOM     11  C   UNL d   1     -46.765  12.659  22.981  0.00  0.00     0.015 A 
ATOM     12  C   UNL d   1     -46.009  12.944  22.814  0.00  0.00     0.058 A 
ATOM     13  C   UNL d   1     -48.179  15.097  22.576  0.00  0.00     0.101 C 
ATOM     14  C   UNL d   1     -45.903  13.736  22.609  0.00  0.00     0.013 A 
ATOM     15 CL   UNL d   1     -45.359  12.437  22.852  0.00  0.00    -0.082 Cl
ATOM     16  C   UNL d   1     -50.644  13.192  23.356  0.00  0.00     0.021 A 
ATOM     17  C   UNL d   1     -49.868  11.780  23.596  0.00  0.00     0.021 A 
ATOM     18  C   UNL d   1     -50.694  11.801  23.698  0.00  0.00     0.002 A 
ATOM     19  C   UNL d   1     -51.064  12.510  23.575  0.00  0.00     0.002 A 
ENDROOT
TORSDOF 0
ENDMDL
MODEL 6
REMARK VINA RESULT:      -8.3      1.346      3.476
REMARK  0 active torsions:
REMARK  status: ('A' for Active; 'I' for Inactive)
ROOT
ATOM      1  C   UNL d   1     -48.087  12.396  23.229  0.00  0.00     0.166 A 
ATOM      2  C   UNL d   1     -48.343  13.151  23.024  0.00  0.00     0.117 A 
ATOM      3  N   UNL d   1     -48.762  11.970  23.445  0.00  0.00    -0.288 N 
ATOM      4  C   UNL d   1     -49.145  13.190  23.110  0.00  0.00     0.038 A 
ATOM      5  N   UNL d   1     -47.284  12.191  23.196  0.00  0.00    -0.225 NA
ATOM      6  C   UNL d   1     -49.406  12.453  23.372  0.00  0.00     0.067 A 
ATOM      7  N   UNL d   1     -47.771  13.690  22.786  0.00  0.00    -0.241 NA
ATOM      8  C   UNL d   1     -46.737  12.744  22.956  0.00  0.00     0.101 A 
ATOM      9  C   UNL d   1     -46.994  13.494  22.753  0.00  0.00     0.099 A 
ATOM     10  C   UNL d   1     -50.209  12.325  23.510  0.00  0.00     0.018 A 
ATOM     11  C   UNL d   1     -49.687  13.799  22.985  0.00  0.00     0.015 A 
ATOM     12  C   UNL d   1     -50.490  13.671  23.123  0.00  0.00     0.058 A 
ATOM     13  C   UNL d   1     -48.769  11.197  23.688  0.00  0.00     0.101 C 
ATOM     14  C   UNL d   1     -50.751  12.934  23.385  0.00  0.00     0.013 A 
ATOM     15 CL   UNL d   1     -51.032  14.281  22.998  0.00  0.00    -0.082 Cl
ATOM     16  C   UNL d   1     -45.958  12.547  22.923  0.00  0.00     0.021 A 
ATOM     17  C   UNL d   1     -46.447  14.047  22.513  0.00  0.00     0.021 A 
ATOM     18  C   UNL d   1     -45.635  13.868  22.470  0.00  0.00     0.002 A 
ATOM     19  C   UNL d   1     -45.408  13.120  22.677  0.00  0.00     0.002 A 
ENDROOT
TORSDOF 0
ENDMDL
MODEL 7
REMARK VINA RESULT:      -7.1      1.662      2.547
REMARK  0 active torsions:
REMARK  status: ('A' for Active; 'I' for Inactive)
ROOT
ATOM      1  C   UNL d   1     -46.797  13.619  22.707  0.00  0.00     0.166 A 
ATOM      2  C   UNL d   1     -47.144  12.950  23.038  0.00  0.00     0.117 A 
ATOM      3  N   UNL d   1     -46.002  13.431  22.578  0.00  0.00    -0.288 N 
ATOM      4  C   UNL d   1     -46.585  12.372  23.111  0.00  0.00     0.038 A 
ATOM      5  N   UNL d   1     -47.238  14.307  22.565  0.00  0.00    -0.225 NA
ATOM      6  C   UNL d   1     -45.873  12.672  22.824  0.00  0.00     0.067 A 
ATOM      7  N   UNL d   1     -47.943  12.993  23.221  0.00  0.00    -0.241 NA
ATOM      8  C   UNL d   1     -48.030  14.324  22.755  0.00  0.00     0.101 A 
ATOM      9  C   UNL d   1     -48.372  13.657  23.084  0.00  0.00     0.099 A 
ATOM     10  C   UNL d   1     -45.196  12.202  22.828  0.00  0.00     0.018 A 
ATOM     11  C   UNL d   1     -46.621  11.601  23.403  0.00  0.00     0.015 A 
ATOM     12  C   UNL d   1     -45.943  11.131  23.406  0.00  0.00     0.058 A 
ATOM     13  C   UNL d   1     -45.449  13.930  22.258  0.00  0.00     0.101 C 
ATOM     14  C   UNL d   1     -45.231  11.431  23.119  0.00  0.00     0.013 A 
ATOM     15 CL   UNL d   1     -45.979  10.359  23.698  0.00  0.00    -0.082 Cl
ATOM     16  C   UNL d   1     -48.459  14.989  22.618  0.00  0.00     0.021 A 
ATOM     17  C   UNL d   1     -49.164  13.674  23.275  0.00  0.00     0.021 A 
ATOM     18  C   UNL d   1     -49.630  14.351  23.143  0.00  0.00     0.002 A 
ATOM     19  C   UNL d   1     -49.266  14.995  22.816  0.00  0.00     0.002 A 
ENDROOT
TORSDOF 0
ENDMDL
MODEL 8
REMARK VINA RESULT:      -7.1      8.800     10.217
REMARK  0 active torsions:
REMARK  status: ('A' for Active; 'I' for Inactive)
ROOT
ATOM      1  C   UNL d   1     -40.033  15.041  18.217  0.00  0.00     0.166 A 
ATOM      2  C   UNL d   1     -39.656  14.395  18.561  0.00  0.00     0.117 A 
ATOM      3  N   UNL d   1     -39.837  15.025  17.414  0.00  0.00    -0.288 N 
ATOM      4  C   UNL d   1     -39.244  13.996  17.993  0.00  0.00     0.038 A 
ATOM      5  N   UNL d   1     -40.501  15.556  18.667  0.00  0.00    -0.225 NA
ATOM      6  C   UNL d   1     -39.356  14.390  17.277  0.00  0.00     0.067 A 
ATOM      7  N   UNL d   1     -39.764  14.284  19.368  0.00  0.00    -0.241 NA
ATOM      8  C   UNL d   1     -40.592  15.423  19.465  0.00  0.00     0.101 A 
ATOM      9  C   UNL d   1     -40.216  14.781  19.805  0.00  0.00     0.099 A 
ATOM     10  C   UNL d   1     -38.998  14.107  16.590  0.00  0.00     0.018 A 
ATOM     11  C   UNL d   1     -38.773  13.320  18.023  0.00  0.00     0.015 A 
ATOM     12  C   UNL d   1     -38.414  13.037  17.336  0.00  0.00     0.058 A 
ATOM     13  C   UNL d   1     -40.088  15.562  16.860  0.00  0.00     0.101 C 
ATOM     14  C   UNL d   1     -38.527  13.431  16.619  0.00  0.00     0.013 A 
ATOM     15 CL   UNL d   1     -37.943  12.360  17.365  0.00  0.00    -0.082 Cl
ATOM     16  C   UNL d   1     -41.045  15.922  19.904  0.00  0.00     0.021 A 
ATOM     17  C   UNL d   1     -40.307  14.648  20.604  0.00  0.00     0.021 A 
ATOM     18  C   UNL d   1     -40.770  15.149  21.080  0.00  0.00     0.002 A 
ATOM     19  C   UNL d   1     -41.130  15.777  20.718  0.00  0.00     0.002 A 
ENDROOT
TORSDOF 0
ENDMDL
MODEL 9
REMARK VINA RESULT:      -6.6      8.837     10.168
REMARK  0 active torsions:
REMARK  status: ('A' for Active; 'I' for Inactive)
ROOT
ATOM      1  C   UNL d   1     -39.539  15.722  18.705  0.00  0.00     0.166 A 
ATOM      2  C   UNL d   1     -40.353  15.799  18.620  0.00  0.00     0.117 A 
ATOM      3  N   UNL d   1     -39.227  15.668  17.941  0.00  0.00    -0.288 N 
ATOM      4  C   UNL d   1     -40.539  15.793  17.834  0.00  0.00     0.038 A 
ATOM      5  N   UNL d   1     -39.184  15.710  19.455  0.00  0.00    -0.225 NA
ATOM      6  C   UNL d   1     -39.835  15.711  17.410  0.00  0.00     0.067 A 
ATOM      7  N   UNL d   1     -40.799  15.863  19.307  0.00  0.00    -0.241 NA
ATOM      8  C   UNL d   1     -39.648  15.775  20.120  0.00  0.00     0.101 A 
ATOM      9  C   UNL d   1     -40.458  15.852  20.033  0.00  0.00     0.099 A 
ATOM     10  C   UNL d   1     -39.851  15.688  16.586  0.00  0.00     0.018 A 
ATOM     11  C   UNL d   1     -41.257  15.851  17.434  0.00  0.00     0.015 A 
ATOM     12  C   UNL d   1     -41.272  15.828  16.609  0.00  0.00     0.058 A 
ATOM     13  C   UNL d   1     -38.441  15.586  17.761  0.00  0.00     0.101 C 
ATOM     14  C   UNL d   1     -40.569  15.746  16.186  0.00  0.00     0.013 A 
ATOM     15 CL   UNL d   1     -41.992  15.886  16.208  0.00  0.00    -0.082 Cl
ATOM     16  C   UNL d   1     -39.306  15.764  20.848  0.00  0.00     0.021 A 
ATOM     17  C   UNL d   1     -40.922  15.917  20.699  0.00  0.00     0.021 A 
ATOM     18  C   UNL d   1     -40.593  15.908  21.463  0.00  0.00     0.002 A 
ATOM     19  C   UNL d   1     -39.789  15.832  21.521  0.00  0.00     0.002 A 
ENDROOT
TORSDOF 0
ENDMDL
