MODEL 1
REMARK VINA RESULT:      -5.8      0.000      0.000
REMARK  4 active torsions:
REMARK  status: ('A' for Active; 'I' for Inactive)
REMARK    1  A    between atoms: S_3  and  N_1 
REMARK    2  A    between atoms: C_9  and  S_3 
REMARK    3  A    between atoms: C_10  and  N_5 
REMARK    4  A    between atoms: C_15  and  C_10 
ROOT
ATOM      1  N   UNL d   1     -39.091  14.814  18.655  0.00  0.00    -0.195 N 
ATOM      2  C   UNL d   1     -39.753  15.062  18.234  0.00  0.00     0.193 A 
ATOM      3  C   UNL d   1     -40.315  15.333  18.765  0.00  0.00     0.185 A 
ATOM      4  N   UNL d   1     -40.008  15.257  19.528  0.00  0.00    -0.269 N 
ATOM      5  C   UNL d   1     -39.249  14.934  19.453  0.00  0.00     0.179 A 
ATOM      6  N   UNL d   1     -39.918  15.076  17.428  0.00  0.00    -0.223 NA
ATOM      7  N   UNL d   1     -41.043  15.620  18.498  0.00  0.00    -0.224 NA
ATOM      8  C   UNL d   1     -40.634  15.357  17.158  0.00  0.00     0.101 A 
ATOM      9  C   UNL d   1     -41.204  15.632  17.691  0.00  0.00     0.101 A 
ATOM     10  C   UNL d   1     -41.922  15.914  17.414  0.00  0.00     0.021 A 
ATOM     11  C   UNL d   1     -40.795  15.369  16.353  0.00  0.00     0.021 A 
ATOM     12  C   UNL d   1     -42.074  15.922  16.604  0.00  0.00     0.002 A 
ATOM     13  C   UNL d   1     -41.514  15.651  16.077  0.00  0.00     0.002 A 
ENDROOT
BRANCH   1  14
ATOM     14  S   UNL d   1     -38.502  14.525  18.044  0.00  0.00     0.274 S 
ATOM     15  O   UNL d   1     -37.940  15.124  17.716  0.00  0.00    -0.200 OA
ATOM     16  O   UNL d   1     -38.347  15.340  18.143  0.00  0.00    -0.200 OA
BRANCH  14  17
ATOM     17  C   UNL d   1     -38.358  13.788  17.701  0.00  0.00     0.104 A 
ATOM     18  C   UNL d   1     -38.441  13.102  18.150  0.00  0.00     0.015 A 
ATOM     19  C   UNL d   1     -38.296  12.358  17.805  0.00  0.00     0.030 A 
ATOM     20  C   UNL d   1     -38.070  12.313  17.015  0.00  0.00     0.140 A 
ATOM     21  C   UNL d   1     -37.986  13.010  16.560  0.00  0.00     0.030 A 
ATOM     22  F   UNL d   1     -37.940  11.545  16.729  0.00  0.00    -0.204 F 
ATOM     23  C   UNL d   1     -38.130  13.741  16.906  0.00  0.00     0.015 A 
ENDBRANCH  14  17
ENDBRANCH   1  14
BRANCH   4  24
ATOM     24  C   UNL d   1     -40.388  15.464  20.232  0.00  0.00     0.108 C 
BRANCH  24  25
ATOM     25  C   UNL d   1     -40.134  15.141  20.953  0.00  0.00     0.118 A 
ATOM     26  O   UNL d   1     -40.179  14.342  21.168  0.00  0.00    -0.304 OA
ATOM     27  C   UNL d   1     -39.861  14.259  21.941  0.00  0.00     0.123 A 
ATOM     28  C   UNL d   1     -39.623  15.012  22.195  0.00  0.00     0.029 A 
ATOM     29  C   UNL d   1     -39.793  15.553  21.583  0.00  0.00     0.028 A 
ENDBRANCH  24  25
ENDBRANCH   4  24
TORSDOF 4
ENDMDL
