MODEL 1
REMARK VINA RESULT:      -2.4      0.000      0.000
REMARK  4 active torsions:
REMARK  status: ('A' for Active; 'I' for Inactive)
REMARK    1  A    between atoms: C_2  and  C_1 
REMARK    2  A    between atoms: C_4  and  C_1 
REMARK    3  A    between atoms: C_5  and  C_2 
REMARK    4  A    between atoms: N_6  and  C_5 
ROOT
ATOM      1  C   UNL d   1      31.011  16.195 -23.945  0.00  0.00     0.197 C 
ATOM      2  O   UNL d   1      31.383  15.641 -24.440  0.00  0.00    -0.286 OA
ENDROOT
BRANCH   1   3
ATOM      3  C   UNL d   1      31.402  16.866 -23.711  0.00  0.00     0.061 C 
BRANCH   3   4
ATOM      4  C   UNL d   1      32.168  17.003 -23.953  0.00  0.00     0.084 C 
BRANCH   4   5
ATOM      5  N   UNL d   1      32.551  17.700 -23.735  0.00  0.00    -0.300 N 
ATOM      6  C   UNL d   1      32.547  18.347 -24.242  0.00  0.00     0.100 C 
ATOM      7  C   UNL d   1      32.937  17.748 -23.010  0.00  0.00     0.100 C 
ENDBRANCH   4   5
ENDBRANCH   3   4
ENDBRANCH   1   3
BRANCH   1   8
ATOM      8  C   UNL d   1      30.220  16.063 -23.679  0.00  0.00     0.039 A 
ATOM      9  C   UNL d   1      29.585  16.411 -24.078  0.00  0.00     0.003 A 
ATOM     10  C   UNL d   1      28.823  16.287 -23.828  0.00  0.00     0.000 A 
ATOM     11  C   UNL d   1      28.684  15.810 -23.170  0.00  0.00     0.000 A 
ATOM     12  C   UNL d   1      29.306  15.453 -22.758  0.00  0.00     0.000 A 
ATOM     13  C   UNL d   1      30.091  15.592 -23.031  0.00  0.00     0.003 A 
ENDBRANCH   1   8
TORSDOF 4
ENDMDL
MODEL 2
REMARK VINA RESULT:      -2.0      1.092      3.356
REMARK  4 active torsions:
REMARK  status: ('A' for Active; 'I' for Inactive)
REMARK    1  A    between atoms: C_2  and  C_1 
REMARK    2  A    between atoms: C_4  and  C_1 
REMARK    3  A    between atoms: C_5  and  C_2 
REMARK    4  A    between atoms: N_6  and  C_5 
ROOT
ATOM      1  C   UNL d   1      31.569  16.478 -23.922  0.00  0.00     0.197 C 
ATOM      2  O   UNL d   1      31.907  15.802 -24.270  0.00  0.00    -0.286 OA
ENDROOT
BRANCH   1   3
ATOM      3  C   UNL d   1      30.815  16.454 -23.625  0.00  0.00     0.061 C 
BRANCH   3   4
ATOM      4  C   UNL d   1      30.374  15.771 -23.673  0.00  0.00     0.084 C 
BRANCH   4   5
ATOM      5  N   UNL d   1      29.613  15.749 -23.354  0.00  0.00    -0.300 N 
ATOM      6  C   UNL d   1      28.975  16.023 -23.794  0.00  0.00     0.100 C 
ATOM      7  C   UNL d   1      29.493  15.452 -22.595  0.00  0.00     0.100 C 
ENDBRANCH   4   5
ENDBRANCH   3   4
ENDBRANCH   1   3
BRANCH   1   8
ATOM      8  C   UNL d   1      32.011  17.197 -23.876  0.00  0.00     0.039 A 
ATOM      9  C   UNL d   1      32.490  17.348 -23.219  0.00  0.00     0.003 A 
ATOM     10  C   UNL d   1      32.916  18.037 -23.170  0.00  0.00     0.000 A 
ATOM     11  C   UNL d   1      32.870  18.589 -23.782  0.00  0.00     0.000 A 
ATOM     12  C   UNL d   1      32.396  18.455 -24.447  0.00  0.00     0.000 A 
ATOM     13  C   UNL d   1      31.960  17.735 -24.482  0.00  0.00     0.003 A 
ENDBRANCH   1   8
TORSDOF 4
ENDMDL
MODEL 3
REMARK VINA RESULT:      -1.7      5.561      6.916
REMARK  4 active torsions:
REMARK  status: ('A' for Active; 'I' for Inactive)
REMARK    1  A    between atoms: C_2  and  C_1 
REMARK    2  A    between atoms: C_4  and  C_1 
REMARK    3  A    between atoms: C_5  and  C_2 
REMARK    4  A    between atoms: N_6  and  C_5 
ROOT
ATOM      1  C   UNL d   1      32.342  22.125 -20.639  0.00  0.00     0.197 C 
ATOM      2  O   UNL d   1      31.612  22.503 -20.770  0.00  0.00    -0.286 OA
ENDROOT
BRANCH   1   3
ATOM      3  C   UNL d   1      32.767  22.277 -19.966  0.00  0.00     0.061 C 
BRANCH   3   4
ATOM      4  C   UNL d   1      32.499  22.821 -19.421  0.00  0.00     0.084 C 
BRANCH   4   5
ATOM      5  N   UNL d   1      32.916  22.941 -18.719  0.00  0.00    -0.300 N 
ATOM      6  C   UNL d   1      33.237  22.299 -18.318  0.00  0.00     0.100 C 
ATOM      7  C   UNL d   1      33.010  23.702 -18.422  0.00  0.00     0.100 C 
ENDBRANCH   4   5
ENDBRANCH   3   4
ENDBRANCH   1   3
BRANCH   1   8
ATOM      8  C   UNL d   1      32.645  21.580 -21.208  0.00  0.00     0.039 A 
ATOM      9  C   UNL d   1      32.891  21.849 -21.951  0.00  0.00     0.003 A 
ATOM     10  C   UNL d   1      33.183  21.329 -22.501  0.00  0.00     0.000 A 
ATOM     11  C   UNL d   1      33.235  20.527 -22.316  0.00  0.00     0.000 A 
ATOM     12  C   UNL d   1      32.994  20.239 -21.579  0.00  0.00     0.000 A 
ATOM     13  C   UNL d   1      32.693  20.792 -21.019  0.00  0.00     0.003 A 
ENDBRANCH   1   8
TORSDOF 4
ENDMDL
