MODEL 1
REMARK VINA RESULT:      -5.6      0.000      0.000
REMARK  5 active torsions:
REMARK  status: ('A' for Active; 'I' for Inactive)
REMARK    1  A    between atoms: N_2  and  S_1 
REMARK    2  A    between atoms: C_3  and  S_1 
REMARK    3  A    between atoms: C_13  and  N_2 
REMARK       I    between atoms: C_6  and  N_7 
REMARK    4  A    between atoms: N_7  and  C_14 
REMARK    5  A    between atoms: C_12  and  C_13 
ROOT
ATOM      1  S   UNL d   1      57.117  -0.407  31.394  0.00  0.00     0.285 S 
ATOM      2  O   UNL d   1      56.898  -1.206  31.420  0.00  0.00    -0.198 OA
ATOM      3  O   UNL d   1      57.325   0.409  31.384  0.00  0.00    -0.198 OA
ENDROOT
BRANCH   1   4
ATOM      4  N   UNL d   1      57.637  -0.559  30.781  0.00  0.00    -0.157 NA
BRANCH   4   5
ATOM      5  C   UNL d   1      58.134   0.054  30.501  0.00  0.00     0.114 C 
BRANCH   5   6
ATOM      6  C   UNL d   1      58.581  -0.084  29.833  0.00  0.00     0.039 A 
ATOM      7  C   UNL d   1      58.833  -0.840  29.637  0.00  0.00     0.101 A 
ATOM      8  N   UNL d   1      59.289  -0.946  28.945  0.00  0.00    -0.242 NA
ATOM      9  C   UNL d   1      59.491  -0.304  28.455  0.00  0.00     0.099 A 
ATOM     10  C   UNL d   1      59.229   0.460  28.666  0.00  0.00     0.021 A 
ATOM     11  C   UNL d   1      58.784   0.568  29.338  0.00  0.00     0.005 A 
ENDBRANCH   5   6
ENDBRANCH   4   5
ENDBRANCH   1   4
BRANCH   1  12
ATOM     12  C   UNL d   1      56.574  -0.248  32.033  0.00  0.00     0.105 A 
ATOM     13  C   UNL d   1      56.233  -0.874  32.456  0.00  0.00     0.015 A 
ATOM     14  C   UNL d   1      55.713  -0.726  33.069  0.00  0.00     0.020 A 
ATOM     15  C   UNL d   1      55.532   0.071  33.260  0.00  0.00     0.085 A 
ATOM     16  C   UNL d   1      55.870   0.682  32.841  0.00  0.00     0.020 A 
ATOM     17  C   UNL d   1      56.398   0.522  32.220  0.00  0.00     0.015 A 
BRANCH  15  18
ATOM     18  N   UNL d   1      54.998   0.237  33.889  0.00  0.00    -0.208 NA
ATOM     19  C   UNL d   1      55.302   0.517  34.629  0.00  0.00     0.279 C 
ATOM     20  O   UNL d   1      56.125   0.624  34.726  0.00  0.00    -0.265 OA
ATOM     21  C   UNL d   1      54.795   0.678  35.236  0.00  0.00     0.068 C 
ENDBRANCH  15  18
ENDBRANCH   1  12
TORSDOF 5
ENDMDL
MODEL 2
REMARK VINA RESULT:      -4.8      1.165      5.031
REMARK  5 active torsions:
REMARK  status: ('A' for Active; 'I' for Inactive)
REMARK    1  A    between atoms: N_2  and  S_1 
REMARK    2  A    between atoms: C_3  and  S_1 
REMARK    3  A    between atoms: C_13  and  N_2 
REMARK       I    between atoms: C_6  and  N_7 
REMARK    4  A    between atoms: N_7  and  C_14 
REMARK    5  A    between atoms: C_12  and  C_13 
ROOT
ATOM      1  S   UNL d   1      57.199   0.337  31.631  0.00  0.00     0.285 S 
ATOM      2  O   UNL d   1      56.522   0.341  31.152  0.00  0.00    -0.198 OA
ATOM      3  O   UNL d   1      57.899   0.327  32.099  0.00  0.00    -0.198 OA
ENDROOT
BRANCH   1   4
ATOM      4  N   UNL d   1      56.753   0.557  32.281  0.00  0.00    -0.157 NA
BRANCH   4   5
ATOM      5  C   UNL d   1      56.440  -0.033  32.784  0.00  0.00     0.114 C 
BRANCH   5   6
ATOM      6  C   UNL d   1      55.983   0.200  33.417  0.00  0.00     0.039 A 
ATOM      7  C   UNL d   1      56.324   0.448  34.122  0.00  0.00     0.101 A 
ATOM      8  N   UNL d   1      55.826   0.681  34.751  0.00  0.00    -0.242 NA
ATOM      9  C   UNL d   1      54.996   0.665  34.678  0.00  0.00     0.099 A 
ATOM     10  C   UNL d   1      54.662   0.411  33.956  0.00  0.00     0.021 A 
ATOM     11  C   UNL d   1      55.143   0.184  33.341  0.00  0.00     0.005 A 
ENDBRANCH   5   6
ENDBRANCH   4   5
ENDBRANCH   1   4
BRANCH   1  12
ATOM     12  C   UNL d   1      57.665   0.107  30.953  0.00  0.00     0.105 A 
ATOM     13  C   UNL d   1      57.749  -0.694  30.758  0.00  0.00     0.015 A 
ATOM     14  C   UNL d   1      58.194  -0.918  30.110  0.00  0.00     0.020 A 
ATOM     15  C   UNL d   1      58.563  -0.322  29.649  0.00  0.00     0.085 A 
ATOM     16  C   UNL d   1      58.476   0.463  29.846  0.00  0.00     0.020 A 
ATOM     17  C   UNL d   1      58.022   0.682  30.506  0.00  0.00     0.015 A 
BRANCH  15  18
ATOM     18  N   UNL d   1      59.024  -0.540  28.979  0.00  0.00    -0.208 NA
ATOM     19  C   UNL d   1      59.818  -0.812  29.093  0.00  0.00     0.279 C 
ATOM     20  O   UNL d   1      60.134  -0.862  29.865  0.00  0.00    -0.265 OA
ATOM     21  C   UNL d   1      60.266  -1.021  28.455  0.00  0.00     0.068 C 
ENDBRANCH  15  18
ENDBRANCH   1  12
TORSDOF 5
ENDMDL
MODEL 3
REMARK VINA RESULT:      -4.7      0.875      1.294
REMARK  5 active torsions:
REMARK  status: ('A' for Active; 'I' for Inactive)
REMARK    1  A    between atoms: N_2  and  S_1 
REMARK    2  A    between atoms: C_3  and  S_1 
REMARK    3  A    between atoms: C_13  and  N_2 
REMARK       I    between atoms: C_6  and  N_7 
REMARK    4  A    between atoms: N_7  and  C_14 
REMARK    5  A    between atoms: C_12  and  C_13 
ROOT
ATOM      1  S   UNL d   1      57.434  -0.343  31.006  0.00  0.00     0.285 S 
ATOM      2  O   UNL d   1      57.204  -1.139  31.033  0.00  0.00    -0.198 OA
ATOM      3  O   UNL d   1      57.657   0.469  30.998  0.00  0.00    -0.198 OA
ENDROOT
BRANCH   1   4
ATOM      4  N   UNL d   1      57.806  -0.464  30.287  0.00  0.00    -0.157 NA
BRANCH   4   5
ATOM      5  C   UNL d   1      58.190  -1.193  30.140  0.00  0.00     0.114 C 
BRANCH   5   6
ATOM      6  C   UNL d   1      58.780  -1.214  29.579  0.00  0.00     0.039 A 
ATOM      7  C   UNL d   1      58.868  -0.611  29.029  0.00  0.00     0.101 A 
ATOM      8  N   UNL d   1      59.484  -0.664  28.467  0.00  0.00    -0.242 NA
ATOM      9  C   UNL d   1      60.007  -1.312  28.455  0.00  0.00     0.099 A 
ATOM     10  C   UNL d   1      59.908  -1.919  29.020  0.00  0.00     0.021 A 
ATOM     11  C   UNL d   1      59.309  -1.872  29.569  0.00  0.00     0.005 A 
ENDBRANCH   5   6
ENDBRANCH   4   5
ENDBRANCH   1   4
BRANCH   1  12
ATOM     12  C   UNL d   1      57.046  -0.215  31.755  0.00  0.00     0.105 A 
ATOM     13  C   UNL d   1      57.035   0.541  32.096  0.00  0.00     0.015 A 
ATOM     14  C   UNL d   1      56.664   0.667  32.813  0.00  0.00     0.020 A 
ATOM     15  C   UNL d   1      56.297   0.018  33.196  0.00  0.00     0.085 A 
ATOM     16  C   UNL d   1      56.311  -0.723  32.857  0.00  0.00     0.020 A 
ATOM     17  C   UNL d   1      56.690  -0.842  32.127  0.00  0.00     0.015 A 
BRANCH  15  18
ATOM     18  N   UNL d   1      55.911   0.134  33.936  0.00  0.00    -0.208 NA
ATOM     19  C   UNL d   1      55.134   0.470  33.951  0.00  0.00     0.279 C 
ATOM     20  O   UNL d   1      54.759   0.682  33.234  0.00  0.00    -0.265 OA
ATOM     21  C   UNL d   1      54.759   0.584  34.656  0.00  0.00     0.068 C 
ENDBRANCH  15  18
ENDBRANCH   1  12
TORSDOF 5
ENDMDL
