MODEL 1
REMARK VINA RESULT:      -1.3      0.000      0.000
REMARK  6 active torsions:
REMARK  status: ('A' for Active; 'I' for Inactive)
REMARK    1  A    between atoms: N_3  and  C_1 
REMARK    2  A    between atoms: C_4  and  C_2 
REMARK       I    between atoms: C_6  and  N_3 
REMARK    3  A    between atoms: C_11  and  C_6 
REMARK    4  A    between atoms: C_13  and  C_11 
REMARK    5  A    between atoms: O_19  and  C_14 
REMARK    6  A    between atoms: C_20  and  O_19 
ROOT
ATOM      1  N   UNL d   1      32.849  21.227 -21.622  0.00  0.00    -0.201 NA
ATOM      2  C   UNL d   1      33.011  20.614 -22.149  0.00  0.00     0.280 C 
ATOM      3  O   UNL d   1      33.238  20.787 -22.934  0.00  0.00    -0.265 OA
ENDROOT
BRANCH   2   4
ATOM      4  C   UNL d   1      32.950  19.826 -21.903  0.00  0.00     0.062 C 
BRANCH   4   5
ATOM      5  C   UNL d   1      32.911  19.218 -22.470  0.00  0.00     0.005 A 
ATOM      6  C   UNL d   1      32.548  19.354 -23.199  0.00  0.00     0.002 A 
ATOM      7  C   UNL d   1      32.511  18.748 -23.758  0.00  0.00     0.025 A 
ATOM      8  C   UNL d   1      32.841  17.996 -23.586  0.00  0.00     0.100 A 
ATOM      9  C   UNL d   1      33.200  17.868 -22.859  0.00  0.00     0.025 A 
ATOM     10  C   UNL d   1      33.240  18.466 -22.298  0.00  0.00     0.002 A 
BRANCH   8  11
ATOM     11  O   UNL d   1      32.797  17.394 -24.159  0.00  0.00    -0.305 OA
BRANCH  11  12
ATOM     12  C   UNL d   1      32.130  16.920 -24.229  0.00  0.00     0.123 C 
ATOM     13  C   UNL d   1      32.090  16.332 -24.801  0.00  0.00     0.029 C 
ENDBRANCH  11  12
ENDBRANCH   8  11
ENDBRANCH   4   5
ENDBRANCH   2   4
BRANCH   1  14
ATOM     14  C   UNL d   1      32.912  22.016 -21.875  0.00  0.00     0.119 A 
ATOM     15  C   UNL d   1      32.695  22.674 -21.429  0.00  0.00     0.084 A 
ATOM     16  C   UNL d   1      32.846  23.346 -21.882  0.00  0.00     0.014 A 
ATOM     17  C   UNL d   1      33.162  23.103 -22.618  0.00  0.00     0.037 A 
ATOM     18  S   UNL d   1      33.196  22.277 -22.597  0.00  0.00    -0.067 SA
BRANCH  15  19
ATOM     19  C   UNL d   1      32.378  22.678 -20.660  0.00  0.00     0.299 C 
ATOM     20  O   UNL d   1      32.864  22.650 -20.003  0.00  0.00    -0.264 OA
ATOM     21  N   UNL d   1      31.554  22.711 -20.564  0.00  0.00    -0.102 N 
ENDBRANCH  15  19
ENDBRANCH   1  14
TORSDOF 6
ENDMDL
MODEL 2
REMARK VINA RESULT:      -1.3      2.897      4.491
REMARK  6 active torsions:
REMARK  status: ('A' for Active; 'I' for Inactive)
REMARK    1  A    between atoms: N_3  and  C_1 
REMARK    2  A    between atoms: C_4  and  C_2 
REMARK       I    between atoms: C_6  and  N_3 
REMARK    3  A    between atoms: C_11  and  C_6 
REMARK    4  A    between atoms: C_13  and  C_11 
REMARK    5  A    between atoms: O_19  and  C_14 
REMARK    6  A    between atoms: C_20  and  O_19 
ROOT
ATOM      1  N   UNL d   1      32.480  17.341 -23.843  0.00  0.00    -0.201 NA
ATOM      2  C   UNL d   1      32.033  16.803 -24.280  0.00  0.00     0.280 C 
ATOM      3  O   UNL d   1      31.805  16.988 -25.061  0.00  0.00    -0.265 OA
ENDROOT
BRANCH   2   4
ATOM      4  C   UNL d   1      31.810  16.080 -23.947  0.00  0.00     0.062 C 
BRANCH   4   5
ATOM      5  C   UNL d   1      31.006  15.922 -23.799  0.00  0.00     0.005 A 
ATOM      6  C   UNL d   1      30.743  15.806 -23.026  0.00  0.00     0.002 A 
ATOM      7  C   UNL d   1      29.945  15.650 -22.883  0.00  0.00     0.025 A 
ATOM      8  C   UNL d   1      29.403  15.610 -23.523  0.00  0.00     0.100 A 
ATOM      9  C   UNL d   1      29.673  15.727 -24.290  0.00  0.00     0.025 A 
ATOM     10  C   UNL d   1      30.465  15.882 -24.439  0.00  0.00     0.002 A 
BRANCH   8  11
ATOM     11  O   UNL d   1      28.601  15.453 -23.365  0.00  0.00    -0.305 OA
BRANCH  11  12
ATOM     12  C   UNL d   1      28.010  15.970 -23.604  0.00  0.00     0.123 C 
ATOM     13  C   UNL d   1      27.222  15.739 -23.601  0.00  0.00     0.029 C 
ENDBRANCH  11  12
ENDBRANCH   8  11
ENDBRANCH   4   5
ENDBRANCH   2   4
BRANCH   1  14
ATOM     14  C   UNL d   1      32.701  18.067 -24.183  0.00  0.00     0.119 A 
ATOM     15  C   UNL d   1      32.912  18.742 -23.761  0.00  0.00     0.084 A 
ATOM     16  C   UNL d   1      33.091  19.334 -24.306  0.00  0.00     0.014 A 
ATOM     17  C   UNL d   1      32.990  19.023 -25.076  0.00  0.00     0.037 A 
ATOM     18  S   UNL d   1      32.749  18.238 -24.982  0.00  0.00    -0.067 SA
BRANCH  15  19
ATOM     19  C   UNL d   1      32.943  18.829 -22.933  0.00  0.00     0.299 C 
ATOM     20  O   UNL d   1      32.687  19.515 -22.571  0.00  0.00    -0.264 OA
ATOM     21  N   UNL d   1      33.241  18.203 -22.475  0.00  0.00    -0.102 N 
ENDBRANCH  15  19
ENDBRANCH   1  14
TORSDOF 6
ENDMDL
MODEL 3
REMARK VINA RESULT:      -0.9      2.397      5.138
REMARK  6 active torsions:
REMARK  status: ('A' for Active; 'I' for Inactive)
REMARK    1  A    between atoms: N_3  and  C_1 
REMARK    2  A    between atoms: C_4  and  C_2 
REMARK       I    between atoms: C_6  and  N_3 
REMARK    3  A    between atoms: C_11  and  C_6 
REMARK    4  A    between atoms: C_13  and  C_11 
REMARK    5  A    between atoms: O_19  and  C_14 
REMARK    6  A    between atoms: C_20  and  O_19 
ROOT
ATOM      1  N   UNL d   1      32.078  17.688 -24.303  0.00  0.00    -0.201 NA
ATOM      2  C   UNL d   1      32.747  17.911 -23.877  0.00  0.00     0.280 C 
ATOM      3  O   UNL d   1      32.983  17.469 -23.209  0.00  0.00    -0.265 OA
ENDROOT
BRANCH   2   4
ATOM      4  C   UNL d   1      33.187  18.572 -24.109  0.00  0.00     0.062 C 
BRANCH   4   5
ATOM      5  C   UNL d   1      33.200  19.251 -23.627  0.00  0.00     0.005 A 
ATOM      6  C   UNL d   1      33.198  19.174 -22.805  0.00  0.00     0.002 A 
ATOM      7  C   UNL d   1      33.211  19.849 -22.331  0.00  0.00     0.025 A 
ATOM      8  C   UNL d   1      33.225  20.611 -22.682  0.00  0.00     0.100 A 
ATOM      9  C   UNL d   1      33.226  20.679 -23.500  0.00  0.00     0.025 A 
ATOM     10  C   UNL d   1      33.213  20.012 -23.979  0.00  0.00     0.002 A 
BRANCH   8  11
ATOM     11  O   UNL d   1      33.237  21.283 -22.192  0.00  0.00    -0.305 OA
BRANCH  11  12
ATOM     12  C   UNL d   1      32.574  21.512 -21.765  0.00  0.00     0.123 C 
ATOM     13  C   UNL d   1      32.581  22.197 -21.313  0.00  0.00     0.029 C 
ENDBRANCH  11  12
ENDBRANCH   8  11
ENDBRANCH   4   5
ENDBRANCH   2   4
BRANCH   1  14
ATOM     14  C   UNL d   1      31.640  17.023 -24.065  0.00  0.00     0.119 A 
ATOM     15  C   UNL d   1      30.854  16.877 -24.268  0.00  0.00     0.084 A 
ATOM     16  C   UNL d   1      30.633  16.163 -23.920  0.00  0.00     0.014 A 
ATOM     17  C   UNL d   1      31.289  15.861 -23.498  0.00  0.00     0.037 A 
ATOM     18  S   UNL d   1      31.903  16.405 -23.598  0.00  0.00    -0.067 SA
BRANCH  15  19
ATOM     19  C   UNL d   1      30.358  17.354 -24.736  0.00  0.00     0.299 C 
ATOM     20  O   UNL d   1      30.613  18.077 -25.020  0.00  0.00    -0.264 OA
ATOM     21  N   UNL d   1      29.593  17.085 -24.915  0.00  0.00    -0.102 N 
ENDBRANCH  15  19
ENDBRANCH   1  14
TORSDOF 6
ENDMDL
MODEL 4
REMARK VINA RESULT:       0.7      1.965      2.857
REMARK  6 active torsions:
REMARK  status: ('A' for Active; 'I' for Inactive)
REMARK    1  A    between atoms: N_3  and  C_1 
REMARK    2  A    between atoms: C_4  and  C_2 
REMARK       I    between atoms: C_6  and  N_3 
REMARK    3  A    between atoms: C_11  and  C_6 
REMARK    4  A    between atoms: C_13  and  C_11 
REMARK    5  A    between atoms: O_19  and  C_14 
REMARK    6  A    between atoms: C_20  and  O_19 
ROOT
ATOM      1  N   UNL d   1      33.237  18.785 -23.204  0.00  0.00    -0.201 NA
ATOM      2  C   UNL d   1      33.235  18.495 -23.976  0.00  0.00     0.280 C 
ATOM      3  O   UNL d   1      33.235  19.026 -24.621  0.00  0.00    -0.265 OA
ENDROOT
BRANCH   2   4
ATOM      4  C   UNL d   1      33.234  17.679 -24.114  0.00  0.00     0.062 C 
BRANCH   4   5
ATOM      5  C   UNL d   1      32.515  17.261 -24.114  0.00  0.00     0.005 A 
ATOM      6  C   UNL d   1      32.380  16.670 -23.554  0.00  0.00     0.002 A 
ATOM      7  C   UNL d   1      31.666  16.257 -23.557  0.00  0.00     0.025 A 
ATOM      8  C   UNL d   1      31.078  16.437 -24.128  0.00  0.00     0.100 A 
ATOM      9  C   UNL d   1      31.218  17.026 -24.682  0.00  0.00     0.025 A 
ATOM     10  C   UNL d   1      31.927  17.441 -24.685  0.00  0.00     0.002 A 
BRANCH   8  11
ATOM     11  O   UNL d   1      30.362  16.013 -24.120  0.00  0.00    -0.305 OA
BRANCH  11  12
ATOM     12  C   UNL d   1      29.679  16.323 -24.453  0.00  0.00     0.123 C 
ATOM     13  C   UNL d   1      28.987  15.882 -24.484  0.00  0.00     0.029 C 
ENDBRANCH  11  12
ENDBRANCH   8  11
ENDBRANCH   4   5
ENDBRANCH   2   4
BRANCH   1  14
ATOM     14  C   UNL d   1      33.239  19.606 -23.071  0.00  0.00     0.119 A 
ATOM     15  C   UNL d   1      33.240  19.965 -22.329  0.00  0.00     0.084 A 
ATOM     16  C   UNL d   1      33.241  20.781 -22.445  0.00  0.00     0.014 A 
ATOM     17  C   UNL d   1      33.241  20.931 -23.268  0.00  0.00     0.037 A 
ATOM     18  S   UNL d   1      33.239  20.193 -23.641  0.00  0.00    -0.067 SA
BRANCH  15  19
ATOM     19  C   UNL d   1      33.240  19.587 -21.588  0.00  0.00     0.299 C 
ATOM     20  O   UNL d   1      33.238  20.019 -20.894  0.00  0.00    -0.264 OA
ATOM     21  N   UNL d   1      33.241  18.757 -21.560  0.00  0.00    -0.102 N 
ENDBRANCH  15  19
ENDBRANCH   1  14
TORSDOF 6
ENDMDL
