MODEL 1
REMARK VINA RESULT:      25.5      0.000      0.000
REMARK  4 active torsions:
REMARK  status: ('A' for Active; 'I' for Inactive)
REMARK    1  A    between atoms: C_9  and  N_2 
REMARK    2  A    between atoms: C_7  and  O_10 
REMARK    3  A    between atoms: C_11  and  C_9 
REMARK    4  A    between atoms: O_10  and  C_11 
ROOT
ATOM      1  C   UNL d   1     -58.666 -98.802 -44.731  0.00  0.00     0.378 A 
ATOM      2  N   UNL d   1     -58.133 -98.785 -44.091  0.00  0.00    -0.249 N 
ATOM      3  O   UNL d   1     -59.437 -98.804 -44.423  0.00  0.00    -0.258 OA
ATOM      4  C   UNL d   1     -58.577 -98.777 -43.393  0.00  0.00     0.092 A 
ATOM      5  C   UNL d   1     -59.382 -98.789 -43.600  0.00  0.00     0.121 A 
ATOM      6  O   UNL d   1     -58.454 -98.814 -45.525  0.00  0.00    -0.237 OA
ATOM      7  C   UNL d   1     -58.353 -98.760 -42.597  0.00  0.00     0.020 A 
ATOM      8  C   UNL d   1     -59.957 -98.784 -42.999  0.00  0.00     0.026 A 
ATOM      9  C   UNL d   1     -58.933 -98.755 -42.009  0.00  0.00     0.002 A 
ATOM     10  C   UNL d   1     -59.730 -98.767 -42.209  0.00  0.00     0.002 A 
ENDROOT
BRANCH   2  11
ATOM     11  C   UNL d   1     -57.307 -98.776 -44.103  0.00  0.00     0.112 C 
BRANCH  11  12
ATOM     12  C   UNL d   1     -56.907 -99.021 -44.773  0.00  0.00     0.142 C 
BRANCH  12  13
ATOM     13  O   UNL d   1     -56.083 -99.063 -44.766  0.00  0.00    -0.304 OA
BRANCH  13  14
ATOM     14  C   UNL d   1     -55.708 -99.773 -44.572  0.00  0.00     0.100 A 
ATOM     15  C   UNL d   1     -55.093 -99.765 -44.031  0.00  0.00     0.023 A 
ATOM     16  C   UNL d   1     -54.851 -99.061 -43.685  0.00  0.00     0.002 C 
ATOM     17  C   UNL d   1     -54.712-100.474 -43.832  0.00  0.00     0.002 A 
ATOM     18  C   UNL d   1     -54.960-101.182 -44.184  0.00  0.00     0.000 A 
ATOM     19  C   UNL d   1     -55.581-101.178 -44.728  0.00  0.00     0.002 A 
ATOM     20  C   UNL d   1     -55.951-100.475 -44.919  0.00  0.00     0.025 A 
ENDBRANCH  13  14
ENDBRANCH  12  13
ENDBRANCH  11  12
ENDBRANCH   2  11
TORSDOF 4
ENDMDL
